@<TRIPOS>MOLECULE
tmp/3dt3B00.pdb
 187 177 0 0 0
SMALL
GASTEIGER

@<TRIPOS>ATOM
      1  N         15.5830  -23.3190   29.1210 N.3    38  MET38      -0.1245
      2  CA        16.0580  -23.0240   27.7720 C.3    38  MET38       0.1570
      3  C         15.1660  -23.6740   26.7090 C.2    38  MET38       0.2261
      4  O         14.9180  -23.0760   25.6600 O.2    38  MET38      -0.2867
      5  CB        17.5160  -23.4610   27.5920 C.3    38  MET38       0.0387
      6  CG        18.2470  -22.7210   26.4750 C.3    38  MET38       0.0595
      7  SD        18.3920  -20.9180   26.6930 S.3    38  MET38      -0.1393
      8  CE        19.1020  -20.8860   28.3310 C.3    38  MET38       0.0692
      9  N         11.9510  -21.5430   26.5730 N.3    41  LEU41      -0.1231
     10  CA        12.2310  -20.2620   25.9190 C.3    41  LEU41       0.1693
     11  C         12.5200  -20.4490   24.4270 C.2    41  LEU41       0.2592
     12  O         12.1680  -19.5920   23.6290 O.2    41  LEU41      -0.2718
     13  CB        13.3900  -19.5200   26.6120 C.3    41  LEU41       0.0284
     14  CG        13.2230  -19.3040   28.1240 C.3    41  LEU41       0.0019
     15  CD1       14.4670  -18.6650   28.7470 C.3    41  LEU41       0.0001
     16  CD2       11.9680  -18.4760   28.4180 C.3    41  LEU41       0.0001
     17  N         13.1440  -21.5700   24.0640 N.am   42  THR42      -0.1953
     18  CA        13.4020  -21.9100   22.6620 C.3    42  THR42       0.1897
     19  C         12.0890  -22.1230   21.9080 C.2    42  THR42       0.2313
     20  O         11.8600  -21.5160   20.8630 O.2    42  THR42      -0.2863
     21  CB        14.2840  -23.1970   22.5300 C.3    42  THR42       0.1794
     22  OG1       15.5900  -22.9530   23.0610 O.3    42  THR42      -0.2208
     23  CG2       14.4360  -23.6160   21.0760 C.3    42  THR42       0.0378
     24  N          9.0790  -21.1860   22.8370 N.3    44  LEU44      -0.1231
     25  CA         8.3710  -19.9030   22.8200 C.3    44  LEU44       0.1693
     26  C          8.8890  -19.0140   21.6860 C.2    44  LEU44       0.2592
     27  O          8.1030  -18.4700   20.9070 O.2    44  LEU44      -0.2718
     28  CB         8.5130  -19.1800   24.1660 C.3    44  LEU44       0.0284
     29  CG         7.8180  -17.8130   24.3010 C.3    44  LEU44       0.0019
     30  CD1        6.3230  -17.9150   24.0120 C.3    44  LEU44       0.0001
     31  CD2        8.0600  -17.2000   25.6830 C.3    44  LEU44       0.0001
     32  N         10.2100  -18.8830   21.6070 N.am   45  ALA45      -0.1966
     33  CA        10.8650  -18.0310   20.6170 C.3    45  ALA45       0.1728
     34  C         10.5290  -18.4480   19.1870 C.2    45  ALA45       0.2616
     35  O         10.2670  -17.5950   18.3390 O.2    45  ALA45      -0.2715
     36  CB        12.3800  -18.0510   20.8300 C.3    45  ALA45       0.0334
     37  N         10.5270  -19.7560   18.9360 N.am   46  ASP46      -0.1971
     38  CA        10.2260  -20.3010   17.6100 C.3    46  ASP46       0.1709
     39  C          8.8180  -19.9570   17.1650 C.2    46  ASP46       0.2293
     40  O          8.6040  -19.5980   16.0030 O.2    46  ASP46      -0.2864
     41  CB        10.3620  -21.8270   17.5960 C.3    46  ASP46       0.1436
     42  CG        11.7810  -22.2940   17.7780 C.2    46  ASP46       0.3671
     43  OD1       12.7220  -21.5460   17.4210 O.co2  46  ASP46      -0.2456
     44  OD2       11.9510  -23.4380   18.2650 O.co2  46  ASP46      -0.2456
     45  N          7.0200  -17.4690   18.3550 N.3    48  GLU48      -0.1245
     46  CA         6.9820  -16.0110   18.1630 C.3    48  GLU48       0.1567
     47  C          7.5800  -15.6050   16.8220 C.2    48  GLU48       0.2260
     48  O          7.0950  -14.6860   16.1750 O.2    48  GLU48      -0.2867
     49  CB         7.7210  -15.2940   19.2800 C.3    48  GLU48       0.0388
     50  CG         6.9790  -15.2540   20.5950 C.3    48  GLU48       0.1160
     51  CD         7.6330  -14.3040   21.5610 C.2    48  GLU48       0.3649
     52  OE1        8.5650  -14.7280   22.2730 O.co2  48  GLU48      -0.2457
     53  OE2        7.2320  -13.1200   21.5840 O.co2  48  GLU48      -0.2457
     54  N         16.0350  -10.1830   14.6910 N.3    78  TRP78      -0.1227
     55  CA        15.0340  -11.0180   15.3640 C.3    78  TRP78       0.1737
     56  C         15.1420  -11.1030   16.9000 C.2    78  TRP78       0.2595
     57  O         14.1250  -11.0610   17.5920 O.2    78  TRP78      -0.2718
     58  CB        15.0070  -12.4330   14.7670 C.3    78  TRP78       0.0564
     59  CG        16.2380  -13.2400   15.0340 C.ar   78  TRP78       0.0003
     60  CD1       17.3450  -13.3170   14.2540 C.ar   78  TRP78       0.0946
     61  CD2       16.4720  -14.0950   16.1510 C.ar   78  TRP78       0.0152
     62  NE1       18.2650  -14.1700   14.8130 N.ar   78  TRP78      -0.2442
     63  CE2       17.7580  -14.6520   15.9900 C.ar   78  TRP78       0.0810
     64  CE3       15.7250  -14.4360   17.2830 C.ar   78  TRP78       0.0012
     65  CZ2       18.3120  -15.5390   16.9160 C.ar   78  TRP78       0.0191
     66  CZ3       16.2840  -15.3170   18.2100 C.ar   78  TRP78       0.0001
     67  CH2       17.5590  -15.8580   18.0170 C.ar   78  TRP78       0.0015
     68  N         16.3560  -11.2240   17.4270 N.am   79  LEU79      -0.1980
     69  CA        16.5430  -11.3340   18.8670 C.3    79  LEU79       0.1596
     70  C         16.3250   -9.9850   19.5760 C.2    79  LEU79       0.2287
     71  O         15.7150   -9.9490   20.6470 O.2    79  LEU79      -0.2864
     72  CB        17.9140  -11.9380   19.2030 C.3    79  LEU79       0.0297
     73  CG        18.1650  -12.2380   20.6950 C.3    79  LEU79       0.0022
     74  CD1       17.0560  -13.0750   21.3090 C.3    79  LEU79       0.0001
     75  CD2       19.5070  -12.9140   20.8940 C.3    79  LEU79       0.0001
     76  N         12.6690   -9.6710   19.8590 N.3    82  LEU82      -0.1231
     77  CA        12.1830  -10.5080   20.9640 C.3    82  LEU82       0.1693
     78  C         12.4790   -9.8040   22.2900 C.2    82  LEU82       0.2591
     79  O         11.6380   -9.7700   23.1860 O.2    82  LEU82      -0.2718
     80  CB        12.8370  -11.9040   20.9640 C.3    82  LEU82       0.0284
     81  CG        12.3930  -12.9460   19.9350 C.3    82  LEU82       0.0019
     82  CD1       13.0860  -14.2760   20.2000 C.3    82  LEU82       0.0001
     83  CD2       10.8880  -13.1300   19.9290 C.3    82  LEU82       0.0001
     84  N         13.6790   -9.2390   22.4050 N.am   83  MET83      -0.1979
     85  CA        14.0950   -8.5920   23.6450 C.3    83  MET83       0.1605
     86  C         13.2710   -7.3570   23.9780 C.2    83  MET83       0.2287
     87  O         12.7830   -7.2240   25.1040 O.2    83  MET83      -0.2864
     88  CB        15.5740   -8.2460   23.5980 C.3    83  MET83       0.0413
     89  CG        16.4860   -9.4520   23.8150 C.3    83  MET83       0.0598
     90  SD        18.2070   -8.9790   23.6180 S.3    83  MET83      -0.1393
     91  CE        19.0730  -10.4710   24.1340 C.3    83  MET83       0.0692
     92  N          9.8850   -8.4690   25.2980 N.3    86  LEU86      -0.1245
     93  CA        10.0160   -8.9630   26.6610 C.3    86  LEU86       0.1561
     94  C         10.1630   -7.8070   27.6500 C.2    86  LEU86       0.2260
     95  O          9.5640   -7.8190   28.7250 O.2    86  LEU86      -0.2867
     96  CB        11.2300   -9.8930   26.7480 C.3    86  LEU86       0.0270
     97  CG        11.7020  -10.3670   28.1220 C.3    86  LEU86       0.0019
     98  CD1       10.6520  -11.2520   28.7930 C.3    86  LEU86       0.0001
     99  CD2       13.0320  -11.0910   27.9800 C.3    86  LEU86       0.0001
    100  N          6.6500   -5.8810   27.9570 N.3    89  ARG89      -0.1245
    101  CA         5.6530   -6.5950   28.7570 C.3    89  ARG89       0.1563
    102  C          6.1420   -6.9860   30.1640 C.2    89  ARG89       0.2260
    103  O          5.3860   -7.5640   30.9480 O.2    89  ARG89      -0.2867
    104  CB         5.1130   -7.8050   27.9880 C.3    89  ARG89       0.0307
    105  CG         6.0410   -8.9870   27.8900 C.3    89  ARG89       0.0489
    106  CD         5.5130  -10.0380   26.9030 C.3    89  ARG89       0.2205
    107  NE         6.5080  -11.0950   26.7190 N.pl3  89  ARG89      -0.0865
    108  CZ         7.2500  -11.2770   25.6310 C.cat  89  ARG89       0.5346
    109  NH1        7.1040  -10.5090   24.5560 N.pl3  89  ARG89       0.1354
    110  NH2        8.1360  -12.2630   25.6100 N.pl3  89  ARG89       0.1354
    111  N          8.2960  -13.4750   30.2480 N.3    99  PHE99      -0.1241
    112  CA         8.5310  -14.1130   28.9560 C.3    99  PHE99       0.1605
    113  C          7.1940  -14.5140   28.3390 C.2    99  PHE99       0.2264
    114  O          6.9760  -14.3670   27.1290 O.2    99  PHE99      -0.2867
    115  CB         9.4450  -15.3270   29.1010 C.3    99  PHE99       0.0534
    116  CG        10.8880  -14.9740   29.2980 C.ar   99  PHE99      -0.0203
    117  CD1       11.7280  -14.7810   28.2050 C.ar   99  PHE99      -0.0042
    118  CD2       11.4130  -14.8220   30.5730 C.ar   99  PHE99      -0.0042
    119  CE1       13.0570  -14.4540   28.3870 C.ar   99  PHE99      -0.0003
    120  CE2       12.7430  -14.4990   30.7560 C.ar   99  PHE99      -0.0003
    121  CZ        13.5640  -14.3160   29.6620 C.ar   99  PHE99      -0.0000
    122  N         23.2300  -16.8830   32.0140 N.3   116  MET116     -0.1245
    123  CA        21.9430  -16.2390   31.7410 C.3   116  MET116      0.1570
    124  C         21.7020  -14.9760   32.5770 C.2   116  MET116      0.2261
    125  O         21.0600  -14.0340   32.1020 O.2   116  MET116     -0.2867
    126  CB        20.8050  -17.2350   31.9790 C.3   116  MET116      0.0387
    127  CG        19.4520  -16.7810   31.4440 C.3   116  MET116      0.0595
    128  SD        18.1010  -17.9420   31.7890 S.3   116  MET116     -0.1393
    129  CE        18.3620  -19.2020   30.5520 C.3   116  MET116      0.0692
    130  N         22.4690  -11.5000   31.2670 N.3   119  ILE119     -0.1231
    131  CA        21.5120  -10.9920   30.2970 C.3   119  ILE119      0.1692
    132  C         20.1910  -10.5890   30.9700 C.2   119  ILE119      0.2592
    133  O         19.5910   -9.5850   30.5970 O.2   119  ILE119     -0.2718
    134  CB        21.3220  -12.0140   29.1520 C.3   119  ILE119      0.0266
    135  CG1       22.6230  -12.1000   28.3320 C.3   119  ILE119      0.0019
    136  CG2       20.1680  -11.6300   28.2640 C.3   119  ILE119      0.0020
    137  CD1       22.8220  -13.4330   27.5980 C.3   119  ILE119      0.0001
    138  N         19.7610  -11.3600   31.9680 N.am  120  PHE120     -0.1976
    139  CA        18.5940  -11.0080   32.7970 C.3   120  PHE120      0.1639
    140  C         18.7460   -9.6360   33.4510 C.2   120  PHE120      0.2290
    141  O         17.8540   -8.7910   33.3490 O.2   120  PHE120     -0.2864
    142  CB        18.3700  -12.0560   33.8990 C.3   120  PHE120      0.0560
    143  CG        17.4020  -13.1450   33.5260 C.ar  120  PHE120     -0.0200
    144  CD1       17.3720  -13.6700   32.2380 C.ar  120  PHE120     -0.0042
    145  CD2       16.5330  -13.6620   34.4780 C.ar  120  PHE120     -0.0042
    146  CE1       16.4790  -14.6820   31.9020 C.ar  120  PHE120     -0.0003
    147  CE2       15.6440  -14.6760   34.1580 C.ar  120  PHE120     -0.0003
    148  CZ        15.6150  -15.1870   32.8660 C.ar  120  PHE120     -0.0000
    149  N         18.4210   -6.9890   30.9200 N.3   123  LEU123     -0.1245
    150  CA        17.0210   -6.8720   30.4930 C.3   123  LEU123      0.1561
    151  C         16.1600   -6.2020   31.5560 C.2   123  LEU123      0.2260
    152  O         15.3340   -5.3570   31.2380 O.2   123  LEU123     -0.2867
    153  CB        16.4420   -8.2470   30.1270 C.3   123  LEU123      0.0270
    154  CG        17.0060   -8.8430   28.8320 C.3   123  LEU123      0.0019
    155  CD1       16.7850  -10.3520   28.7860 C.3   123  LEU123      0.0001
    156  CD2       16.4210   -8.1460   27.5910 C.3   123  LEU123      0.0001
    157  N         23.4460  -12.2590   23.9700 N.3   214  GLY214     -0.1225
    158  CA        22.5150  -13.3880   23.8300 C.3   214  GLY214      0.1811
    159  C         22.9550  -14.3810   22.7660 C.2   214  GLY214      0.2280
    160  O         22.9230  -15.5940   22.9860 O.2   214  GLY214     -0.2866
    161  N         25.9090  -16.3110   23.9530 N.3   217  HIS217     -0.1226
    162  CA        25.4340  -17.2700   24.9420 C.3   217  HIS217      0.1752
    163  C         24.7200  -18.4580   24.2950 C.2   217  HIS217      0.2595
    164  O         24.8100  -19.5770   24.8000 O.2   217  HIS217     -0.2718
    165  CB        24.5160  -16.5750   25.9550 C.3   217  HIS217      0.0759
    166  CG        24.0960  -17.4540   27.0910 C.ar  217  HIS217      0.0818
    167  ND1       22.8020  -17.9000   27.2470 N.ar  217  HIS217     -0.2268
    168  CD2       24.8030  -17.9900   28.1130 C.ar  217  HIS217      0.1154
    169  CE1       22.7270  -18.6640   28.3210 C.ar  217  HIS217      0.1986
    170  NE2       23.9270  -18.7330   28.8660 N.ar  217  HIS217     -0.2212
    171  N         24.0230  -18.2160   23.1840 N.am  218  LEU218     -0.1980
    172  CA        23.3070  -19.2840   22.4680 C.3   218  LEU218      0.1596
    173  C         24.2410  -20.1830   21.6760 C.2   218  LEU218      0.2287
    174  O         24.0230  -21.3900   21.6270 O.2   218  LEU218     -0.2864
    175  CB        22.2400  -18.7090   21.5320 C.3   218  LEU218      0.0297
    176  CG        21.0330  -18.1300   22.2670 C.3   218  LEU218      0.0022
    177  CD1       20.2550  -17.1370   21.3940 C.3   218  LEU218      0.0001
    178  CD2       20.1440  -19.2490   22.7690 C.3   218  LEU218      0.0001
    179  N         24.7470  -24.4680   21.5530 N.3   222  LYS222     -0.1245
    180  CA        24.5250  -25.3290   20.3790 C.3   222  LYS222      0.1561
    181  C         25.4860  -25.0390   19.2140 C.2   222  LYS222      0.2260
    182  O         25.5050  -23.9270   18.6750 O.2   222  LYS222     -0.2867
    183  CB        23.0800  -25.1950   19.8970 C.3   222  LYS222      0.0271
    184  CG        22.7330  -23.8990   19.3210 C.3   222  LYS222      0.0035
    185  CD        21.2280  -23.8310   18.9970 C.3   222  LYS222      0.0206
    186  CE        20.6810  -22.6680   18.2680 C.3   222  LYS222      0.1093
    187  NZ        21.0540  -21.3750   18.7490 N.3   222  LYS222     -0.1314
@<TRIPOS>BOND
     1    60    62   ar
     2    60    59   ar
     3    54    55    1
     4    58    59    1
     5    58    55    1
     6    62    63   ar
     7    59    61   ar
     8    55    56    1
     9    63    61   ar
    10    63    65   ar
    11    40    39    2
    12    61    64   ar
    13    48    47    2
    14    47    46    1
    15    56    68   am
    16    56    57    2
    17    65    67   ar
    18    39    38    1
    19    64    66   ar
    20    43    42   ar
    21    68    69    1
    22    41    38    1
    23    41    42    1
    24    38    37    1
    25    42    44   ar
    26    67    66   ar
    27    46    45    1
    28    46    49    1
    29   186   187    1
    30   186   185    1
    31    35    34    2
    32   182   181    2
    33    69    72    1
    34    69    70    1
    35    37    34   am
    36   185   184    1
    37    34    33    1
    38    72    73    1
    39   181   180    1
    40    49    50    1
    41   184   183    1
    42    70    71    2
    43    76    77    1
    44   183   180    1
    45    83    81    1
    46    81    82    1
    47    81    80    1
    48   180   179    1
    49    50    51    1
    50    33    36    1
    51    33    32    1
    52    73    75    1
    53    73    74    1
    54    20    19    2
    55    27    26    2
    56    77    80    1
    57    77    78    1
    58    23    21    1
    59   177   176    1
    60   175   176    1
    61   175   172    1
    62    51    53   ar
    63    51    52   ar
    64    32    26   am
    65   174   173    2
    66   173   172    1
    67    26    25    1
    68    19    18    1
    69   176   178    1
    70    78    84   am
    71    78    79    2
    72    84    85    1
    73   172   171    1
    74    21    18    1
    75    21    22    1
    76    18    17    1
    77   159   160    2
    78   159   158    1
    79    25    24    1
    80    25    28    1
    81   171   163   am
    82    88    85    1
    83    88    89    1
    84    90    89    1
    85    90    91    1
    86    12    11    2
    87    85    86    1
    88   158   157    1
    89   161   162    1
    90    86    87    2
    91    30    29    1
    92    17    11   am
    93    28    29    1
    94   163   164    2
    95   163   162    1
    96    29    31    1
    97    11    10    1
    98   109   108    1
    99   162   165    1
   100    92    93    1
   101   110   108    1
   102   108   107    2
   103     4     3    2
   104    10     9    1
   105    10    13    1
   106   165   166    1
   107     6     7    1
   108     6     5    1
   109    13    14    1
   110    93    96    1
   111    93    94    1
   112     7     8    1
   113     3     2    1
   114   107   106    1
   115    96    97    1
   116   106   105    1
   117   166   167   ar
   118   166   168   ar
   119   114   113    2
   120   167   169   ar
   121   156   154    1
   122     5     2    1
   123   137   135    1
   124    94    95    2
   125     2     1    1
   126   105   104    1
   127   100   101    1
   128    99    97    1
   129   104   101    1
   130   168   170   ar
   131    97    98    1
   132    14    16    1
   133    14    15    1
   134   117   119   ar
   135   117   116   ar
   136   136   134    1
   137   169   170   ar
   138   135   134    1
   139   113   112    1
   140   119   121   ar
   141   101   102    1
   142   155   154    1
   143   154   153    1
   144   112   115    1
   145   112   111    1
   146   115   116    1
   147   134   131    1
   148   116   118   ar
   149   121   120   ar
   150   153   150    1
   151   102   103    2
   152   131   132    1
   153   131   130    1
   154   150   149    1
   155   150   151    1
   156   129   128    1
   157   118   120   ar
   158   133   132    2
   159   132   138   am
   160   152   151    2
   161   127   128    1
   162   127   126    1
   163   123   126    1
   164   123   122    1
   165   123   124    1
   166   146   144   ar
   167   146   148   ar
   168   138   139    1
   169   125   124    2
   170   144   143   ar
   171   139   140    1
   172   139   142    1
   173   148   147   ar
   174   141   140    2
   175   143   142    1
   176   143   145   ar
   177   147   145   ar
