@<TRIPOS>MOLECULE
tmp/3dt6A00.pdb
 80 76 0 0 0
SMALL
GASTEIGER

@<TRIPOS>ATOM
      1  N         54.0230  -10.9310   21.0630 N.3    42  ASP42      -0.1225
      2  CA        53.6510   -9.5540   21.3890 C.3    42  ASP42       0.1805
      3  C         54.9060   -8.6800   21.5620 C.2    42  ASP42       0.2598
      4  O         55.9910   -9.0010   21.0380 O.2    42  ASP42      -0.2718
      5  CB        52.7290   -9.5240   22.6280 C.3    42  ASP42       0.1424
      6  CG        53.3190  -10.2460   23.8200 C.2    42  ASP42       0.3668
      7  OD1       54.5560  -10.2850   23.9380 O.co2  42  ASP42      -0.2456
      8  OD2       52.5550  -10.7860   24.6430 O.co2  42  ASP42      -0.2456
      9  N         54.7710   -7.5830   22.2990 N.am   43  SER43      -0.1938
     10  CA        55.8920   -6.6750   22.5030 C.3    43  SER43       0.2055
     11  C         57.0740   -7.3700   23.2140 C.2    43  SER43       0.2642
     12  O         58.3030   -6.8130   22.9930 O.2    43  SER43      -0.2714
     13  CB        55.4770   -5.4570   23.3260 C.3    43  SER43       0.2130
     14  OG        54.9740   -5.8220   24.6410 O.3    43  SER43      -0.2179
     15  N         56.9020   -8.4400   23.9660 N.am   44  LEU44      -0.1977
     16  CA        58.0570   -9.1220   24.5560 C.3    44  LEU44       0.1596
     17  C         59.0100   -9.6240   23.4760 C.2    44  LEU44       0.2287
     18  O         60.2140   -9.5260   23.6340 O.2    44  LEU44      -0.2864
     19  CB        57.6150  -10.2530   25.4720 C.3    44  LEU44       0.0297
     20  CG        56.9290   -9.7900   26.7430 C.3    44  LEU44       0.0022
     21  CD1       56.3270  -10.9650   27.4790 C.3    44  LEU44       0.0001
     22  CD2       57.8570   -8.9980   27.6950 C.3    44  LEU44       0.0001
     23  N         58.8190   -8.4040   20.0520 N.3    46  GLN46      -0.1231
     24  CA        59.1480   -7.1880   19.3240 C.3    46  GLN46       0.1698
     25  C         60.3200   -6.3920   19.9140 C.2    46  GLN46       0.2592
     26  O         61.2540   -6.0450   19.1910 O.2    46  GLN46      -0.2718
     27  CB        57.9210   -6.2920   19.2330 C.3    46  GLN46       0.0381
     28  CG        58.1690   -4.9180   18.5650 C.3    46  GLN46       0.0905
     29  CD        56.9130   -4.0390   18.6870 C.2    46  GLN46       0.2608
     30  OE1       56.4040   -3.8370   19.7930 O.2    46  GLN46      -0.2717
     31  NE2       56.4130   -3.5370   17.5590 N.am   46  GLN46      -0.0878
     32  N         60.2680   -6.1210   21.2180 N.am   47  LEU47      -0.1980
     33  CA        61.2540   -5.2480   21.8570 C.3    47  LEU47       0.1596
     34  C         62.5910   -5.9950   22.0870 C.2    47  LEU47       0.2287
     35  O         63.6190   -5.3670   22.4090 O.2    47  LEU47      -0.2864
     36  CB        60.6970   -4.6840   23.1660 C.3    47  LEU47       0.0297
     37  CG        59.5130   -3.7370   22.9180 C.3    47  LEU47       0.0022
     38  CD1       58.9420   -3.1830   24.2260 C.3    47  LEU47       0.0001
     39  CD2       59.9640   -2.6080   22.0200 C.3    47  LEU47       0.0001
     40  N         53.6260   -5.1420   19.2860 N.3    69  GLY69      -0.1210
     41  CA        53.1360   -4.7190   20.5610 C.3    69  GLY69       0.1956
     42  C         51.6020   -4.7480   20.5870 C.2    69  GLY69       0.2612
     43  O         50.9510   -4.3150   19.6210 O.2    69  GLY69      -0.2717
     44  N         51.0590   -5.2850   21.6740 N.am   70  GLY70      -0.1956
     45  CA        49.5920   -5.3170   21.8990 C.3    70  GLY70       0.1869
     46  C         48.8510   -6.5320   21.3510 C.2    70  GLY70       0.2309
     47  O         47.6580   -6.7160   21.6160 O.2    70  GLY70      -0.2863
     48  N         49.7000  -12.6670   27.2090 N.3    99  THR99      -0.1203
     49  CA        49.5320  -11.7820   28.3600 C.3    99  THR99       0.1994
     50  C         48.5650  -10.6250   28.0420 C.2    99  THR99       0.2617
     51  O         48.0370   -9.9690   28.9310 O.2    99  THR99      -0.2717
     52  CB        50.8880  -11.2600   28.8790 C.3    99  THR99       0.1784
     53  OG1       50.7110  -10.6940   30.1870 O.3    99  THR99      -0.2211
     54  CG2       51.4840  -10.1660   27.9490 C.3    99  THR99       0.0376
     55  N         48.3320  -10.3800   26.7600 N.am  100  ASN100     -0.1974
     56  CA        47.4220   -9.3000   26.3220 C.3   100  ASN100      0.1688
     57  C         45.9720   -9.7140   26.0790 C.2   100  ASN100      0.2292
     58  O         45.1470   -8.8820   25.6750 O.2   100  ASN100     -0.2864
     59  CB        47.9770   -8.6350   25.0440 C.3   100  ASN100      0.1181
     60  CG        49.2870   -7.8960   25.2880 C.2   100  ASN100      0.2629
     61  OD1       49.5350   -7.3900   26.3830 O.2   100  ASN100     -0.2716
     62  ND2       50.1230   -7.8220   24.2720 N.am  100  ASN100     -0.0877
     63  N         55.5540   -4.4480   33.3610 N.3   190  LEU190     -0.1231
     64  CA        55.0280   -5.2690   32.2650 C.3   190  LEU190      0.1693
     65  C         56.1030   -5.5620   31.2300 C.2   190  LEU190      0.2592
     66  O         56.4330   -6.7520   30.9360 O.2   190  LEU190     -0.2718
     67  CB        53.7900   -4.5960   31.5860 C.3   190  LEU190      0.0284
     68  CG        53.1990   -5.3090   30.3410 C.3   190  LEU190      0.0019
     69  CD1       52.7410   -6.7390   30.7420 C.3   190  LEU190      0.0001
     70  CD2       52.0100   -4.5100   29.8390 C.3   190  LEU190      0.0001
     71  N         56.6960   -4.4860   30.7090 N.am  191  HIS191     -0.1976
     72  CA        57.7830   -4.5650   29.7240 C.3   191  HIS191      0.1656
     73  C         59.1150   -4.7260   30.4070 C.2   191  HIS191      0.2291
     74  O         59.3770   -4.0980   31.4170 O.2   191  HIS191     -0.2864
     75  CB        57.8400   -3.3220   28.8280 C.3   191  HIS191      0.0771
     76  CG        56.5670   -3.0740   28.0700 C.ar  191  HIS191      0.0820
     77  ND1       55.6090   -2.1760   28.4980 N.ar  191  HIS191     -0.2267
     78  CD2       56.1010   -3.5910   26.9150 C.ar  191  HIS191      0.1154
     79  CE1       54.6060   -2.1530   27.6440 C.ar  191  HIS191      0.1986
     80  NE2       54.8760   -3.0070   26.6750 N.ar  191  HIS191     -0.2212
@<TRIPOS>BOND
     1    31    29   am
     2    28    29    1
     3    28    27    1
     4    29    30    2
     5    26    25    2
     6    27    24    1
     7    40    41    1
     8    24    25    1
     9    24    23    1
    10    43    42    2
    11    25    32   am
    12    41    42    1
    13    42    44   am
    14     4     3    2
    15     1     2    1
    16    32    33    1
    17    46    47    2
    18    46    45    1
    19     2     3    1
    20     2     5    1
    21     3     9   am
    22    44    45    1
    23    33    34    1
    24    33    36    1
    25    39    37    1
    26    34    35    2
    27     9    10    1
    28    10    11    1
    29    10    13    1
    30     5     6    1
    31    37    36    1
    32    37    38    1
    33    12    11    2
    34    11    15   am
    35    13    14    1
    36    17    18    2
    37    17    16    1
    38     6     7   ar
    39     6     8   ar
    40    15    16    1
    41    62    60   am
    42    16    19    1
    43    59    60    1
    44    59    56    1
    45    60    61    2
    46    19    20    1
    47    58    57    2
    48    57    56    1
    49    56    55    1
    50    80    78   ar
    51    80    79   ar
    52    20    21    1
    53    20    22    1
    54    55    50   am
    55    78    76   ar
    56    48    49    1
    57    79    77   ar
    58    54    52    1
    59    50    49    1
    60    50    51    2
    61    76    77   ar
    62    76    75    1
    63    49    52    1
    64    75    72    1
    65    52    53    1
    66    72    73    1
    67    72    71    1
    68    70    68    1
    69    68    69    1
    70    68    67    1
    71    73    74    2
    72    71    65   am
    73    66    65    2
    74    65    64    1
    75    67    64    1
    76    64    63    1
