@<TRIPOS>MOLECULE
tmp/3dt7A00.pdb
 234 233 0 0 0
SMALL
GASTEIGER

@<TRIPOS>ATOM
      1  N         32.7750    3.7630    2.8760 N.3   245  LYS245     -0.1231
      2  CA        31.6990    3.0870    3.6370 C.3   245  LYS245      0.1693
      3  C         31.1660    1.8830    2.8500 C.2   245  LYS245      0.2591
      4  O         31.6810    0.7600    3.0300 O.2   245  LYS245     -0.2718
      5  CB        30.6410    4.1370    3.9550 C.3   245  LYS245      0.0285
      6  CG        29.4270    3.5900    4.7500 C.3   245  LYS245      0.0035
      7  CD        28.5050    4.7780    5.1340 C.3   245  LYS245      0.0206
      8  CE        27.2670    4.2970    5.9340 C.3   245  LYS245      0.1093
      9  NZ        27.7150    3.7120    7.2710 N.3   245  LYS245     -0.1314
     10  N         30.1690    2.0750    1.9710 N.am  246  LYS246     -0.1980
     11  CA        29.6250    0.9380    1.2530 C.3   246  LYS246      0.1596
     12  C         30.5520    0.4650    0.1560 C.2   246  LYS246      0.2287
     13  O         30.7370   -0.7570   -0.0200 O.2   246  LYS246     -0.2864
     14  CB        28.2530    1.2670    0.6260 C.3   246  LYS246      0.0298
     15  CG        27.2170    1.8260    1.6640 C.3   246  LYS246      0.0038
     16  CD        26.9370    0.8230    2.7720 C.3   246  LYS246      0.0206
     17  CE        25.6530    1.2460    3.5260 C.3   246  LYS246      0.1093
     18  NZ        25.4400    0.2500    4.7190 N.3   246  LYS246     -0.1314
     19  N         27.2530   -6.2140    6.4240 N.3   266  HIS266     -0.1241
     20  CA        26.3450   -5.1100    6.7220 C.3   266  HIS266      0.1621
     21  C         25.7250   -5.3840    8.1010 C.2   266  HIS266      0.2264
     22  O         24.5410   -5.6620    8.1990 O.2   266  HIS266     -0.2867
     23  CB        25.2530   -5.0300    5.6190 C.3   266  HIS266      0.0745
     24  CG        24.4070   -3.7880    5.6960 C.ar  266  HIS266      0.0817
     25  ND1       23.1700   -3.7380    5.0900 N.ar  266  HIS266     -0.2268
     26  CD2       24.6180   -2.5540    6.2440 C.ar  266  HIS266      0.1154
     27  CE1       22.6450   -2.5360    5.2930 C.ar  266  HIS266      0.1986
     28  NE2       23.5210   -1.7830    5.9390 N.ar  266  HIS266     -0.2212
     29  N         18.5050   -5.2070    6.8160 N.3   287  PRO287     -0.2102
     30  CA        18.6490   -4.3560    5.6750 C.3   287  PRO287      0.1504
     31  C         18.6520   -2.8670    5.9590 C.2   287  PRO287      0.2576
     32  O         18.3280   -2.4030    7.0680 O.2   287  PRO287     -0.2718
     33  CB        17.4380   -4.7320    4.7800 C.3   287  PRO287      0.0282
     34  CG        17.0790   -6.1230    5.2390 C.3   287  PRO287      0.0208
     35  CD        17.3200   -6.0740    6.7400 C.3   287  PRO287      0.0893
     36  N         19.0310   -2.0940    4.9580 N.am  288  SER288     -0.1938
     37  CA        19.0260   -0.6710    5.1060 C.3   288  SER288      0.2055
     38  C         17.6690   -0.2020    5.6210 C.2   288  SER288      0.2643
     39  O         16.5750   -0.6730    5.2130 O.2   288  SER288     -0.2714
     40  CB        19.3940   -0.0530    3.7260 C.3   288  SER288      0.2130
     41  OG        20.5620   -0.7550    3.1910 O.3   288  SER288     -0.2179
     42  N         17.7630    0.7490    6.5680 N.am  289  ALA289     -0.1963
     43  CA        16.6270    1.2760    7.2920 C.3   289  ALA289      0.1728
     44  C         15.7130    0.2350    7.9770 C.2   289  ALA289      0.2616
     45  O         14.5010    0.4250    8.0660 O.2   289  ALA289     -0.2715
     46  CB        15.8190    2.2450    6.3890 C.3   289  ALA289      0.0334
     47  N         16.3390   -0.8290    8.5090 N.am  290  CYS290     -0.1954
     48  CA        15.5380   -1.8840    9.1790 C.3   290  CYS290      0.1843
     49  C         15.9580   -2.1140   10.6390 C.2   290  CYS290      0.2626
     50  O         15.5680   -3.1280   11.2340 O.2   290  CYS290     -0.2714
     51  CB        15.5830   -3.2220    8.3810 C.3   290  CYS290      0.0997
     52  SG        14.6300   -3.0190    6.8290 S.3   290  CYS290     -0.0797
     53  N         16.6620   -1.1400   11.2390 N.am  291  GLY291     -0.1940
     54  CA        16.8400   -1.1650   12.7080 C.3   291  GLY291      0.2014
     55  C         18.2150   -1.3350   13.3250 C.2   291  GLY291      0.2639
     56  O         18.2960   -1.4160   14.5500 O.2   291  GLY291     -0.2714
     57  N         19.2630   -1.4630   12.4940 N.am  292  LYS292     -0.1963
     58  CA        20.5820   -1.6970   13.1140 C.3   292  LYS292      0.1728
     59  C         20.9760   -0.6170   14.1080 C.2   292  LYS292      0.2617
     60  O         21.4410   -0.9140   15.2260 O.2   292  LYS292     -0.2715
     61  CB        21.6890   -1.8370   12.0190 C.3   292  LYS292      0.0311
     62  CG        21.5230   -3.1110   11.1670 C.3   292  LYS292      0.0038
     63  CD        22.6980   -3.2640   10.2070 C.3   292  LYS292      0.0206
     64  CE        22.7160   -2.1050    9.2050 C.3   292  LYS292      0.1093
     65  NZ        21.4420   -1.8800    8.3750 N.3   292  LYS292     -0.1314
     66  N         21.0010    0.6290   13.6460 N.am  293  THR293     -0.1937
     67  CA        21.4280    1.7240   14.5280 C.3   293  THR293      0.2028
     68  C         20.6000    1.7810   15.8110 C.2   293  THR293      0.2642
     69  O         21.1600    1.9910   16.8720 O.2   293  THR293     -0.2714
     70  CB        21.3610    3.0840   13.7600 C.3   293  THR293      0.1808
     71  OG1       22.2650    2.9880   12.6300 O.3   293  THR293     -0.2208
     72  CG2       21.7460    4.2350   14.6950 C.3   293  THR293      0.0379
     73  N         19.3080    1.5350   15.7070 N.am  294  ASN294     -0.1971
     74  CA        18.4870    1.5670   16.9210 C.3   294  ASN294      0.1688
     75  C         18.7140    0.4000   17.8560 C.2   294  ASN294      0.2292
     76  O         18.5310    0.5330   19.0810 O.2   294  ASN294     -0.2864
     77  CB        17.0420    1.6790   16.5850 C.3   294  ASN294      0.1181
     78  CG        16.6990    3.0980   16.2620 C.2   294  ASN294      0.2629
     79  OD1       16.2330    3.8390   17.1420 O.2   294  ASN294     -0.2716
     80  ND2       16.9960    3.5170   15.0360 N.am  294  ASN294     -0.0877
     81  N         27.5740    0.4650   14.1410 N.3   312  ASP312     -0.1225
     82  CA        26.1660    0.3360   13.8140 C.3   312  ASP312      0.1805
     83  C         25.8530   -0.1600   12.3860 C.2   312  ASP312      0.2597
     84  O         24.6630   -0.2820   12.0500 O.2   312  ASP312     -0.2718
     85  CB        25.3980    1.5990   14.0820 C.3   312  ASP312      0.1424
     86  CG        25.6380    2.6920   13.0150 C.2   312  ASP312      0.3668
     87  OD1       26.7370    2.6360   12.4100 O.co2 312  ASP312     -0.2456
     88  OD2       24.7840    3.6020   12.9240 O.co2 312  ASP312     -0.2456
     89  N         26.8670   -0.3900   11.5460 N.am  313  ASP313     -0.1974
     90  CA        26.4980   -0.5570   10.1000 C.3   313  ASP313      0.1709
     91  C         27.3860   -1.5490    9.3650 C.2   313  ASP313      0.2293
     92  O         26.8690   -2.2590    8.5060 O.2   313  ASP313     -0.2864
     93  CB        26.5860    0.8260    9.3870 C.3   313  ASP313      0.1436
     94  CG        25.9210    0.8150    7.9930 C.2   313  ASP313      0.3671
     95  OD1       24.7320    0.5780    7.8400 O.co2 313  ASP313     -0.2456
     96  OD2       26.6990    1.0750    7.0130 O.co2 313  ASP313     -0.2456
     97  N         26.2010    7.1410   10.3960 N.3   335  PHE335     -0.1241
     98  CA        25.4770    7.8980    9.3900 C.3   335  PHE335      0.1605
     99  C         24.0460    7.4170    9.4070 C.2   335  PHE335      0.2264
    100  O         23.6210    6.5760    8.5710 O.2   335  PHE335     -0.2867
    101  CB        26.1230    7.6480    7.9930 C.3   335  PHE335      0.0534
    102  CG        25.5100    8.4290    6.8680 C.ar  335  PHE335     -0.0203
    103  CD1       25.5100    9.8060    6.8940 C.ar  335  PHE335     -0.0042
    104  CD2       24.9820    7.7730    5.7380 C.ar  335  PHE335     -0.0042
    105  CE1       25.0180   10.5360    5.8610 C.ar  335  PHE335     -0.0003
    106  CE2       24.4210    8.5170    4.6790 C.ar  335  PHE335     -0.0003
    107  CZ        24.5120    9.9420    4.7430 C.ar  335  PHE335     -0.0000
    108  N         19.7760    7.1340    9.9530 N.3   337  VAL337     -0.1245
    109  CA        18.4760    7.6480    9.5270 C.3   337  VAL337      0.1561
    110  C         17.8990    8.5600   10.6500 C.2   337  VAL337      0.2260
    111  O         17.8170    8.1430   11.8110 O.2   337  VAL337     -0.2867
    112  CB        17.5240    6.4400    9.2880 C.3   337  VAL337      0.0252
    113  CG1       16.0830    6.9000    8.9560 C.3   337  VAL337      0.0019
    114  CG2       18.0810    5.6210    8.1140 C.3   337  VAL337      0.0019
    115  N         14.6270   10.3830   10.6990 N.3   339  PRO339     -0.2102
    116  CA        13.1990   10.2550   11.0960 C.3   339  PRO339      0.1504
    117  C         12.9620    9.0720   12.0090 C.2   339  PRO339      0.2576
    118  O         13.5650    8.0110   11.8350 O.2   339  PRO339     -0.2718
    119  CB        12.4910   10.0630    9.7450 C.3   339  PRO339      0.0282
    120  CG        13.3280   10.8750    8.7970 C.3   339  PRO339      0.0208
    121  CD        14.7480   10.4680    9.2310 C.3   339  PRO339      0.0893
    122  N         12.1110    9.2350   13.0210 N.am  340  GLY340     -0.1943
    123  CA        11.8660    8.1590   13.9630 C.3   340  GLY340      0.2014
    124  C         12.7360    8.2650   15.1870 C.2   340  GLY340      0.2639
    125  O         12.4000    7.7210   16.2400 O.2   340  GLY340     -0.2714
    126  N         13.8160    9.0350   15.0820 N.am  341  THR341     -0.1950
    127  CA        14.7370    9.1680   16.2270 C.3   341  THR341      0.1897
    128  C         14.1680   10.1020   17.2970 C.2   341  THR341      0.2313
    129  O         13.8300   11.2390   16.9800 O.2   341  THR341     -0.2863
    130  CB        16.1100    9.6910   15.7800 C.3   341  THR341      0.1794
    131  OG1       16.6330    8.7890   14.8030 O.3   341  THR341     -0.2208
    132  CG2       17.0800    9.7510   16.9860 C.3   341  THR341      0.0378
    133  N         19.4440   12.1030    7.1450 N.3   407  ARG407     -0.1245
    134  CA        20.4260   11.4470    7.9550 C.3   407  ARG407      0.1563
    135  C         21.1640   12.4170    8.8680 C.2   407  ARG407      0.2260
    136  O         21.2770   13.6250    8.5940 O.2   407  ARG407     -0.2867
    137  CB        21.5190   10.8510    7.0390 C.3   407  ARG407      0.0307
    138  CG        21.0590    9.8440    5.9930 C.3   407  ARG407      0.0489
    139  CD        21.2810    8.4300    6.5340 C.3   407  ARG407      0.2205
    140  NE        20.5740    7.3800    5.7370 N.pl3 407  ARG407     -0.0865
    141  CZ        20.6550    6.0810    6.0280 C.cat 407  ARG407      0.5346
    142  NH1       21.4800    5.6440    7.0360 N.pl3 407  ARG407      0.1354
    143  NH2       19.9400    5.2160    5.3190 N.pl3 407  ARG407      0.1354
    144  N         11.9280   -6.4020    7.6690 N.3   438  ARG438     -0.1245
    145  CA        10.5820   -5.9430    7.8640 C.3   438  ARG438      0.1563
    146  C          9.6490   -6.9710    7.2520 C.2   438  ARG438      0.2260
    147  O          9.4900   -7.0520    6.0100 O.2   438  ARG438     -0.2867
    148  CB        10.3570   -4.5650    7.2060 C.3   438  ARG438      0.0307
    149  CG        11.1110   -3.4150    7.9250 C.3   438  ARG438      0.0489
    150  CD        11.0500   -2.1190    7.1080 C.3   438  ARG438      0.2205
    151  NE        11.7830   -1.0760    7.8420 N.pl3 438  ARG438     -0.0865
    152  CZ        11.2260   -0.2970    8.7770 C.cat 438  ARG438      0.5346
    153  NH1       11.9400    0.6350    9.4410 N.pl3 438  ARG438      0.1354
    154  NH2        9.9330   -0.4230    9.0140 N.pl3 438  ARG438      0.1354
    155  N         10.8670   -7.4420   14.0690 N.3   518  TRP518     -0.1227
    156  CA        10.2730   -6.4400   14.9340 C.3   518  TRP518      0.1737
    157  C          9.0000   -5.8930   14.3430 C.2   518  TRP518      0.2595
    158  O          8.3440   -5.0560   14.9780 O.2   518  TRP518     -0.2718
    159  CB        11.1550   -5.2480   15.0710 C.3   518  TRP518      0.0564
    160  CG        12.5910   -5.4450   15.5200 C.ar  518  TRP518      0.0003
    161  CD1       13.6180   -4.6350   15.1650 C.ar  518  TRP518      0.0946
    162  CD2       13.1410   -6.4480   16.4070 C.ar  518  TRP518      0.0152
    163  NE1       14.7650   -5.0250   15.7590 N.ar  518  TRP518     -0.2442
    164  CE2       14.5440   -6.1450   16.5340 C.ar  518  TRP518      0.0810
    165  CE3       12.6030   -7.5250   17.1390 C.ar  518  TRP518      0.0012
    166  CZ2       15.4340   -6.8610   17.3580 C.ar  518  TRP518      0.0191
    167  CZ3       13.5380   -8.2720   17.9880 C.ar  518  TRP518      0.0001
    168  CH2       14.9280   -7.9290   18.0630 C.ar  518  TRP518      0.0015
    169  N          8.6880   -6.3030   13.1130 N.am  519  PHE519     -0.1976
    170  CA         7.7460   -5.5090   12.2940 C.3   519  PHE519      0.1639
    171  C          6.4880   -6.2700   11.9150 C.2   519  PHE519      0.2290
    172  O          5.7470   -5.8910   10.9710 O.2   519  PHE519     -0.2864
    173  CB         8.5070   -5.0400   11.0410 C.3   519  PHE519      0.0560
    174  CG         9.7480   -4.2250   11.3690 C.ar  519  PHE519     -0.0200
    175  CD1        9.6290   -2.8570   11.6040 C.ar  519  PHE519     -0.0042
    176  CD2       10.9870   -4.7810   11.3250 C.ar  519  PHE519     -0.0042
    177  CE1       10.7240   -2.0730   11.9340 C.ar  519  PHE519     -0.0003
    178  CE2       12.1290   -4.0060   11.6260 C.ar  519  PHE519     -0.0003
    179  CZ        11.9890   -2.6310   11.9170 C.ar  519  PHE519     -0.0000
    180  N          1.7280   -2.4560   14.7440 N.3   527  PHE527     -0.1241
    181  CA         2.8110   -3.3660   15.1660 C.3   527  PHE527      0.1605
    182  C          2.3800   -4.2300   16.3430 C.2   527  PHE527      0.2264
    183  O          1.7430   -3.7420   17.3120 O.2   527  PHE527     -0.2867
    184  CB         4.0490   -2.5400   15.5040 C.3   527  PHE527      0.0534
    185  CG         4.7170   -1.9380   14.3120 C.ar  527  PHE527     -0.0203
    186  CD1        4.9490   -0.5630   14.2270 C.ar  527  PHE527     -0.0042
    187  CD2        5.1910   -2.7700   13.2800 C.ar  527  PHE527     -0.0042
    188  CE1        5.6660   -0.0130   13.0990 C.ar  527  PHE527     -0.0003
    189  CE2        5.8500   -2.2230   12.1770 C.ar  527  PHE527     -0.0003
    190  CZ         6.0830   -0.8400   12.0950 C.ar  527  PHE527     -0.0000
    191  N          4.5710   -5.7570   18.1860 N.3   529  TRP529     -0.1228
    192  CA         5.6730   -5.6680   19.1640 C.3   529  TRP529      0.1722
    193  C          6.1410   -4.2250   19.2620 C.2   529  TRP529      0.2437
    194  O          6.3800   -3.5920   18.2670 O.2   529  TRP529     -0.2733
    195  CB         6.8100   -6.6030   18.6550 C.3   529  TRP529      0.0563
    196  CG         8.0050   -6.6730   19.6000 C.ar  529  TRP529      0.0003
    197  CD1        9.2450   -6.1800   19.3820 C.ar  529  TRP529      0.0946
    198  CD2        8.0270   -7.3080   20.8770 C.ar  529  TRP529      0.0152
    199  NE1       10.0530   -6.4160   20.4970 N.ar  529  TRP529     -0.2442
    200  CE2        9.3250   -7.1390   21.4000 C.ar  529  TRP529      0.0810
    201  CE3        7.0730   -7.9930   21.6360 C.ar  529  TRP529      0.0012
    202  CZ2        9.6920   -7.6440   22.6540 C.ar  529  TRP529      0.0191
    203  CZ3        7.4430   -8.5080   22.8800 C.ar  529  TRP529      0.0001
    204  CH2        8.7490   -8.2960   23.3770 C.ar  529  TRP529      0.0015
    205  N          6.3610   -3.7040   20.4810 N.am  530  PRO530     -0.2718
    206  CA         6.7450   -2.2840   20.5420 C.3   530  PRO530      0.1535
    207  C          8.1460   -1.9580   20.0730 C.2   530  PRO530      0.2599
    208  O          8.4130   -0.8130   19.6840 O.2   530  PRO530     -0.2715
    209  CB         6.5170   -1.9390   22.0480 C.3   530  PRO530      0.0310
    210  CG         6.6330   -3.2480   22.7390 C.3   530  PRO530      0.0237
    211  CD         6.0460   -4.2740   21.7990 C.3   530  PRO530      0.0939
    212  N          9.0580   -2.9530   20.0580 N.am  531  GLY531     -0.1941
    213  CA        10.4210   -2.7390   19.5950 C.3   531  GLY531      0.2014
    214  C         11.2760   -1.7800   20.4230 C.2   531  GLY531      0.2638
    215  O         10.9730   -1.5130   21.6380 O.2   531  GLY531     -0.2714
    216  N         12.2640   -1.1960   19.7520 N.am  532  PHE532     -0.1973
    217  CA        13.2450   -0.3130   20.3810 C.3   532  PHE532      0.1639
    218  C         13.7790   -0.9310   21.6770 C.2   532  PHE532      0.2290
    219  O         14.1820   -2.1080   21.6410 O.2   532  PHE532     -0.2864
    220  CB        12.6760    1.1160   20.5310 C.3   532  PHE532      0.0560
    221  CG        12.2080    1.6420   19.2090 C.ar  532  PHE532     -0.0200
    222  CD1       13.1440    2.1540   18.2940 C.ar  532  PHE532     -0.0042
    223  CD2       10.8800    1.5230   18.8530 C.ar  532  PHE532     -0.0042
    224  CE1       12.7240    2.6460   17.0570 C.ar  532  PHE532     -0.0003
    225  CE2       10.4480    1.9970   17.6010 C.ar  532  PHE532     -0.0003
    226  CZ        11.3700    2.5260   16.7190 C.ar  532  PHE532     -0.0000
    227  N         13.2600   -4.4880   22.7120 N.3   535  ASN535     -0.1240
    228  CA        13.9450   -5.6170   22.0340 C.3   535  ASN535      0.1653
    229  C         14.9530   -6.2340   23.0120 C.2   535  ASN535      0.2266
    230  O         15.3970   -7.3340   22.7720 O.2   535  ASN535     -0.2867
    231  CB        14.5850   -5.1700   20.7410 C.3   535  ASN535      0.1155
    232  CG        13.5210   -4.8190   19.6700 C.2   535  ASN535      0.2627
    233  OD1       12.4280   -5.3550   19.6830 O.2   535  ASN535     -0.2716
    234  ND2       13.8970   -3.9440   18.7300 N.am  535  ASN535     -0.0877
@<TRIPOS>BOND
     1    13    12    2
     2    12    11    1
     3    14    11    1
     4    14    15    1
     5    11    10    1
     6    15    16    1
     7    10     3   am
     8    16    17    1
     9     3     4    2
    10     3     2    1
    11     1     2    1
    12    41    40    1
    13    17    18    1
    14     2     5    1
    15    40    37    1
    16     5     6    1
    17   106   107   ar
    18   106   104   ar
    19   107   105   ar
    20     6     7    1
    21    33    34    1
    22    33    30    1
    23    36    37    1
    24    36    31   am
    25    25    27   ar
    26    25    24   ar
    27    37    38    1
    28     7     8    1
    29    39    38    2
    30    34    35    1
    31    27    28   ar
    32   143   141    1
    33    23    24    1
    34    23    20    1
    35    38    42   am
    36    30    31    1
    37    30    29    1
    38    24    26   ar
    39   140   141    2
    40   140   139    1
    41   104   102   ar
    42   105   103   ar
    43     8     9    1
    44    28    26   ar
    45    31    32    2
    46   138   139    1
    47   138   137    1
    48   147   146    2
    49   141   142    1
    50    46    43    1
    51    19    20    1
    52    42    43    1
    53    20    21    1
    54    35    29    1
    55    52    51    1
    56   102   103   ar
    57   102   101    1
    58    96    94   ar
    59   137   134    1
    60   150   151    1
    61   150   149    1
    62   133   134    1
    63   148   145    1
    64   148   149    1
    65   146   145    1
    66    43    44    1
    67   144   145    1
    68    95    94   ar
    69   151   152    2
    70   134   135    1
    71    44    45    2
    72    44    47   am
    73    94    93    1
    74   101    98    1
    75    21    22    2
    76   114   112    1
    77    65    64    1
    78    51    48    1
    79    92    91    2
    80    47    48    1
    81   100    99    2
    82   136   135    2
    83   152   154    1
    84   152   153    1
    85   120   121    1
    86   120   119    1
    87   113   112    1
    88    48    49    1
    89    64    63    1
    90   121   115    1
    91   112   109    1
    92    91    90    1
    93    93    90    1
    94    98    99    1
    95    98    97    1
    96   109   108    1
    97   109   110    1
    98   119   116    1
    99    90    89    1
   100    63    62    1
   101    49    50    2
   102    49    53   am
   103   110   111    2
   104   115   116    1
   105   172   171    2
   106   173   174    1
   107   173   170    1
   108   116   117    1
   109    62    61    1
   110    53    54    1
   111   176   174   ar
   112   176   178   ar
   113   174   175   ar
   114    89    83   am
   115   175   177   ar
   116   178   179   ar
   117   118   117    2
   118   171   170    1
   119   179   177   ar
   120   117   122   am
   121    61    58    1
   122    84    83    2
   123   190   189   ar
   124   190   188   ar
   125   189   187   ar
   126   170   169    1
   127    83    82    1
   128    87    86   ar
   129    57    58    1
   130    57    55   am
   131    71    70    1
   132    54    55    1
   133    88    86   ar
   134    86    85    1
   135   122   123    1
   136   188   186   ar
   137   169   157   am
   138    58    59    1
   139   187   185   ar
   140    55    56    2
   141    66    59   am
   142    66    67    1
   143    70    67    1
   144    70    72    1
   145    82    85    1
   146    82    81    1
   147   123   124    1
   148   155   156    1
   149    59    60    2
   150   186   185   ar
   151   185   184    1
   152   157   156    1
   153   157   158    2
   154    67    68    1
   155   180   181    1
   156   131   130    1
   157   156   159    1
   158    80    78   am
   159   159   160    1
   160   126   124   am
   161   126   127    1
   162   161   160   ar
   163   161   163   ar
   164   181   184    1
   165   181   182    1
   166   124   125    2
   167   160   162   ar
   168    73    68   am
   169    73    74    1
   170   163   164   ar
   171   130   127    1
   172   130   132    1
   173    68    69    2
   174   127   128    1
   175    78    77    1
   176    78    79    2
   177   182   183    2
   178   162   164   ar
   179   162   165   ar
   180   164   166   ar
   181    77    74    1
   182   226   224   ar
   183   226   225   ar
   184    74    75    1
   185   129   128    2
   186   224   222   ar
   187   165   167   ar
   188   166   168   ar
   189   225   223   ar
   190    75    76    2
   191   167   168   ar
   192   191   192    1
   193   194   193    2
   194   222   221   ar
   195   195   192    1
   196   195   196    1
   197   234   232   am
   198   223   221   ar
   199   192   193    1
   200   221   220    1
   201   193   205   am
   202   197   196   ar
   203   197   199   ar
   204   213   212    1
   205   213   214    1
   206   196   198   ar
   207   232   233    2
   208   232   231    1
   209   208   207    2
   210   216   217    1
   211   216   214   am
   212   212   207   am
   213   207   206    1
   214   217   220    1
   215   217   218    1
   216   214   215    2
   217   205   206    1
   218   205   211    1
   219   199   200   ar
   220   206   209    1
   221   231   228    1
   222   198   200   ar
   223   198   201   ar
   224   200   202   ar
   225   201   203   ar
   226   219   218    2
   227   211   210    1
   228   228   227    1
   229   228   229    1
   230   209   210    1
   231   202   204   ar
   232   230   229    2
   233   203   204   ar
