@<TRIPOS>MOLECULE
tmp/3dt7A01.pdb
 128 120 0 0 0
SMALL
GASTEIGER

@<TRIPOS>ATOM
      1  N         21.1270    6.2560   -1.9810 N.3    89  ARG89      -0.1245
      2  CA        21.7510    5.3320   -2.9590 C.3    89  ARG89       0.1563
      3  C         20.8870    5.0380   -4.1350 C.2    89  ARG89       0.2260
      4  O         19.6550    5.0150   -4.0410 O.2    89  ARG89      -0.2867
      5  CB        22.1350    3.9660   -2.3330 C.3    89  ARG89       0.0307
      6  CG        23.4020    4.0590   -1.4820 C.3    89  ARG89       0.0489
      7  CD        23.7680    2.6710   -0.9200 C.3    89  ARG89       0.2205
      8  NE        22.7400    2.1540   -0.0190 N.pl3  89  ARG89      -0.0865
      9  CZ        21.7840    1.2850   -0.3820 C.cat  89  ARG89       0.5346
     10  NH1       21.7380    0.7580   -1.6420 N.pl3  89  ARG89       0.1354
     11  NH2       20.8900    0.9150    0.5290 N.pl3  89  ARG89       0.1354
     12  N         25.5730   12.1740   -2.4200 N.3   237  TYR237     -0.1227
     13  CA        24.9110   11.6520   -1.2460 C.3   237  TYR237      0.1736
     14  C         25.4980   10.3730   -0.6620 C.2   237  TYR237      0.2596
     15  O         25.7570    9.4100   -1.4050 O.2   237  TYR237     -0.2718
     16  CB        23.4580   11.3320   -1.6230 C.3   237  TYR237      0.0548
     17  CG        22.5520   11.3140   -0.4230 C.ar  237  TYR237     -0.0200
     18  CD1       21.9300   12.4860   -0.0100 C.ar  237  TYR237     -0.0009
     19  CD2       22.3980   10.1710    0.3350 C.ar  237  TYR237     -0.0009
     20  CE1       21.1180   12.5290    1.0990 C.ar  237  TYR237      0.0417
     21  CE2       21.5760   10.1940    1.5020 C.ar  237  TYR237      0.0417
     22  CZ        20.9540   11.3870    1.8560 C.ar  237  TYR237      0.1957
     23  OH        20.1180   11.4890    2.9720 O.3   237  TYR237     -0.2866
     24  N         25.6790   10.3730    0.6510 N.am  238  GLY238     -0.1942
     25  CA        25.8770    9.1720    1.4490 C.3   238  GLY238      0.2014
     26  C         26.6570    8.0660    0.7940 C.2   238  GLY238      0.2639
     27  O         27.8330    8.2510    0.5040 O.2   238  GLY238     -0.2714
     28  N         26.0490    6.8900    0.6870 N.am  239  GLY239     -0.1954
     29  CA        26.7620    5.7420    0.1760 C.3   239  GLY239      0.1869
     30  C         27.2500    5.8910   -1.2490 C.2   239  GLY239      0.2309
     31  O         28.0630    5.0870   -1.6800 O.2   239  GLY239     -0.2863
     32  N         32.7750    3.7630    2.8760 N.3   245  LYS245     -0.1231
     33  CA        31.6990    3.0870    3.6370 C.3   245  LYS245      0.1693
     34  C         31.1660    1.8830    2.8500 C.2   245  LYS245      0.2591
     35  O         31.6810    0.7600    3.0300 O.2   245  LYS245     -0.2718
     36  CB        30.6410    4.1370    3.9550 C.3   245  LYS245      0.0285
     37  CG        29.4270    3.5900    4.7500 C.3   245  LYS245      0.0035
     38  CD        28.5050    4.7780    5.1340 C.3   245  LYS245      0.0206
     39  CE        27.2670    4.2970    5.9340 C.3   245  LYS245      0.1093
     40  NZ        27.7150    3.7120    7.2710 N.3   245  LYS245     -0.1314
     41  N         30.1690    2.0750    1.9710 N.am  246  LYS246     -0.1980
     42  CA        29.6250    0.9380    1.2530 C.3   246  LYS246      0.1596
     43  C         30.5520    0.4650    0.1560 C.2   246  LYS246      0.2287
     44  O         30.7370   -0.7570   -0.0200 O.2   246  LYS246     -0.2864
     45  CB        28.2530    1.2670    0.6260 C.3   246  LYS246      0.0298
     46  CG        27.2170    1.8260    1.6640 C.3   246  LYS246      0.0038
     47  CD        26.9370    0.8230    2.7720 C.3   246  LYS246      0.0206
     48  CE        25.6530    1.2460    3.5260 C.3   246  LYS246      0.1093
     49  NZ        25.4400    0.2500    4.7190 N.3   246  LYS246     -0.1314
     50  N         27.2530   -6.2140    6.4240 N.3   266  HIS266     -0.1241
     51  CA        26.3450   -5.1100    6.7220 C.3   266  HIS266      0.1621
     52  C         25.7250   -5.3840    8.1010 C.2   266  HIS266      0.2264
     53  O         24.5410   -5.6620    8.1990 O.2   266  HIS266     -0.2867
     54  CB        25.2530   -5.0300    5.6190 C.3   266  HIS266      0.0745
     55  CG        24.4070   -3.7880    5.6960 C.ar  266  HIS266      0.0817
     56  ND1       23.1700   -3.7380    5.0900 N.ar  266  HIS266     -0.2268
     57  CD2       24.6180   -2.5540    6.2440 C.ar  266  HIS266      0.1154
     58  CE1       22.6450   -2.5360    5.2930 C.ar  266  HIS266      0.1986
     59  NE2       23.5210   -1.7830    5.9390 N.ar  266  HIS266     -0.2212
     60  N         19.0310   -2.0940    4.9580 N.3   288  SER288     -0.1217
     61  CA        19.0260   -0.6710    5.1060 C.3   288  SER288      0.1889
     62  C         17.6690   -0.2020    5.6210 C.2   288  SER288      0.2288
     63  O         16.5750   -0.6730    5.2130 O.2   288  SER288     -0.2866
     64  CB        19.3940   -0.0530    3.7260 C.3   288  SER288      0.2089
     65  OG        20.5620   -0.7550    3.1910 O.3   288  SER288     -0.2183
     66  N         19.2630   -1.4630   12.4940 N.3   292  LYS292     -0.1245
     67  CA        20.5820   -1.6970   13.1140 C.3   292  LYS292      0.1561
     68  C         20.9760   -0.6170   14.1080 C.2   292  LYS292      0.2260
     69  O         21.4410   -0.9140   15.2260 O.2   292  LYS292     -0.2867
     70  CB        21.6890   -1.8370   12.0190 C.3   292  LYS292      0.0271
     71  CG        21.5230   -3.1110   11.1670 C.3   292  LYS292      0.0035
     72  CD        22.6980   -3.2640   10.2070 C.3   292  LYS292      0.0206
     73  CE        22.7160   -2.1050    9.2050 C.3   292  LYS292      0.1093
     74  NZ        21.4420   -1.8800    8.3750 N.3   292  LYS292     -0.1314
     75  N         26.8670   -0.3900   11.5460 N.3   313  ASP313     -0.1239
     76  CA        26.4980   -0.5570   10.1000 C.3   313  ASP313      0.1674
     77  C         27.3860   -1.5490    9.3650 C.2   313  ASP313      0.2266
     78  O         26.8690   -2.2590    8.5060 O.2   313  ASP313     -0.2867
     79  CB        26.5860    0.8260    9.3870 C.3   313  ASP313      0.1410
     80  CG        25.9210    0.8150    7.9930 C.2   313  ASP313      0.3668
     81  OD1       24.7320    0.5780    7.8400 O.co2 313  ASP313     -0.2456
     82  OD2       26.6990    1.0750    7.0130 O.co2 313  ASP313     -0.2456
     83  N         26.2010    7.1410   10.3960 N.3   335  PHE335     -0.1241
     84  CA        25.4770    7.8980    9.3900 C.3   335  PHE335      0.1605
     85  C         24.0460    7.4170    9.4070 C.2   335  PHE335      0.2264
     86  O         23.6210    6.5760    8.5710 O.2   335  PHE335     -0.2867
     87  CB        26.1230    7.6480    7.9930 C.3   335  PHE335      0.0534
     88  CG        25.5100    8.4290    6.8680 C.ar  335  PHE335     -0.0203
     89  CD1       25.5100    9.8060    6.8940 C.ar  335  PHE335     -0.0042
     90  CD2       24.9820    7.7730    5.7380 C.ar  335  PHE335     -0.0042
     91  CE1       25.0180   10.5360    5.8610 C.ar  335  PHE335     -0.0003
     92  CE2       24.4210    8.5170    4.6790 C.ar  335  PHE335     -0.0003
     93  CZ        24.5120    9.9420    4.7430 C.ar  335  PHE335     -0.0000
     94  N         14.7310    9.5250    3.9390 N.3   405  ASN405     -0.1240
     95  CA        16.0960    9.0320    4.0720 C.3   405  ASN405      0.1653
     96  C         17.0810   10.1190    4.5790 C.2   405  ASN405      0.2266
     97  O         18.2910    9.9710    4.3850 O.2   405  ASN405     -0.2867
     98  CB        16.6150    8.4970    2.7100 C.3   405  ASN405      0.1155
     99  CG        17.8760    7.6370    2.8650 C.2   405  ASN405      0.2627
    100  OD1       17.9790    6.8060    3.7540 O.2   405  ASN405     -0.2716
    101  ND2       18.8610    7.8820    2.0040 N.am  405  ASN405     -0.0877
    102  N         19.4440   12.1030    7.1450 N.3   407  ARG407     -0.1245
    103  CA        20.4260   11.4470    7.9550 C.3   407  ARG407      0.1563
    104  C         21.1640   12.4170    8.8680 C.2   407  ARG407      0.2260
    105  O         21.2770   13.6250    8.5940 O.2   407  ARG407     -0.2867
    106  CB        21.5190   10.8510    7.0390 C.3   407  ARG407      0.0307
    107  CG        21.0590    9.8440    5.9930 C.3   407  ARG407      0.0489
    108  CD        21.2810    8.4300    6.5340 C.3   407  ARG407      0.2205
    109  NE        20.5740    7.3800    5.7370 N.pl3 407  ARG407     -0.0865
    110  CZ        20.6550    6.0810    6.0280 C.cat 407  ARG407      0.5346
    111  NH1       21.4800    5.6440    7.0360 N.pl3 407  ARG407      0.1354
    112  NH2       19.9400    5.2160    5.3190 N.pl3 407  ARG407      0.1354
    113  N         16.0380    3.8420    1.7660 N.3   469  ALA469     -0.1245
    114  CA        17.5080    3.9330    1.6850 C.3   469  ALA469      0.1562
    115  C         18.0560    3.9040    0.2570 C.2   469  ALA469      0.2260
    116  O         19.2200    4.2760    0.0220 O.2   469  ALA469     -0.2867
    117  CB        18.2230    2.8280    2.5310 C.3   469  ALA469      0.0290
    118  N         25.1700   -4.8490   -1.8240 N.3   487  PHE487     -0.1241
    119  CA        26.5420   -4.6340   -1.3740 C.3   487  PHE487      0.1605
    120  C         27.4840   -5.7970   -1.6880 C.2   487  PHE487      0.2264
    121  O         28.6710   -5.7310   -1.2990 O.2   487  PHE487     -0.2867
    122  CB        26.5890   -4.3570    0.1420 C.3   487  PHE487      0.0534
    123  CG        25.7070   -3.2250    0.5730 C.ar  487  PHE487     -0.0203
    124  CD1       25.8720   -1.9630    0.0480 C.ar  487  PHE487     -0.0042
    125  CD2       24.7170   -3.4180    1.5020 C.ar  487  PHE487     -0.0042
    126  CE1       25.0670   -0.9030    0.4310 C.ar  487  PHE487     -0.0003
    127  CE2       23.8640   -2.3630    1.8630 C.ar  487  PHE487     -0.0003
    128  CZ        24.0010   -1.0740    1.3220 C.ar  487  PHE487     -0.0000
@<TRIPOS>BOND
     1     3     4    2
     2     3     2    1
     3     2     5    1
     4     2     1    1
     5    12    13    1
     6     5     6    1
     7   118   119    1
     8   120   119    1
     9   120   121    2
    10    31    30    2
    11    10     9    1
    12    16    13    1
    13    16    17    1
    14     6     7    1
    15    15    14    2
    16   119   122    1
    17    30    29    1
    18    13    14    1
    19     7     8    1
    20    14    24   am
    21    17    18   ar
    22    17    19   ar
    23     9     8    2
    24     9    11    1
    25    44    43    2
    26    18    20   ar
    27   116   115    2
    28   124   126   ar
    29   124   123   ar
    30   122   123    1
    31    43    42    1
    32    29    28    1
    33   115   114    1
    34    19    21   ar
    35   126   128   ar
    36    27    26    2
    37   123   125   ar
    38    45    42    1
    39    45    46    1
    40    24    25    1
    41    28    26   am
    42    26    25    1
    43    20    22   ar
    44    42    41    1
    45   128   127   ar
    46    21    22   ar
    47   125   127   ar
    48    46    47    1
    49   114   113    1
    50   114   117    1
    51    22    23    1
    52    41    34   am
    53   101    99   am
    54    98    99    1
    55    98    95    1
    56    47    48    1
    57    34    35    2
    58    34    33    1
    59    99   100    2
    60    32    33    1
    61    65    64    1
    62    48    49    1
    63    33    36    1
    64    64    61    1
    65    94    95    1
    66    36    37    1
    67    95    96    1
    68    97    96    2
    69    92    93   ar
    70    92    90   ar
    71    93    91   ar
    72    37    38    1
    73    60    61    1
    74    56    58   ar
    75    56    55   ar
    76    61    62    1
    77    38    39    1
    78    63    62    2
    79    58    59   ar
    80   112   110    1
    81    54    55    1
    82    54    51    1
    83    55    57   ar
    84   109   110    2
    85   109   108    1
    86    90    88   ar
    87    91    89   ar
    88    39    40    1
    89    59    57   ar
    90   107   108    1
    91   107   106    1
    92   110   111    1
    93    50    51    1
    94    51    52    1
    95    88    89   ar
    96    88    87    1
    97    82    80   ar
    98   106   103    1
    99   102   103    1
   100    81    80   ar
   101   103   104    1
   102    87    84    1
   103    80    79    1
   104    52    53    2
   105    74    73    1
   106    78    77    2
   107    86    85    2
   108   105   104    2
   109    73    72    1
   110    77    76    1
   111    79    76    1
   112    84    85    1
   113    84    83    1
   114    76    75    1
   115    72    71    1
   116    71    70    1
   117    70    67    1
   118    66    67    1
   119    67    68    1
   120    68    69    2
