@<TRIPOS>MOLECULE
tmp/3dt7A02.pdb
 105 102 0 0 0
SMALL
GASTEIGER

@<TRIPOS>ATOM
      1  N         45.0240   -3.8110   11.3150 N.3   155  LEU155     -0.1245
      2  CA        43.8720   -4.3890   10.5660 C.3   155  LEU155      0.1561
      3  C         43.0360   -3.2920    9.8910 C.2   155  LEU155      0.2260
      4  O         41.9700   -3.5530    9.3070 O.2   155  LEU155     -0.2867
      5  CB        42.9780   -5.3100   11.3980 C.3   155  LEU155      0.0270
      6  CG        42.9900   -5.3530   12.9330 C.3   155  LEU155      0.0019
      7  CD1       44.4050   -5.5290   13.5600 C.3   155  LEU155      0.0001
      8  CD2       42.2740   -4.1330   13.4960 C.3   155  LEU155      0.0001
      9  N         40.8850  -13.8360    1.2800 N.3   260  GLU260     -0.1245
     10  CA        41.8620  -13.8300    2.3820 C.3   260  GLU260      0.1567
     11  C         41.3890  -14.4730    3.6510 C.2   260  GLU260      0.2260
     12  O         42.1480  -14.5210    4.6430 O.2   260  GLU260     -0.2867
     13  CB        42.2680  -12.3610    2.6980 C.3   260  GLU260      0.0388
     14  CG        42.9740  -11.6660    1.5430 C.3   260  GLU260      0.1160
     15  CD        42.9360  -10.1540    1.6450 C.2   260  GLU260      0.3649
     16  OE1       42.5260   -9.6330    2.7140 O.co2 260  GLU260     -0.2457
     17  OE2       43.3750   -9.4650    0.6690 O.co2 260  GLU260     -0.2457
     18  N         38.3970  -13.8520    5.6410 N.3   262  TRP262     -0.1241
     19  CA        37.5920  -13.1180    6.6290 C.3   262  TRP262      0.1605
     20  C         36.2310  -12.6970    6.0530 C.2   262  TRP262      0.2264
     21  O         35.7970  -13.2420    5.0410 O.2   262  TRP262     -0.2867
     22  CB        38.3920  -11.8930    7.1500 C.3   262  TRP262      0.0550
     23  CG        39.0380  -10.9350    6.1210 C.ar  262  TRP262      0.0003
     24  CD1       40.1570  -11.1670    5.3620 C.ar  262  TRP262      0.0946
     25  CD2       38.6490   -9.5960    5.8310 C.ar  262  TRP262      0.0152
     26  NE1       40.4620  -10.0700    4.6010 N.ar  262  TRP262     -0.2442
     27  CE2       39.5410   -9.0870    4.8630 C.ar  262  TRP262      0.0810
     28  CE3       37.6020   -8.7760    6.2560 C.ar  262  TRP262      0.0012
     29  CZ2       39.4470   -7.7710    4.3590 C.ar  262  TRP262      0.0191
     30  CZ3       37.5050   -7.4770    5.7680 C.ar  262  TRP262      0.0001
     31  CH2       38.4300   -6.9820    4.8330 C.ar  262  TRP262      0.0015
     32  N         33.8260   -5.9760   10.1240 N.3   316  TRP316     -0.1227
     33  CA        34.8530   -6.8410    9.5190 C.3   316  TRP316      0.1737
     34  C         35.1980   -7.9040   10.5390 C.2   316  TRP316      0.2595
     35  O         35.5650   -7.5750   11.6970 O.2   316  TRP316     -0.2718
     36  CB        36.0930   -6.0120    9.1820 C.3   316  TRP316      0.0564
     37  CG        35.9260   -5.0510    8.0640 C.ar  316  TRP316      0.0003
     38  CD1       34.8340   -4.9120    7.1940 C.ar  316  TRP316      0.0946
     39  CD2       36.9220   -4.1280    7.5960 C.ar  316  TRP316      0.0152
     40  NE1       35.1270   -3.9560    6.2290 N.ar  316  TRP316     -0.2442
     41  CE2       36.3960   -3.4780    6.4660 C.ar  316  TRP316      0.0810
     42  CE3       38.2430   -3.8260    8.0140 C.ar  316  TRP316      0.0012
     43  CZ2       37.1370   -2.4910    5.7390 C.ar  316  TRP316      0.0191
     44  CZ3       38.9530   -2.8400    7.2890 C.ar  316  TRP316      0.0001
     45  CH2       38.4150   -2.2220    6.1860 C.ar  316  TRP316      0.0015
     46  N         35.1310   -9.1850   10.1410 N.am  317  MET317     -0.1965
     47  CA        35.2470  -10.2840   11.1220 C.3   317  MET317      0.1736
     48  C         36.1690  -11.3510   10.6090 C.2   317  MET317      0.2616
     49  O         36.2260  -11.5930    9.4220 O.2   317  MET317     -0.2715
     50  CB        33.8330  -10.8880   11.3820 C.3   317  MET317      0.0427
     51  CG        32.8130   -9.8090   11.6750 C.3   317  MET317      0.0599
     52  SD        31.2910  -10.5550   12.3530 S.3   317  MET317     -0.1393
     53  CE        30.5940  -11.4250   10.9200 C.3   317  MET317      0.0692
     54  N         36.8070  -12.0560   11.5240 N.am  318  LYS318     -0.1977
     55  CA        37.5430  -13.2700   11.1670 C.3   318  LYS318      0.1596
     56  C         37.7250  -14.2020   12.3540 C.2   318  LYS318      0.2287
     57  O         37.7820  -13.7520   13.5280 O.2   318  LYS318     -0.2864
     58  CB        38.8870  -12.9180   10.5670 C.3   318  LYS318      0.0298
     59  CG        39.9740  -12.6750   11.5180 C.3   318  LYS318      0.0038
     60  CD        41.2680  -12.6590   10.7330 C.3   318  LYS318      0.0206
     61  CE        42.3750  -12.1620   11.6260 C.3   318  LYS318      0.1093
     62  NZ        42.3590  -10.6820   11.8100 N.3   318  LYS318     -0.1314
     63  N         39.8920  -16.1540   14.8360 N.3   320  ASP320     -0.1239
     64  CA        41.3050  -16.0460   15.2100 C.3   320  ASP320      0.1674
     65  C         41.8780  -17.4540   15.4440 C.2   320  ASP320      0.2266
     66  O         41.1810  -18.4680   15.2710 O.2   320  ASP320     -0.2867
     67  CB        41.5390  -15.1320   16.4030 C.3   320  ASP320      0.1410
     68  CG        40.9200  -15.6540   17.6740 C.2   320  ASP320      0.3668
     69  OD1       40.4670  -16.8260   17.7260 O.co2 320  ASP320     -0.2456
     70  OD2       40.8760  -14.8750   18.6600 O.co2 320  ASP320     -0.2456
     71  N         36.2090  -12.8330   15.6600 N.3   326  ARG326     -0.1245
     72  CA        36.4750  -11.5120   16.2300 C.3   326  ARG326      0.1563
     73  C         36.0750  -10.4460   15.2140 C.2   326  ARG326      0.2260
     74  O         36.2750  -10.6020   13.9920 O.2   326  ARG326     -0.2867
     75  CB        37.9650  -11.3610   16.6300 C.3   326  ARG326      0.0307
     76  CG        38.4940  -12.3230   17.7930 C.3   326  ARG326      0.0489
     77  CD        39.3840  -11.5880   18.8780 C.3   326  ARG326      0.2205
     78  NE        39.1790  -12.1780   20.2130 N.pl3 326  ARG326     -0.0865
     79  CZ        38.8550  -11.4770   21.2780 C.cat 326  ARG326      0.5346
     80  NH1       38.7930  -10.1690   21.1790 N.pl3 326  ARG326      0.1354
     81  NH2       38.6860  -12.0720   22.4600 N.pl3 326  ARG326      0.1354
     82  N         35.5740   -6.1720   14.1360 N.3   328  ILE328     -0.1245
     83  CA        35.8980   -4.7330   14.3180 C.3   328  ILE328      0.1561
     84  C         34.9360   -3.9190   13.4960 C.2   328  ILE328      0.2260
     85  O         34.3600   -4.3580   12.4650 O.2   328  ILE328     -0.2867
     86  CB        37.3580   -4.3680   13.9580 C.3   328  ILE328      0.0252
     87  CG1       37.6180   -4.7580   12.5050 C.3   328  ILE328      0.0019
     88  CG2       38.3610   -5.0830   14.9200 C.3   328  ILE328      0.0019
     89  CD1       39.1510   -4.9410   12.1810 C.3   328  ILE328      0.0001
     90  N         42.4260   -3.2330   18.3000 N.3   425  PRO425     -0.2102
     91  CA        42.8140   -3.9800   17.0970 C.3   425  PRO425      0.1504
     92  C         42.5060   -5.4680   17.1860 C.2   425  PRO425      0.2575
     93  O         42.5510   -6.1970   16.1500 O.2   425  PRO425     -0.2718
     94  CB        44.3370   -3.7680   17.0250 C.3   425  PRO425      0.0282
     95  CG        44.7300   -3.4910   18.4230 C.3   425  PRO425      0.0208
     96  CD        43.5930   -2.8140   19.1030 C.3   425  PRO425      0.0893
     97  N         42.2190   -5.9530   18.3900 N.am  426  GLU426     -0.1980
     98  CA        41.9950   -7.3740   18.5390 C.3   426  GLU426      0.1602
     99  C         40.5490   -7.6510   18.1470 C.2   426  GLU426      0.2287
    100  O         40.2030   -8.8110   17.9560 O.2   426  GLU426     -0.2864
    101  CB        42.1840   -7.8620   19.9870 C.3   426  GLU426      0.0415
    102  CG        43.5070   -7.5040   20.7560 C.3   426  GLU426      0.1163
    103  CD        44.8020   -7.5440   19.9340 C.2   426  GLU426      0.3649
    104  OE1       45.6220   -6.6070   20.0850 O.co2 426  GLU426     -0.2457
    105  OE2       45.0210   -8.5110   19.1550 O.co2 426  GLU426     -0.2457
@<TRIPOS>BOND
     1    17    15   ar
     2     9    10    1
     3    14    15    1
     4    14    13    1
     5    15    16   ar
     6    10    13    1
     7    10    11    1
     8    11    12    2
     9    29    31   ar
    10    29    27   ar
    11    26    27   ar
    12    26    24   ar
    13    31    30   ar
    14    27    25   ar
    15    21    20    2
    16    24    23   ar
    17    18    19    1
    18    43    45   ar
    19    43    41   ar
    20    30    28   ar
    21    25    23   ar
    22    25    28   ar
    23    20    19    1
    24    23    22    1
    25    45    44   ar
    26    40    41   ar
    27    40    38   ar
    28    41    39   ar
    29    19    22    1
    30    38    37   ar
    31    44    42   ar
    32    39    42   ar
    33    39    37   ar
    34    37    36    1
    35    36    33    1
    36     4     3    2
    37    49    48    2
    38    33    32    1
    39    33    34    1
    40     3     2    1
    41    46    34   am
    42    46    47    1
    43    34    35    2
    44     2     1    1
    45     2     5    1
    46    58    55    1
    47    58    59    1
    48    48    47    1
    49    48    54   am
    50    60    59    1
    51    60    61    1
    52    53    52    1
    53    47    50    1
    54    55    54    1
    55    55    56    1
    56    50    51    1
    57     5     6    1
    58    61    62    1
    59    51    52    1
    60    89    87    1
    61    56    57    2
    62    85    84    2
    63    87    86    1
    64     6     8    1
    65     6     7    1
    66    84    83    1
    67    86    83    1
    68    86    88    1
    69    74    73    2
    70    82    83    1
    71    63    64    1
    72    64    65    1
    73    64    67    1
    74    73    72    1
    75    66    65    2
    76    71    72    1
    77    93    92    2
    78    72    75    1
    79    67    68    1
    80    75    76    1
    81    94    91    1
    82    94    95    1
    83    91    92    1
    84    91    90    1
    85    92    97   am
    86    68    69   ar
    87    68    70   ar
    88    76    77    1
    89   100    99    2
    90    99    98    1
    91    90    96    1
    92    97    98    1
    93    95    96    1
    94    98   101    1
    95    77    78    1
    96   105   103   ar
    97   103   104   ar
    98   103   102    1
    99   101   102    1
   100    78    79    2
   101    80    79    1
   102    79    81    1
