@<TRIPOS>MOLECULE
tmp/3dt9A00.pdb
 84 80 0 0 0
SMALL
GASTEIGER

@<TRIPOS>ATOM
      1  N         58.2620   18.3630  -27.5390 N.3    42  ASP42      -0.1225
      2  CA        59.2230   19.3840  -27.1990 C.3    42  ASP42       0.1805
      3  C         60.6450   18.8220  -26.9700 C.2    42  ASP42       0.2598
      4  O         61.0160   17.7220  -27.4270 O.2    42  ASP42      -0.2718
      5  CB        58.7460   20.2150  -25.9790 C.3    42  ASP42       0.1424
      6  CG        58.4830   19.3570  -24.7350 C.2    42  ASP42       0.3668
      7  OD1       59.1140   18.2840  -24.5880 O.co2  42  ASP42      -0.2456
      8  OD2       57.6350   19.7580  -23.8990 O.co2  42  ASP42      -0.2456
      9  N         61.5520   19.5730  -26.1340 N.am   43  SER43      -0.1938
     10  CA        62.9440   19.1890  -25.8840 C.3    43  SER43       0.2055
     11  C         63.0420   17.8150  -25.2590 C.2    43  SER43       0.2642
     12  O         63.9490   17.0390  -25.5690 O.2    43  SER43      -0.2714
     13  CB        63.5630   20.1980  -24.9480 C.3    43  SER43       0.2130
     14  OG        62.8910   20.2110  -23.6750 O.3    43  SER43      -0.2179
     15  N         61.9720   17.3760  -24.4270 N.am   44  LEU44      -0.1977
     16  CA        62.0110   16.0310  -23.7770 C.3    44  LEU44       0.1596
     17  C         61.9610   14.9280  -24.8140 C.2    44  LEU44       0.2287
     18  O         62.5670   13.8780  -24.6330 O.2    44  LEU44      -0.2864
     19  CB        60.8980   15.9260  -22.7540 C.3    44  LEU44       0.0297
     20  CG        61.1670   16.8480  -21.5530 C.3    44  LEU44       0.0022
     21  CD1       59.8680   17.0860  -20.8280 C.3    44  LEU44       0.0001
     22  CD2       62.1430   16.1830  -20.5850 C.3    44  LEU44       0.0001
     23  N         62.9800   21.7030  -29.2890 N.3    69  GLY69      -0.1210
     24  CA        63.0710   22.4210  -28.0150 C.3    69  GLY69       0.1956
     25  C         62.2480   23.7120  -27.9750 C.2    69  GLY69       0.2612
     26  O         62.2840   24.4880  -28.9310 O.2    69  GLY69      -0.2717
     27  N         61.5020   23.9270  -26.8840 N.am   70  GLY70      -0.1956
     28  CA        60.7250   25.1330  -26.6790 C.3    70  GLY70       0.1869
     29  C         59.2800   25.1030  -27.1850 C.2    70  GLY70       0.2309
     30  O         58.5070   25.9930  -26.8450 O.2    70  GLY70      -0.2863
     31  N         54.5030   21.1600  -21.3030 N.3    99  THR99      -0.1203
     32  CA        55.2830   21.7440  -20.2010 C.3    99  THR99       0.1994
     33  C         55.7700   23.1840  -20.4940 C.2    99  THR99       0.2617
     34  O         56.0670   23.9520  -19.5910 O.2    99  THR99      -0.2717
     35  CB        56.4890   20.8260  -19.7940 C.3    99  THR99       0.1784
     36  OG1       56.8450   21.0930  -18.4380 O.3    99  THR99      -0.2211
     37  CG2       57.7060   21.0800  -20.7080 C.3    99  THR99       0.0376
     38  N         55.8410   23.5490  -21.7670 N.am  100  ASN100     -0.1974
     39  CA        56.2870   24.8940  -22.1790 C.3   100  ASN100      0.1688
     40  C         55.1730   25.9070  -22.3750 C.2   100  ASN100      0.2292
     41  O         55.4410   27.0510  -22.7410 O.2   100  ASN100     -0.2864
     42  CB        57.1050   24.8250  -23.4920 C.3   100  ASN100      0.1181
     43  CG        58.3780   24.0100  -23.3470 C.2   100  ASN100      0.2629
     44  OD1       58.9870   23.9840  -22.2750 O.2   100  ASN100     -0.2716
     45  ND2       58.8130   23.3470  -24.4420 N.am  100  ASN100     -0.0877
     46  N         53.6070   28.2150  -21.0660 N.3   102  HIS102     -0.1241
     47  CA        53.5700   29.2630  -20.0470 C.3   102  HIS102      0.1621
     48  C         52.5410   30.3170  -20.4020 C.2   102  HIS102      0.2264
     49  O         52.4920   30.8160  -21.5380 O.2   102  HIS102     -0.2867
     50  CB        54.9620   29.8630  -19.8590 C.3   102  HIS102      0.0745
     51  CG        55.9940   28.8130  -19.5790 C.ar  102  HIS102      0.0817
     52  ND1       55.9430   28.0060  -18.4620 N.ar  102  HIS102     -0.2268
     53  CD2       57.0550   28.3820  -20.3080 C.ar  102  HIS102      0.1154
     54  CE1       56.9560   27.1530  -18.4900 C.ar  102  HIS102      0.1986
     55  NE2       57.6420   27.3590  -19.6010 N.ar  102  HIS102     -0.2212
     56  N         58.6810   19.3800  -12.4530 N.3   137  ARG137     -0.1245
     57  CA        59.8590   20.1770  -12.7550 C.3   137  ARG137      0.1563
     58  C         60.1120   21.1180  -11.5740 C.2   137  ARG137      0.2260
     59  O         59.2150   21.3420  -10.7450 O.2   137  ARG137     -0.2867
     60  CB        59.6550   21.0080  -14.0560 C.3   137  ARG137      0.0307
     61  CG        58.2910   21.6960  -14.1090 C.3   137  ARG137      0.0489
     62  CD        58.0460   22.3440  -15.4850 C.3   137  ARG137      0.2205
     63  NE        58.9320   23.4920  -15.6710 N.pl3 137  ARG137     -0.0865
     64  CZ        59.1090   24.1430  -16.8270 C.cat 137  ARG137      0.5346
     65  NH1       58.4640   23.7600  -17.9070 N.pl3 137  ARG137      0.1354
     66  NH2       59.9440   25.1810  -16.8950 N.pl3 137  ARG137      0.1354
     67  N         64.4530   20.0650  -15.1870 N.3   190  LEU190     -0.1231
     68  CA        63.4790   20.0600  -16.3060 C.3   190  LEU190      0.1693
     69  C         63.8260   18.9630  -17.3130 C.2   190  LEU190      0.2592
     70  O         63.0260   18.0180  -17.5340 O.2   190  LEU190     -0.2718
     71  CB        63.4100   21.4370  -17.0220 C.3   190  LEU190      0.0284
     72  CG        62.5040   21.5120  -18.2760 C.3   190  LEU190      0.0019
     73  CD1       61.0740   21.0940  -17.9070 C.3   190  LEU190      0.0001
     74  CD2       62.5680   22.9310  -18.8850 C.3   190  LEU190      0.0001
     75  N         65.0050   19.0750  -17.9220 N.am  191  HIS191     -0.1976
     76  CA        65.4840   18.0690  -18.8710 C.3   191  HIS191      0.1656
     77  C         65.9120   16.8460  -18.0950 C.2   191  HIS191      0.2291
     78  O         66.3430   16.9590  -16.9490 O.2   191  HIS191     -0.2864
     79  CB        66.7090   18.5820  -19.6370 C.3   191  HIS191      0.0771
     80  CG        66.4120   19.7130  -20.5660 C.ar  191  HIS191      0.0820
     81  ND1       66.3260   21.0260  -20.1460 N.ar  191  HIS191     -0.2267
     82  CD2       66.1870   19.7260  -21.9050 C.ar  191  HIS191      0.1154
     83  CE1       66.0390   21.7960  -21.1800 C.ar  191  HIS191      0.1986
     84  NE2       65.9820   21.0380  -22.2640 N.ar  191  HIS191     -0.2212
@<TRIPOS>BOND
     1    23    24    1
     2    26    25    2
     3    24    25    1
     4    25    27   am
     5     1     2    1
     6     4     3    2
     7     2     3    1
     8     2     5    1
     9    29    30    2
    10    29    28    1
    11     3     9   am
    12    27    28    1
    13     9    10    1
    14     5     6    1
    15    10    11    1
    16    10    13    1
    17    12    11    2
    18    11    15   am
    19    13    14    1
    20    17    18    2
    21    17    16    1
    22     6     7   ar
    23     6     8   ar
    24    45    43   am
    25    15    16    1
    26    16    19    1
    27    42    43    1
    28    42    39    1
    29    43    44    2
    30    19    20    1
    31    41    40    2
    32    40    39    1
    33    84    82   ar
    34    84    83   ar
    35    39    38    1
    36    82    80   ar
    37    38    33   am
    38    20    21    1
    39    20    22    1
    40    49    48    2
    41    31    32    1
    42    83    81   ar
    43    46    47    1
    44    37    35    1
    45    80    81   ar
    46    80    79    1
    47    33    32    1
    48    33    34    2
    49    48    47    1
    50    53    55   ar
    51    53    51   ar
    52    32    35    1
    53    47    50    1
    54    50    51    1
    55    35    36    1
    56    79    76    1
    57    55    54   ar
    58    51    52   ar
    59    74    72    1
    60    76    77    1
    61    76    75    1
    62    54    52   ar
    63    72    73    1
    64    72    71    1
    65    77    78    2
    66    75    69   am
    67    65    64    1
    68    70    69    2
    69    69    68    1
    70    71    68    1
    71    66    64    1
    72    64    63    2
    73    68    67    1
    74    63    62    1
    75    62    61    1
    76    61    60    1
    77    60    57    1
    78    57    56    1
    79    57    58    1
    80    58    59    2
