@<TRIPOS>MOLECULE
tmp/3dtaB08.pdb
 276 283 0 0 0
SMALL
GASTEIGER

@<TRIPOS>ATOM
      1  N         48.8880   90.5750   45.6060 N.3    66  TRP66      -0.1227
      2  CA        47.7350   91.4840   45.5760 C.3    66  TRP66       0.1737
      3  C         46.7720   91.1350   46.7110 C.2    66  TRP66       0.2595
      4  O         46.4570   91.9650   47.5690 O.2    66  TRP66      -0.2718
      5  CB        47.0250   91.4120   44.2100 C.3    66  TRP66       0.0564
      6  CG        45.6810   92.1590   44.1730 C.ar   66  TRP66       0.0003
      7  CD1       45.4840   93.4840   44.2640 C.ar   66  TRP66       0.0946
      8  CD2       44.4070   91.5450   44.0240 C.ar   66  TRP66       0.0152
      9  NE1       44.0690   93.7100   44.1870 N.ar   66  TRP66      -0.2442
     10  CE2       43.4570   92.5590   44.0530 C.ar   66  TRP66       0.0810
     11  CE3       43.9860   90.2190   43.8790 C.ar   66  TRP66       0.0012
     12  CZ2       42.0790   92.3190   43.9560 C.ar   66  TRP66       0.0191
     13  CZ3       42.5990   89.9890   43.7770 C.ar   66  TRP66       0.0001
     14  CH2       41.6910   90.9900   43.8160 C.ar   66  TRP66       0.0015
     15  N         46.3560   89.9040   46.6900 N.am   67  PHE67      -0.1962
     16  CA        45.3830   89.3680   47.6400 C.3    67  PHE67       0.1771
     17  C         45.8630   89.5090   49.0910 C.2    67  PHE67       0.2619
     18  O         45.0830   89.8140   50.0050 O.2    67  PHE67      -0.2715
     19  CB        45.1630   87.9050   47.2980 C.3    67  PHE67       0.0574
     20  CG        43.9720   87.2740   48.0020 C.ar   67  PHE67      -0.0200
     21  CD1       42.6660   87.5850   47.6010 C.ar   67  PHE67      -0.0042
     22  CD2       44.2000   86.3750   49.0400 C.ar   67  PHE67      -0.0042
     23  CE1       41.5810   86.9720   48.2410 C.ar   67  PHE67      -0.0003
     24  CE2       43.1180   85.7570   49.6750 C.ar   67  PHE67      -0.0003
     25  CZ        41.8080   86.0530   49.2750 C.ar   67  PHE67      -0.0000
     26  N         47.1390   89.2870   49.2940 N.am   68  PHE68      -0.1974
     27  CA        47.7100   89.3540   50.6360 C.3    68  PHE68       0.1639
     28  C         47.8840   90.8010   51.0870 C.2    68  PHE68       0.2290
     29  O         47.6150   91.1460   52.2450 O.2    68  PHE68      -0.2864
     30  CB        49.0470   88.6290   50.6770 C.3    68  PHE68       0.0560
     31  CG        48.8640   87.1150   50.7130 C.ar   68  PHE68      -0.0200
     32  CD1       47.8600   86.5520   51.5130 C.ar   68  PHE68      -0.0042
     33  CD2       49.6890   86.2930   49.9430 C.ar   68  PHE68      -0.0042
     34  CE1       47.6800   85.1640   51.5350 C.ar   68  PHE68      -0.0003
     35  CE2       49.5090   84.9060   49.9620 C.ar   68  PHE68      -0.0003
     36  CZ        48.5030   84.3410   50.7580 C.ar   68  PHE68      -0.0000
     37  N         46.0820   93.1150   50.4800 N.3    70  ILE70      -0.1231
     38  CA        44.7500   93.5490   50.9330 C.3    70  ILE70       0.1692
     39  C         44.4430   92.9020   52.2850 C.2    70  ILE70       0.2593
     40  O         43.9510   93.5590   53.2100 O.2    70  ILE70      -0.2718
     41  CB        43.6600   93.1580   49.9320 C.3    70  ILE70       0.0266
     42  CG1       43.5950   94.1120   48.7370 C.3    70  ILE70       0.0019
     43  CG2       42.2550   93.1690   50.5490 C.3    70  ILE70       0.0020
     44  CD1       43.1370   93.4300   47.4480 C.3    70  ILE70       0.0001
     45  N         44.7700   91.6330   52.3490 N.am   71  GLY71      -0.1942
     46  CA        44.5470   90.8060   53.5410 C.3    71  GLY71       0.2014
     47  C         45.1800   91.4230   54.8100 C.2    71  GLY71       0.2638
     48  O         44.5570   91.4750   55.8800 O.2    71  GLY71      -0.2714
     49  N         46.4400   91.8750   54.7170 N.am   72  ILE72      -0.1977
     50  CA        47.1270   92.4450   55.9080 C.3    72  ILE72       0.1596
     51  C         46.4410   93.7270   56.3330 C.2    72  ILE72       0.2287
     52  O         46.3330   94.0290   57.5280 O.2    72  ILE72      -0.2864
     53  CB        48.6190   92.7270   55.6700 C.3    72  ILE72       0.0276
     54  CG1       48.8690   93.9400   54.7720 C.3    72  ILE72       0.0022
     55  CG2       49.3490   91.5600   55.0020 C.3    72  ILE72       0.0022
     56  CD1       50.2090   94.6250   55.0550 C.3    72  ILE72       0.0001
     57  N         43.2520   94.3890   55.9860 N.3    74  PHE74      -0.1227
     58  CA        42.0030   93.9740   56.6780 C.3    74  PHE74       0.1736
     59  C         42.3580   93.6170   58.1430 C.2    74  PHE74       0.2595
     60  O         41.6730   94.0370   59.0870 O.2    74  PHE74      -0.2718
     61  CB        41.3630   92.7880   55.9550 C.3    74  PHE74       0.0547
     62  CG        40.5600   93.2570   54.7380 C.ar   74  PHE74      -0.0202
     63  CD1       40.9020   94.4590   54.1080 C.ar   74  PHE74      -0.0042
     64  CD2       39.4860   92.4990   54.2550 C.ar   74  PHE74      -0.0042
     65  CE1       40.1770   94.9040   53.0010 C.ar   74  PHE74      -0.0003
     66  CE2       38.7580   92.9440   53.1460 C.ar   74  PHE74      -0.0003
     67  CZ        39.1040   94.1480   52.5190 C.ar   74  PHE74      -0.0000
     68  N         43.4520   92.8510   58.3140 N.am   75  TRP75      -0.1976
     69  CA        43.9200   92.4290   59.6630 C.3    75  TRP75       0.1640
     70  C         44.2730   93.6540   60.5080 C.2    75  TRP75       0.2290
     71  O         43.9230   93.7460   61.6860 O.2    75  TRP75      -0.2864
     72  CB        45.1530   91.5160   59.5920 C.3    75  TRP75       0.0576
     73  CG        44.7890   90.0660   59.2660 C.ar   75  TRP75       0.0006
     74  CD1       44.9020   89.4760   58.0770 C.ar   75  TRP75       0.0946
     75  CD2       44.2570   89.1100   60.1830 C.ar   75  TRP75       0.0152
     76  NE1       44.4450   88.1330   58.2260 N.ar   75  TRP75      -0.2442
     77  CE2       44.0730   87.9360   59.4660 C.ar   75  TRP75       0.0810
     78  CE3       43.9190   89.1310   61.5450 C.ar   75  TRP75       0.0012
     79  CZ2       43.5750   86.7560   60.0290 C.ar   75  TRP75       0.0191
     80  CZ3       43.4120   87.9360   62.1060 C.ar   75  TRP75       0.0001
     81  CH2       43.2510   86.8060   61.3820 C.ar   75  TRP75       0.0015
     82  N         37.9420   90.1580   62.7750 N.3    85  PHE85      -0.1241
     83  CA        38.2620   89.8390   61.3790 C.3    85  PHE85       0.1605
     84  C         37.0940   89.0880   60.7550 C.2    85  PHE85       0.2264
     85  O         36.6480   89.4420   59.6720 O.2    85  PHE85      -0.2867
     86  CB        39.5240   88.9750   61.2750 C.3    85  PHE85       0.0534
     87  CG        39.9300   88.6460   59.8200 C.ar   85  PHE85      -0.0203
     88  CD1       40.7510   89.5250   59.0940 C.ar   85  PHE85      -0.0042
     89  CD2       39.4900   87.4610   59.2120 C.ar   85  PHE85      -0.0042
     90  CE1       41.1450   89.2050   57.7820 C.ar   85  PHE85      -0.0003
     91  CE2       39.8900   87.1390   57.9080 C.ar   85  PHE85      -0.0003
     92  CZ        40.7200   88.0090   57.1940 C.ar   85  PHE85      -0.0000
     93  N         34.2610   91.1980   58.1440 N.3    89  LEU89      -0.1245
     94  CA        34.9990   90.8580   56.9110 C.3    89  LEU89       0.1561
     95  C         34.5570   91.5620   55.6320 C.2    89  LEU89       0.2260
     96  O         35.3850   91.8570   54.7530 O.2    89  LEU89      -0.2867
     97  CB        34.9330   89.3380   56.6380 C.3    89  LEU89       0.0270
     98  CG        35.7380   88.8690   55.4320 C.3    89  LEU89       0.0019
     99  CD1       37.2380   89.1110   55.5910 C.3    89  LEU89       0.0001
    100  CD2       35.5760   87.3670   55.1710 C.3    89  LEU89       0.0001
    101  N         51.9630  109.2440   43.3260 N.3   105  PHE105     -0.1241
    102  CA        52.4290  107.9610   43.8300 C.3   105  PHE105      0.1605
    103  C         53.1090  108.1680   45.1890 C.2   105  PHE105      0.2264
    104  O         53.8740  107.3190   45.6560 O.2   105  PHE105     -0.2867
    105  CB        53.4760  107.3580   42.8850 C.3   105  PHE105      0.0534
    106  CG        52.8920  106.5900   41.6940 C.ar  105  PHE105     -0.0203
    107  CD1       52.5570  105.2380   41.8280 C.ar  105  PHE105     -0.0042
    108  CD2       52.7040  107.2390   40.4700 C.ar  105  PHE105     -0.0042
    109  CE1       52.0540  104.5300   40.7300 C.ar  105  PHE105     -0.0003
    110  CE2       52.1960  106.5340   39.3740 C.ar  105  PHE105     -0.0003
    111  CZ        51.8760  105.1770   39.5040 C.ar  105  PHE105     -0.0000
    112  N         47.0920  100.8850   48.6470 N.3   115  TRP115     -0.1227
    113  CA        46.1350  100.6120   47.5480 C.3   115  TRP115      0.1737
    114  C         46.8840  100.5580   46.2080 C.2   115  TRP115      0.2595
    115  O         46.6080   99.7260   45.3380 O.2   115  TRP115     -0.2718
    116  CB        45.0650  101.7090   47.4890 C.3   115  TRP115      0.0564
    117  CG        44.0280  101.5060   46.3710 C.ar  115  TRP115      0.0003
    118  CD1       42.8390  100.8870   46.4670 C.ar  115  TRP115      0.0946
    119  CD2       44.1720  101.9580   45.0350 C.ar  115  TRP115      0.0152
    120  NE1       42.2230  100.9510   45.1760 N.ar  115  TRP115     -0.2442
    121  CE2       43.0220  101.5850   44.3510 C.ar  115  TRP115      0.0810
    122  CE3       45.1800  102.6490   44.3540 C.ar  115  TRP115      0.0012
    123  CZ2       42.8150  101.8700   42.9950 C.ar  115  TRP115      0.0191
    124  CZ3       44.9650  102.9290   42.9910 C.ar  115  TRP115      0.0001
    125  CH2       43.8360  102.5570   42.3450 C.ar  115  TRP115      0.0015
    126  N         47.8340  101.4510   46.0550 N.am  116  LEU116     -0.1980
    127  CA        48.6280  101.5160   44.8240 C.3   116  LEU116      0.1596
    128  C         49.4760  100.2550   44.6480 C.2   116  LEU116      0.2287
    129  O         49.6570   99.7520   43.5330 O.2   116  LEU116     -0.2864
    130  CB        49.6130  102.6720   44.8660 C.3   116  LEU116      0.0297
    131  CG        48.9760  104.0570   44.8130 C.3   116  LEU116      0.0022
    132  CD1       50.0260  105.1750   44.8760 C.3   116  LEU116      0.0001
    133  CD2       48.1690  104.3090   43.5400 C.3   116  LEU116      0.0001
    134  N         47.1500   97.4050   43.6760 N.3   119  SER119     -0.1202
    135  CA        46.7890   97.5690   42.2760 C.3   119  SER119      0.2020
    136  C         47.9470   97.2210   41.3440 C.2   119  SER119      0.2618
    137  O         47.7810   96.4430   40.4020 O.2   119  SER119     -0.2717
    138  CB        46.3250   99.0000   42.0150 C.3   119  SER119      0.2103
    139  OG        45.6070   99.4960   43.1220 O.3   119  SER119     -0.2182
    140  N         49.1290   97.7530   41.6410 N.am  120  PHE120     -0.1975
    141  CA        50.2900   97.4600   40.8320 C.3   120  PHE120      0.1639
    142  C         50.4460   95.9530   40.6990 C.2   120  PHE120      0.2290
    143  O         50.7610   95.4300   39.6230 O.2   120  PHE120     -0.2864
    144  CB        51.5410   98.0850   41.4410 C.3   120  PHE120      0.0560
    145  CG        52.7550   97.5970   40.6780 C.ar  120  PHE120     -0.0200
    146  CD1       53.0760   98.1820   39.4520 C.ar  120  PHE120     -0.0042
    147  CD2       53.5190   96.5540   41.1930 C.ar  120  PHE120     -0.0042
    148  CE1       54.1520   97.6890   38.7140 C.ar  120  PHE120     -0.0003
    149  CE2       54.5880   96.0490   40.4480 C.ar  120  PHE120     -0.0003
    150  CZ        54.9010   96.6140   39.2050 C.ar  120  PHE120     -0.0000
    151  N         48.0300   93.7230   41.0290 N.3   122  MET122     -0.1230
    152  CA        46.9190   93.2040   40.2240 C.3   122  MET122      0.1702
    153  C         47.1810   93.4330   38.7300 C.2   122  MET122      0.2592
    154  O         46.9130   92.5630   37.8920 O.2   122  MET122     -0.2718
    155  CB        45.6040   93.8780   40.5940 C.3   122  MET122      0.0401
    156  CG        44.4010   93.0430   40.1610 C.3   122  MET122      0.0596
    157  SD        42.8400   93.7710   40.5850 S.3   122  MET122     -0.1393
    158  CE        41.5790   92.5150   40.5540 C.3   122  MET122      0.0692
    159  N         47.7070   94.6010   38.4270 N.am  123  PHE123     -0.1976
    160  CA        47.9990   94.9880   37.0410 C.3   123  PHE123      0.1639
    161  C         48.8750   93.9330   36.3800 C.2   123  PHE123      0.2290
    162  O         48.5360   93.3850   35.3230 O.2   123  PHE123     -0.2864
    163  CB        48.7150   96.3350   37.0200 C.3   123  PHE123      0.0560
    164  CG        48.9520   96.9030   35.6140 C.ar  123  PHE123     -0.0200
    165  CD1       47.9680   97.6850   34.9930 C.ar  123  PHE123     -0.0042
    166  CD2       50.1600   96.6510   34.9540 C.ar  123  PHE123     -0.0042
    167  CE1       48.2070   98.2370   33.7280 C.ar  123  PHE123     -0.0003
    168  CE2       50.4030   97.2120   33.6940 C.ar  123  PHE123     -0.0003
    169  CZ        49.4280   98.0070   33.0820 C.ar  123  PHE123     -0.0000
    170  N         37.9100   96.5810   33.1900 N.3   157  TRP157     -0.1227
    171  CA        38.7500   96.6310   34.4110 C.3   157  TRP157      0.1737
    172  C         39.8090   97.7210   34.2610 C.2   157  TRP157      0.2595
    173  O         39.9640   98.5660   35.1400 O.2   157  TRP157     -0.2718
    174  CB        39.3860   95.2300   34.5950 C.3   157  TRP157      0.0564
    175  CG        40.6370   95.1640   35.4950 C.ar  157  TRP157      0.0003
    176  CD1       40.6730   95.1220   36.8380 C.ar  157  TRP157      0.0946
    177  CD2       41.9830   95.1140   35.0290 C.ar  157  TRP157      0.0152
    178  NE1       42.0500   95.0530   37.2260 N.ar  157  TRP157     -0.2442
    179  CE2       42.8030   95.0540   36.1480 C.ar  157  TRP157      0.0810
    180  CE3       42.5660   95.1260   33.7530 C.ar  157  TRP157      0.0012
    181  CZ2       44.2030   95.0110   36.0720 C.ar  157  TRP157      0.0191
    182  CZ3       43.9740   95.0820   33.6860 C.ar  157  TRP157      0.0001
    183  CH2       44.7540   95.0270   34.7910 C.ar  157  TRP157      0.0015
    184  N         40.4340   97.7710   33.0900 N.am  158  MET158     -0.1979
    185  CA        41.3740   98.8280   32.7590 C.3   158  MET158      0.1605
    186  C         40.7540  100.2100   32.9560 C.2   158  MET158      0.2287
    187  O         41.3710  101.1110   33.5350 O.2   158  MET158     -0.2864
    188  CB        41.8260   98.7220   31.2950 C.3   158  MET158      0.0413
    189  CG        43.0490   97.8230   31.1130 C.3   158  MET158      0.0598
    190  SD        44.3590   98.1930   32.2600 S.3   158  MET158     -0.1393
    191  CE        45.4930   99.3530   31.5300 C.3   158  MET158      0.0692
    192  N         37.9650  101.0580   34.7100 N.3   160  LEU160     -0.1231
    193  CA        37.4740  101.3070   36.0810 C.3   160  LEU160      0.1693
    194  C         38.5560  101.8220   37.0320 C.2   160  LEU160      0.2593
    195  O         38.3760  102.8380   37.7160 O.2   160  LEU160     -0.2718
    196  CB        36.8920  100.0280   36.6770 C.3   160  LEU160      0.0284
    197  CG        35.4550   99.7690   36.2210 C.3   160  LEU160      0.0019
    198  CD1       34.9350   98.3900   36.6280 C.3   160  LEU160      0.0001
    199  CD2       34.4550  100.7760   36.7930 C.3   160  LEU160      0.0001
    200  N         39.6750  101.1330   37.0760 N.am  161  GLY161     -0.1942
    201  CA        40.7210  101.4720   38.0510 C.3   161  GLY161      0.2014
    202  C         41.9850  102.1020   37.4450 C.2   161  GLY161      0.2638
    203  O         42.9720  102.3560   38.1460 O.2   161  GLY161     -0.2714
    204  N         42.0120  102.3920   36.1570 N.am  162  PHE162     -0.1973
    205  CA        43.2580  102.9440   35.5890 C.3   162  PHE162      0.1639
    206  C         43.0520  104.1270   34.6300 C.2   162  PHE162      0.2290
    207  O         43.5130  105.2490   34.8930 O.2   162  PHE162     -0.2864
    208  CB        44.0200  101.8680   34.8230 C.3   162  PHE162      0.0560
    209  CG        45.4250  102.3260   34.4520 C.ar  162  PHE162     -0.0200
    210  CD1       46.3990  102.4660   35.4480 C.ar  162  PHE162     -0.0042
    211  CD2       45.7300  102.6130   33.1210 C.ar  162  PHE162     -0.0042
    212  CE1       47.6840  102.9010   35.1080 C.ar  162  PHE162     -0.0003
    213  CE2       47.0140  103.0520   32.7800 C.ar  162  PHE162     -0.0003
    214  CZ        47.9910  103.1960   33.7740 C.ar  162  PHE162     -0.0000
    215  N         43.5620  109.2590   41.4990 N.3   171  TRP171     -0.1241
    216  CA        43.3630  107.8460   41.8100 C.3   171  TRP171      0.1605
    217  C         42.1200  107.6420   42.6780 C.2   171  TRP171      0.2264
    218  O         41.5510  106.5470   42.7240 O.2   171  TRP171     -0.2867
    219  CB        44.5570  107.2950   42.5860 C.3   171  TRP171      0.0550
    220  CG        45.8670  107.3610   41.8090 C.ar  171  TRP171      0.0003
    221  CD1       46.9780  108.0100   42.1710 C.ar  171  TRP171      0.0946
    222  CD2       46.1110  106.7320   40.5610 C.ar  171  TRP171      0.0152
    223  NE1       47.9480  107.7850   41.1500 N.ar  171  TRP171     -0.2442
    224  CE2       47.4220  107.0290   40.2150 C.ar  171  TRP171      0.0810
    225  CE3       45.3420  105.9340   39.7020 C.ar  171  TRP171      0.0012
    226  CZ2       48.0290  106.5610   39.0450 C.ar  171  TRP171      0.0191
    227  CZ3       45.9610  105.4700   38.5240 C.ar  171  TRP171      0.0001
    228  CH2       47.2430  105.7690   38.2120 C.ar  171  TRP171      0.0015
    229  N         38.1980  102.2380   42.1410 N.3   175  VAL175     -0.1231
    230  CA        37.3780  101.3320   42.9720 C.3   175  VAL175      0.1681
    231  C         38.1840  100.7940   44.1720 C.2   175  VAL175      0.2471
    232  O         39.3120  100.3090   44.0080 O.2   175  VAL175     -0.2730
    233  CB        36.9000  100.1510   42.1220 C.3   175  VAL175      0.0265
    234  CG1       36.0150   99.1790   42.9030 C.3   175  VAL175      0.0020
    235  CG2       36.0760  100.5840   40.9050 C.3   175  VAL175      0.0020
    236  N         37.6500  100.8620   45.4300 N.am  176  PRO176     -0.2492
    237  CA        38.3440  100.3570   46.6230 C.3   176  PRO176      0.1619
    238  C         38.2950   98.8630   46.6560 C.2   176  PRO176      0.2605
    239  O         37.2960   98.2670   46.1660 O.2   176  PRO176     -0.2715
    240  CB        37.4640  100.7490   47.7840 C.3   176  PRO176      0.0570
    241  CG        36.1990  101.3530   47.2120 C.2   176  PRO176     -0.0077
    242  CD        36.3280  101.4320   45.7150 C.2   176  PRO176      0.0634
    243  N         39.2880   98.2270   47.2200 N.am  177  TYR177     -0.1960
    244  CA        39.2210   96.7700   47.3770 C.3   177  TYR177      0.1771
    245  C         38.4350   96.4820   48.6510 C.2   177  TYR177      0.2620
    246  O         38.8700   96.8390   49.7480 O.2   177  TYR177     -0.2715
    247  CB        40.6170   96.1880   47.4800 C.3   177  TYR177      0.0574
    248  CG        41.4450   96.5380   46.2670 C.ar  177  TYR177     -0.0198
    249  CD1       41.1300   95.9630   45.0400 C.ar  177  TYR177     -0.0009
    250  CD2       42.4960   97.4420   46.3900 C.ar  177  TYR177     -0.0009
    251  CE1       41.8750   96.2950   43.9160 C.ar  177  TYR177      0.0417
    252  CE2       43.2420   97.7780   45.2620 C.ar  177  TYR177      0.0417
    253  CZ        42.9290   97.2050   44.0240 C.ar  177  TYR177      0.1957
    254  OH        43.6480   97.5370   42.9240 O.3   177  TYR177     -0.2866
    255  N         37.2790   95.8600   48.4810 N.am  178  GLY178     -0.1940
    256  CA        36.3920   95.5080   49.6180 C.3   178  GLY178      0.2014
    257  C         35.0600   94.9610   49.0960 C.2   178  GLY178      0.2638
    258  O         34.6060   95.3050   48.0030 O.2   178  GLY178     -0.2714
    259  N         34.4170   94.1090   49.8830 N.am  179  ILE179     -0.1977
    260  CA        33.1550   93.4830   49.4430 C.3   179  ILE179      0.1596
    261  C         31.9950   94.4870   49.4280 C.2   179  ILE179      0.2287
    262  O         31.3760   94.7410   48.3890 O.2   179  ILE179     -0.2864
    263  CB        32.7820   92.2970   50.3230 C.3   179  ILE179      0.0276
    264  CG1       33.8200   91.1770   50.2510 C.3   179  ILE179      0.0022
    265  CG2       31.4520   91.6570   49.9130 C.3   179  ILE179      0.0022
    266  CD1       34.0280   90.6520   48.8300 C.3   179  ILE179      0.0001
    267  N         32.9490   98.1160   47.4740 N.3   182  HIS182     -0.1241
    268  CA        32.9180   98.2420   45.9990 C.3   182  HIS182      0.1621
    269  C         31.4690   98.2230   45.5080 C.2   182  HIS182      0.2264
    270  O         31.1490   98.9240   44.5520 O.2   182  HIS182     -0.2867
    271  CB        33.8250   97.1810   45.3540 C.3   182  HIS182      0.0745
    272  CG        33.1320   95.9280   44.8130 C.ar  182  HIS182      0.0817
    273  ND1       32.4600   95.0380   45.6420 N.ar  182  HIS182     -0.2268
    274  CD2       33.0400   95.4230   43.5530 C.ar  182  HIS182      0.1154
    275  CE1       32.0120   94.0420   44.8940 C.ar  182  HIS182      0.1986
    276  NE2       32.3530   94.2550   43.6460 N.ar  182  HIS182     -0.2212
@<TRIPOS>BOND
     1   189   188    1
     2   189   190    1
     3   188   185    1
     4   191   190    1
     5   185   186    1
     6   185   184    1
     7   213   211   ar
     8   213   214   ar
     9   186   187    2
    10   169   168   ar
    11   169   167   ar
    12   184   172   am
    13   211   209   ar
    14   170   171    1
    15   182   180   ar
    16   182   183   ar
    17   168   166   ar
    18   167   165   ar
    19   180   177   ar
    20   214   212   ar
    21   172   171    1
    22   172   173    2
    23   171   174    1
    24   209   208    1
    25   209   210   ar
    26   174   175    1
    27   206   207    2
    28   206   205    1
    29   192   193    1
    30   183   181   ar
    31   208   205    1
    32   166   164   ar
    33   165   164   ar
    34   177   175   ar
    35   177   179   ar
    36   212   210   ar
    37   162   161    2
    38   175   176   ar
    39   205   204    1
    40   164   163    1
    41   181   179   ar
    42   193   196    1
    43   193   194    1
    44   179   178   ar
    45   204   202   am
    46   197   198    1
    47   197   196    1
    48   197   199    1
    49   161   160    1
    50   176   178   ar
    51   163   160    1
    52   194   200   am
    53   194   195    2
    54   160   159    1
    55   200   201    1
    56   202   201    1
    57   202   203    2
    58   154   153    2
    59   228   227   ar
    60   228   226   ar
    61   159   153   am
    62   227   225   ar
    63   148   150   ar
    64   148   146   ar
    65   153   152    1
    66   226   224   ar
    67   150   149   ar
    68   110   111   ar
    69   110   108   ar
    70   146   145   ar
    71   111   109   ar
    72   143   142    2
    73   225   222   ar
    74   156   157    1
    75   156   155    1
    76   224   222   ar
    77   224   223   ar
    78   152   155    1
    79   152   151    1
    80   137   136    2
    81   149   147   ar
    82   108   106   ar
    83   158   157    1
    84   222   220   ar
    85   145   147   ar
    86   145   144    1
    87   142   141    1
    88   109   107   ar
    89   141   144    1
    90   141   140    1
    91   235   233    1
    92   223   221   ar
    93   136   140   am
    94   136   135    1
    95   215   216    1
    96   106   107   ar
    97   106   105    1
    98   220   221   ar
    99   220   219    1
   100   216   219    1
   101   216   217    1
   102   138   135    1
   103   138   139    1
   104   233   234    1
   105   233   230    1
   106   229   230    1
   107   135   134    1
   108   125   124   ar
   109   125   123   ar
   110   217   218    2
   111   105   102    1
   112   254   253    1
   113   230   231    1
   114   124   122   ar
   115   123   121   ar
   116   101   102    1
   117   129   128    2
   118   133   131    1
   119   274   276   ar
   120   274   272   ar
   121   276   275   ar
   122    13    14   ar
   123    13    11   ar
   124    14    12   ar
   125   102   103    1
   126    11     8   ar
   127   251   253   ar
   128   251   249   ar
   129    12    10   ar
   130   232   231    2
   131   253   252   ar
   132     8    10   ar
   133     8     6   ar
   134    10     9   ar
   135   231   236   am
   136     6     5    1
   137     6     7   ar
   138     9     7   ar
   139     5     2    1
   140   121   119   ar
   141   121   120   ar
   142   122   119   ar
   143   270   269    2
   144   128   127    1
   145   131   130    1
   146   131   132    1
   147   272   271    1
   148   272   273   ar
   149   127   130    1
   150   127   126    1
   151   275   273   ar
   152   119   117   ar
   153   249   248   ar
   154   120   118   ar
   155   103   104    2
   156   252   250   ar
   157   115   114    2
   158   271   268    1
   159   236   242    1
   160   236   237    1
   161   269   268    1
   162     2     1    1
   163     2     3    1
   164   242   241    2
   165   268   267    1
   166   126   114   am
   167   239   238    2
   168   114   113    1
   169   248   250   ar
   170   248   247    1
   171   117   118   ar
   172   117   116    1
   173   237   238    1
   174   237   240    1
   175   238   243   am
   176    15     3   am
   177    15    16    1
   178     3     4    2
   179   241   240    1
   180   243   244    1
   181    19    16    1
   182    19    20    1
   183   244   247    1
   184   244   245    1
   185    44    42    1
   186   116   113    1
   187   113   112    1
   188    21    20   ar
   189    21    23   ar
   190    16    17    1
   191    20    22   ar
   192   258   257    2
   193    23    25   ar
   194   262   261    2
   195   255   245   am
   196   255   256    1
   197   245   246    2
   198    42    41    1
   199   266   264    1
   200    22    24   ar
   201    17    26   am
   202    17    18    2
   203   257   256    1
   204   257   259   am
   205    25    24   ar
   206    26    27    1
   207   261   260    1
   208   260   259    1
   209   260   263    1
   210   265   263    1
   211    41    43    1
   212    41    38    1
   213    33    35   ar
   214    33    31   ar
   215    35    36   ar
   216   264   263    1
   217    37    38    1
   218    27    30    1
   219    27    28    1
   220    30    31    1
   221    31    32   ar
   222    36    34   ar
   223    38    39    1
   224    28    29    2
   225    32    34   ar
   226    39    45   am
   227    39    40    2
   228    45    46    1
   229    67    65   ar
   230    67    66   ar
   231    65    63   ar
   232    66    64   ar
   233    46    47    1
   234    63    62   ar
   235    64    62   ar
   236    49    47   am
   237    49    50    1
   238    62    61    1
   239    96    95    2
   240    54    56    1
   241    54    53    1
   242    47    48    2
   243    55    53    1
   244   100    98    1
   245    98    99    1
   246    98    97    1
   247    95    94    1
   248    53    50    1
   249    50    51    1
   250    61    58    1
   251    57    58    1
   252    51    52    2
   253    97    94    1
   254    58    59    1
   255    94    93    1
   256    92    90   ar
   257    92    91   ar
   258    90    88   ar
   259    91    89   ar
   260    74    76   ar
   261    74    73   ar
   262    59    68   am
   263    59    60    2
   264    76    77   ar
   265    68    69    1
   266    88    87   ar
   267    89    87   ar
   268    73    72    1
   269    73    75   ar
   270    77    79   ar
   271    77    75   ar
   272    72    69    1
   273    69    70    1
   274    85    84    2
   275    87    86    1
   276    79    81   ar
   277    75    78   ar
   278    70    71    2
   279    84    83    1
   280    86    83    1
   281    83    82    1
   282    81    80   ar
   283    78    80   ar
