@<TRIPOS>MOLECULE
tmp/3dtbA04.pdb
 133 125 0 0 0
SMALL
GASTEIGER

@<TRIPOS>ATOM
      1  N         51.2760   10.0180   -7.8380 N.3    27  LYS27      -0.1231
      2  CA        50.9060    9.6110   -9.1820 C.3    27  LYS27       0.1693
      3  C         49.4060    9.5300   -9.3480 C.2    27  LYS27       0.2592
      4  O         48.8510    9.9140  -10.3740 O.2    27  LYS27      -0.2718
      5  CB        51.5530    8.2650   -9.5120 C.3    27  LYS27       0.0285
      6  CG        53.0470    8.3820   -9.7780 C.3    27  LYS27       0.0035
      7  CD        53.6950    7.0020   -9.9770 C.3    27  LYS27       0.0206
      8  CE        55.0490    7.1620  -10.6140 C.3    27  LYS27       0.1093
      9  NZ        54.8920    7.6650  -12.0190 N.3    27  LYS27      -0.1314
     10  N         48.7300    9.0400   -8.3180 N.am   28  PHE28      -0.1976
     11  CA        47.2730    8.9310   -8.3440 C.3    28  PHE28       0.1639
     12  C         46.6250   10.3340   -8.3760 C.2    28  PHE28       0.2290
     13  O         45.7170   10.6110   -9.1790 O.2    28  PHE28      -0.2864
     14  CB        46.8260    8.1540   -7.0930 C.3    28  PHE28       0.0560
     15  CG        45.3250    8.0760   -6.9040 C.ar   28  PHE28      -0.0200
     16  CD1       44.4920    7.6020   -7.9060 C.ar   28  PHE28      -0.0042
     17  CD2       44.7230    8.4970   -5.7140 C.ar   28  PHE28      -0.0042
     18  CE1       43.0970    7.5410   -7.7200 C.ar   28  PHE28      -0.0003
     19  CE2       43.3330    8.4340   -5.5350 C.ar   28  PHE28      -0.0003
     20  CZ        42.5150    7.9720   -6.5310 C.ar   28  PHE28      -0.0000
     21  N         47.7280   12.1980  -11.8130 N.3    31  GLY31      -0.1210
     22  CA        47.0670   11.5860  -12.9790 C.3    31  GLY31       0.1956
     23  C         45.6230   12.0070  -13.0870 C.2    31  GLY31       0.2611
     24  O         45.1050   12.3330  -14.1490 O.2    31  GLY31      -0.2717
     25  N         44.9180   11.9610  -11.9600 N.am   32  ASN32      -0.1974
     26  CA        43.5270   12.3810  -11.9700 C.3    32  ASN32       0.1688
     27  C         43.3380   13.8880  -12.0360 C.2    32  ASN32       0.2292
     28  O         42.3200   14.3560  -12.5620 O.2    32  ASN32      -0.2864
     29  CB        42.7680   11.7560  -10.7970 C.3    32  ASN32       0.1181
     30  CG        42.4990   10.3080  -11.0480 C.2    32  ASN32       0.2629
     31  OD1       41.7630    9.9740  -11.9760 O.2    32  ASN32      -0.2716
     32  ND2       43.1970    9.4470  -10.3420 N.am   32  ASN32      -0.0877
     33  N         34.5480   -4.1150  -18.9000 N.3   117  GLU117     -0.1245
     34  CA        35.5810   -3.1000  -18.8860 C.3   117  GLU117      0.1567
     35  C         35.4480   -2.1270  -20.0840 C.2   117  GLU117      0.2260
     36  O         35.6690   -0.9080  -19.9210 O.2   117  GLU117     -0.2867
     37  CB        36.9600   -3.7520  -18.8550 C.3   117  GLU117      0.0388
     38  CG        37.8360   -3.1500  -17.7750 C.3   117  GLU117      0.1160
     39  CD        38.2530   -1.7400  -18.0830 C.2   117  GLU117      0.3649
     40  OE1       39.4080   -1.5640  -18.5190 O.co2 117  GLU117     -0.2457
     41  OE2       37.4340   -0.7940  -17.8750 O.co2 117  GLU117     -0.2457
     42  N         32.6110    0.2620  -19.3360 N.3   120  PHE120     -0.1227
     43  CA        32.9870    1.2070  -18.3130 C.3   120  PHE120      0.1736
     44  C         33.9530    2.2630  -18.8330 C.2   120  PHE120      0.2595
     45  O         33.8260    3.4300  -18.4950 O.2   120  PHE120     -0.2718
     46  CB        33.5550    0.5580  -17.0560 C.3   120  PHE120      0.0547
     47  CG        33.9110    1.5980  -16.0290 C.ar  120  PHE120     -0.0202
     48  CD1       32.9150    2.3010  -15.3740 C.ar  120  PHE120     -0.0042
     49  CD2       35.2200    1.9430  -15.8030 C.ar  120  PHE120     -0.0042
     50  CE1       33.2430    3.3380  -14.4990 C.ar  120  PHE120     -0.0003
     51  CE2       35.5360    2.9620  -14.9240 C.ar  120  PHE120     -0.0003
     52  CZ        34.5530    3.6360  -14.2670 C.ar  120  PHE120     -0.0000
     53  N         34.9130    1.8760  -19.6640 N.am  121  GLU121     -0.1979
     54  CA        35.8190    2.8880  -20.2030 C.3   121  GLU121      0.1602
     55  C         35.0490    3.9780  -20.9690 C.2   121  GLU121      0.2287
     56  O         35.3310    5.1810  -20.8310 O.2   121  GLU121     -0.2864
     57  CB        36.8500    2.2360  -21.1200 C.3   121  GLU121      0.0415
     58  CG        37.7610    3.2480  -21.7910 C.3   121  GLU121      0.1163
     59  CD        39.0610    2.6430  -22.2930 C.2   121  GLU121      0.3649
     60  OE1       40.1300    3.2550  -22.0400 O.co2 121  GLU121     -0.2457
     61  OE2       39.0160    1.5700  -22.9300 O.co2 121  GLU121     -0.2457
     62  N         33.2570    6.1720  -18.3950 N.3   124  PHE124     -0.1227
     63  CA        34.2400    7.0040  -17.7100 C.3   124  PHE124      0.1736
     64  C         34.6420    8.1920  -18.5820 C.2   124  PHE124      0.2595
     65  O         34.6630    9.3390  -18.1150 O.2   124  PHE124     -0.2718
     66  CB        35.4470    6.1190  -17.4030 C.3   124  PHE124      0.0547
     67  CG        36.5570    6.8110  -16.6870 C.ar  124  PHE124     -0.0202
     68  CD1       36.5260    6.9880  -15.3170 C.ar  124  PHE124     -0.0042
     69  CD2       37.6530    7.2810  -17.3970 C.ar  124  PHE124     -0.0042
     70  CE1       37.5780    7.6240  -14.6580 C.ar  124  PHE124     -0.0003
     71  CE2       38.7070    7.9060  -16.7350 C.ar  124  PHE124     -0.0003
     72  CZ        38.6550    8.0780  -15.3680 C.ar  124  PHE124     -0.0000
     73  N         34.8900    7.9200  -19.8620 N.am  125  ASN125     -0.1974
     74  CA        35.3230    8.9680  -20.7870 C.3   125  ASN125      0.1688
     75  C         34.2250    9.9850  -21.0610 C.2   125  ASN125      0.2292
     76  O         34.5190   11.1170  -21.4770 O.2   125  ASN125     -0.2864
     77  CB        35.7630    8.3600  -22.1260 C.3   125  ASN125      0.1181
     78  CG        37.0280    7.5440  -22.0370 C.2   125  ASN125      0.2629
     79  OD1       37.8390    7.6870  -21.1200 O.2   125  ASN125     -0.2716
     80  ND2       37.2350    6.7030  -23.0500 N.am  125  ASN125     -0.0877
     81  N         42.2970    3.2360   -4.2600 N.3   189  LYS189     -0.1245
     82  CA        42.1930    4.4670   -5.0560 C.3   189  LYS189      0.1561
     83  C         40.7420    4.8570   -5.2380 C.2   189  LYS189      0.2260
     84  O         40.0110    4.1590   -5.9210 O.2   189  LYS189     -0.2867
     85  CB        42.8050    4.2290   -6.4330 C.3   189  LYS189      0.0271
     86  CG        44.2630    3.7870   -6.4150 C.3   189  LYS189      0.0035
     87  CD        44.7200    3.4510   -7.8390 C.3   189  LYS189      0.0206
     88  CE        46.1280    2.9250   -7.9320 C.3   189  LYS189      0.1093
     89  NZ        46.4640    2.8620   -9.3810 N.3   189  LYS189     -0.1314
     90  N         37.9620    7.8210   -6.4570 N.3   191  LEU191     -0.1245
     91  CA        37.8010    9.0600   -7.2490 C.3   191  LEU191      0.1561
     92  C         36.3180    9.4020   -7.2660 C.2   191  LEU191      0.2260
     93  O         35.4910    8.5650   -7.6430 O.2   191  LEU191     -0.2867
     94  CB        38.2800    8.7980   -8.6770 C.3   191  LEU191      0.0270
     95  CG        37.9730    9.9220   -9.6610 C.3   191  LEU191      0.0019
     96  CD1       38.6300   11.2660   -9.2870 C.3   191  LEU191      0.0001
     97  CD2       38.4570    9.4520  -11.0220 C.3   191  LEU191      0.0001
     98  N         36.2660   -1.3970   -9.3520 N.3   220  LEU220     -0.1245
     99  CA        37.1850   -2.1360  -10.2210 C.3   220  LEU220      0.1561
    100  C         38.1460   -2.8850   -9.2820 C.2   220  LEU220      0.2260
    101  O         39.2230   -2.3890   -8.8980 O.2   220  LEU220     -0.2867
    102  CB        37.9320   -1.1630  -11.1500 C.3   220  LEU220      0.0270
    103  CG        37.1000   -0.4270  -12.1990 C.3   220  LEU220      0.0019
    104  CD1       36.3690    0.7590  -11.6070 C.3   220  LEU220      0.0001
    105  CD2       37.9810    0.0760  -13.3330 C.3   220  LEU220      0.0001
    106  N         41.9890   -3.7090  -10.0990 N.3   223  ARG223     -0.1245
    107  CA        42.7760   -2.4710  -10.1620 C.3   223  ARG223      0.1563
    108  C         42.7730   -1.7010   -8.8350 C.2   223  ARG223      0.2260
    109  O         43.4860   -0.6930   -8.6990 O.2   223  ARG223     -0.2867
    110  CB        42.2570   -1.5810  -11.2640 C.3   223  ARG223      0.0307
    111  CG        42.7540   -2.0460  -12.6160 C.3   223  ARG223      0.0489
    112  CD        41.9950   -1.3920  -13.7100 C.3   223  ARG223      0.2205
    113  NE        40.7890   -2.1630  -13.8900 N.pl3 223  ARG223     -0.0865
    114  CZ        40.1170   -2.2800  -15.0220 C.cat 223  ARG223      0.5346
    115  NH1       40.5220   -1.6610  -16.1280 N.pl3 223  ARG223      0.1354
    116  NH2       39.0340   -3.0470  -15.0210 N.pl3 223  ARG223      0.1354
    117  N         40.3280    0.1410   -7.5260 N.3   225  GLU225     -0.1245
    118  CA        39.7830    1.4850   -7.8100 C.3   225  GLU225      0.1567
    119  C         38.2830    1.5260   -7.5420 C.2   225  GLU225      0.2260
    120  O         37.5590    0.5720   -7.8270 O.2   225  GLU225     -0.2867
    121  CB        40.0660    1.9050   -9.2600 C.3   225  GLU225      0.0388
    122  CG        41.5320    2.0810   -9.6500 C.3   225  GLU225      0.1160
    123  CD        41.7100    2.3850  -11.1360 C.2   225  GLU225      0.3649
    124  OE1       40.8280    3.0070  -11.7280 O.co2 225  GLU225     -0.2457
    125  OE2       42.7520    2.0230  -11.6960 O.co2 225  GLU225     -0.2457
    126  N         35.2260    4.4180   -8.4200 N.3   227  ILE227     -0.1245
    127  CA        35.0780    5.6120   -9.2480 C.3   227  ILE227      0.1561
    128  C         33.6250    5.9900   -9.2470 C.2   227  ILE227      0.2260
    129  O         32.7980    5.2110   -9.7410 O.2   227  ILE227     -0.2867
    130  CB        35.5700    5.3470  -10.6820 C.3   227  ILE227      0.0252
    131  CG1       37.0640    4.9720  -10.6670 C.3   227  ILE227      0.0019
    132  CG2       35.2860    6.5930  -11.5510 C.3   227  ILE227      0.0019
    133  CD1       37.6180    4.5080  -12.0300 C.3   227  ILE227      0.0001
@<TRIPOS>BOND
     1    80    78   am
     2    61    59   ar
     3    59    60   ar
     4    59    58    1
     5    77    78    1
     6    77    74    1
     7    78    79    2
     8    58    57    1
     9    76    75    2
    10    57    54    1
    11    75    74    1
    12    55    56    2
    13    55    54    1
    14    74    73    1
    15    54    53    1
    16    35    36    2
    17    35    34    1
    18    73    64   am
    19    53    44   am
    20    42    43    1
    21    33    34    1
    22    34    37    1
    23    37    38    1
    24    44    45    2
    25    44    43    1
    26    64    65    2
    27    64    63    1
    28    40    39   ar
    29    62    63    1
    30    43    46    1
    31    39    41   ar
    32    39    38    1
    33    63    66    1
    34    66    67    1
    35    69    71   ar
    36    69    67   ar
    37    46    47    1
    38    71    72   ar
    39    67    68   ar
    40   115   114    1
    41    47    49   ar
    42    47    48   ar
    43    49    51   ar
    44    48    50   ar
    45    72    70   ar
    46    68    70   ar
    47   114   116    1
    48   114   113    2
    49    51    52   ar
    50    50    52   ar
    51    24    23    2
    52   113   112    1
    53   112   111    1
    54   105   103    1
    55    23    22    1
    56    23    25   am
    57    22    21    1
    58   111   110    1
    59    28    27    2
    60   103   104    1
    61   103   102    1
    62    27    26    1
    63   133   131    1
    64     9     8    1
    65    31    30    2
    66    26    25    1
    67    26    29    1
    68   124   123   ar
    69   125   123   ar
    70   132   130    1
    71   110   107    1
    72   102    99    1
    73   123   122    1
    74    30    29    1
    75    30    32   am
    76    97    95    1
    77   130   131    1
    78   130   127    1
    79     8     7    1
    80     4     3    2
    81    99    98    1
    82    99   100    1
    83   107   106    1
    84   107   108    1
    85     7     6    1
    86     6     5    1
    87   129   128    2
    88    95    96    1
    89    95    94    1
    90   122   121    1
    91     5     2    1
    92    89    88    1
    93     3     2    1
    94     3    10   am
    95   100   101    2
    96   121   118    1
    97   127   128    1
    98   127   126    1
    99     2     1    1
   100    13    12    2
   101   108   109    2
   102    94    91    1
   103    12    11    1
   104    11    10    1
   105    11    14    1
   106    88    87    1
   107    16    18   ar
   108    16    15   ar
   109    87    86    1
   110   120   119    2
   111   118   119    1
   112   118   117    1
   113    18    20   ar
   114    93    92    2
   115    92    91    1
   116    91    90    1
   117    14    15    1
   118    15    17   ar
   119    20    19   ar
   120    85    86    1
   121    85    82    1
   122    84    83    2
   123    17    19   ar
   124    83    82    1
   125    82    81    1
