@<TRIPOS>MOLECULE
tmp/3dtgA01.pdb
 106 101 0 0 0
SMALL
GASTEIGER

@<TRIPOS>ATOM
      1  N         17.0580  -26.1740   11.3620 N.3    26  PHE26      -0.1241
      2  CA        16.6660  -24.8170   10.9700 C.3    26  PHE26       0.1605
      3  C         16.8480  -23.8080   12.0990 C.2    26  PHE26       0.2264
      4  O         16.3790  -24.0180   13.2130 O.2    26  PHE26      -0.2867
      5  CB        15.2090  -24.7490   10.4880 C.3    26  PHE26       0.0534
      6  CG        14.7930  -23.3630   10.0490 C.ar   26  PHE26      -0.0203
      7  CD1       15.0470  -22.9210    8.7500 C.ar   26  PHE26      -0.0042
      8  CD2       14.2250  -22.4720   10.9580 C.ar   26  PHE26      -0.0042
      9  CE1       14.7430  -21.6090    8.3660 C.ar   26  PHE26      -0.0003
     10  CE2       13.9180  -21.1650   10.5890 C.ar   26  PHE26      -0.0003
     11  CZ        14.1780  -20.7290    9.2880 C.ar   26  PHE26      -0.0000
     12  N         11.4520   -8.0140   11.5330 N.3    72  PHE72      -0.1241
     13  CA        12.4170   -8.9070   10.9210 C.3    72  PHE72       0.1605
     14  C         12.0380   -9.3250    9.5180 C.2    72  PHE72       0.2264
     15  O         10.9420   -9.0210    9.0240 O.2    72  PHE72      -0.2867
     16  CB        12.6090  -10.1640   11.7750 C.3    72  PHE72       0.0534
     17  CG        11.4360  -11.0950   11.7490 C.ar   72  PHE72      -0.0203
     18  CD1       10.3220  -10.8590   12.5510 C.ar   72  PHE72      -0.0042
     19  CD2       11.4380  -12.2060   10.9140 C.ar   72  PHE72      -0.0042
     20  CE1        9.2220  -11.7230   12.5250 C.ar   72  PHE72      -0.0003
     21  CE2       10.3430  -13.0720   10.8810 C.ar   72  PHE72      -0.0003
     22  CZ         9.2350  -12.8270   11.6900 C.ar   72  PHE72      -0.0000
     23  N         13.1180  -12.6040    6.3440 N.3    74  GLY74      -0.1225
     24  CA        13.6180  -13.9480    6.1710 C.3    74  GLY74       0.1811
     25  C         13.7160  -14.2800    4.7040 C.2    74  GLY74       0.2280
     26  O         12.7050  -14.2820    3.9960 O.2    74  GLY74      -0.2866
     27  N         19.8650  -19.5950    5.3340 N.3   139  TYR139     -0.1241
     28  CA        18.7930  -18.6890    5.7200 C.3   139  TYR139      0.1605
     29  C         19.3780  -17.3810    6.2270 C.2   139  TYR139      0.2264
     30  O         20.2400  -17.3790    7.0990 O.2   139  TYR139     -0.2867
     31  CB        17.9370  -19.3230    6.8140 C.3   139  TYR139      0.0534
     32  CG        16.7330  -18.4990    7.2170 C.ar  139  TYR139     -0.0201
     33  CD1       15.6400  -18.3630    6.3600 C.ar  139  TYR139     -0.0009
     34  CD2       16.6710  -17.8860    8.4720 C.ar  139  TYR139     -0.0009
     35  CE1       14.5140  -17.6470    6.7430 C.ar  139  TYR139      0.0417
     36  CE2       15.5460  -17.1650    8.8660 C.ar  139  TYR139      0.0417
     37  CZ        14.4710  -17.0530    8.0000 C.ar  139  TYR139      0.1957
     38  OH        13.3400  -16.3740    8.3960 O.3   139  TYR139     -0.2866
     39  N         18.6820  -13.8150    8.1090 N.3   141  ARG141     -0.1245
     40  CA        17.7350  -13.1730    9.0050 C.3   141  ARG141      0.1563
     41  C         18.1160  -11.7340    9.3130 C.2   141  ARG141      0.2260
     42  O         18.9490  -11.4690   10.1920 O.2   141  ARG141     -0.2867
     43  CB        17.6140  -13.9790   10.3160 C.3   141  ARG141      0.0307
     44  CG        16.9170  -13.2540   11.4840 C.3   141  ARG141      0.0489
     45  CD        15.4940  -12.7970   11.1340 C.3   141  ARG141      0.2205
     46  NE        14.6280  -13.9110   10.7500 N.pl3 141  ARG141     -0.0865
     47  CZ        13.9420  -14.6770   11.5990 C.cat 141  ARG141      0.5346
     48  NH1       14.0010  -14.4620   12.9040 N.pl3 141  ARG141      0.1354
     49  NH2       13.1870  -15.6690   11.1360 N.pl3 141  ARG141      0.1354
     50  N         12.4130  -26.7580    7.4920 N.3   171  TYR171     -0.1241
     51  CA        11.7610  -26.1120    8.6270 C.3   171  TYR171      0.1605
     52  C         10.8370  -27.0720    9.3650 C.2   171  TYR171      0.2264
     53  O         10.9480  -27.2470   10.5800 O.2   171  TYR171     -0.2867
     54  CB        10.9650  -24.8850    8.1750 C.3   171  TYR171      0.0534
     55  CG        10.3830  -24.1000    9.3300 C.ar  171  TYR171     -0.0201
     56  CD1       11.2020  -23.6330   10.3540 C.ar  171  TYR171     -0.0009
     57  CD2        9.0150  -23.8380    9.4090 C.ar  171  TYR171     -0.0009
     58  CE1       10.6800  -22.9240   11.4330 C.ar  171  TYR171      0.0417
     59  CE2        8.4770  -23.1270   10.4870 C.ar  171  TYR171      0.0417
     60  CZ         9.3190  -22.6740   11.4950 C.ar  171  TYR171      0.1957
     61  OH         8.8130  -21.9600   12.5600 O.3   171  TYR171     -0.2866
     62  N          5.9620   -7.8600    9.4470 N.3   199  LYS199     -0.1245
     63  CA         6.7390   -8.9910    9.9490 C.3   199  LYS199      0.1561
     64  C          7.2980   -8.4240   11.2420 C.2   199  LYS199      0.2260
     65  O          8.4140   -7.9000   11.2900 O.2   199  LYS199     -0.2867
     66  CB         7.8550   -9.3450    8.9830 C.3   199  LYS199      0.0271
     67  CG         8.1330  -10.8240    8.9420 C.3   199  LYS199      0.0035
     68  CD         8.7290  -11.2300    7.6050 C.3   199  LYS199      0.0206
     69  CE         8.5800  -12.7180    7.3950 C.3   199  LYS199      0.1093
     70  NZ         7.2220  -13.0060    7.3450 N.3   199  LYS199     -0.1314
     71  N          4.1090  -12.9490   16.5360 N.3   204  TYR204     -0.1241
     72  CA         4.4390  -14.3310   16.8630 C.3   204  TYR204      0.1605
     73  C          4.3220  -14.6920   18.3330 C.2   204  TYR204      0.2264
     74  O          3.8520  -15.7790   18.6660 O.2   204  TYR204     -0.2867
     75  CB         5.8290  -14.6780   16.3240 C.3   204  TYR204      0.0534
     76  CG         5.8270  -14.8280   14.8220 C.ar  204  TYR204     -0.0201
     77  CD1        5.9700  -13.7180   13.9810 C.ar  204  TYR204     -0.0009
     78  CD2        5.5890  -16.0700   14.2380 C.ar  204  TYR204     -0.0009
     79  CE1        5.8670  -13.8530   12.5850 C.ar  204  TYR204      0.0417
     80  CE2        5.4850  -16.2140   12.8570 C.ar  204  TYR204      0.0417
     81  CZ         5.6220  -15.1100   12.0400 C.ar  204  TYR204      0.1957
     82  OH         5.4990  -15.2820   10.6820 O.3   204  TYR204     -0.2866
     83  N          2.6470  -18.9820   10.3490 N.3   238  GLY238     -0.1210
     84  CA         3.1680  -17.8270    9.6390 C.3   238  GLY238      0.1956
     85  C          3.3880  -18.1590    8.1690 C.2   238  GLY238      0.2611
     86  O          4.4280  -17.8200    7.5980 O.2   238  GLY238     -0.2717
     87  N          2.4140  -18.8350    7.5590 N.am  239  MET239     -0.1979
     88  CA         2.4910  -19.2160    6.1480 C.3   239  MET239      0.1605
     89  C          1.1610  -18.9730    5.4390 C.2   239  MET239      0.2287
     90  O          0.0920  -19.1570    6.0230 O.2   239  MET239     -0.2864
     91  CB         2.8650  -20.7020    6.0070 C.3   239  MET239      0.0413
     92  CG         4.2820  -21.0640    6.4520 C.3   239  MET239      0.0598
     93  SD         4.5770  -22.8590    6.4710 S.3   239  MET239     -0.1393
     94  CE         4.8930  -23.1690    4.7620 C.3   239  MET239      0.0692
     95  N          8.9060  -18.7700    2.9990 N.3   309  THR309     -0.1203
     96  CA        10.3300  -18.8940    2.7110 C.3   309  THR309      0.1994
     97  C         10.9920  -20.1540    3.2760 C.2   309  THR309      0.2617
     98  O         11.6080  -20.9200    2.5350 O.2   309  THR309     -0.2717
     99  CB        11.0910  -17.6590    3.2310 C.3   309  THR309      0.1784
    100  OG1       10.7510  -16.5210    2.4320 O.3   309  THR309     -0.2211
    101  CG2       12.5970  -17.8900    3.1790 C.3   309  THR309      0.0376
    102  N         10.8500  -20.3730    4.5780 N.am  310  ALA310     -0.1979
    103  CA        11.4780  -21.5190    5.2400 C.3   310  ALA310      0.1597
    104  C         11.1680  -22.8990    4.6590 C.2   310  ALA310      0.2287
    105  O         12.0770  -23.6200    4.2440 O.2   310  ALA310     -0.2864
    106  CB        11.1480  -21.4990    6.7410 C.3   310  ALA310      0.0319
@<TRIPOS>BOND
     1   100    99    1
     2    98    97    2
     3    96    95    1
     4    96    99    1
     5    96    97    1
     6   101    99    1
     7    97   102   am
     8    26    25    2
     9   105   104    2
    10   102   103    1
    11   104   103    1
    12    25    24    1
    13    94    93    1
    14   103   106    1
    15    27    28    1
    16    89    90    2
    17    89    88    1
    18    28    29    1
    19    28    31    1
    20    91    88    1
    21    91    92    1
    22    88    87    1
    23    24    23    1
    24    29    30    2
    25    33    35   ar
    26    33    32   ar
    27    92    93    1
    28    35    37   ar
    29    31    32    1
    30    32    34   ar
    31    70    69    1
    32    69    68    1
    33    50    51    1
    34    87    85   am
    35    86    85    2
    36    68    67    1
    37    37    38    1
    38    37    36   ar
    39    39    40    1
    40    85    84    1
    41    54    51    1
    42    54    55    1
    43     9     7   ar
    44     9    11   ar
    45    34    36   ar
    46    51    52    1
    47     7     6   ar
    48    67    66    1
    49    66    63    1
    50    40    41    1
    51    40    43    1
    52    15    14    2
    53    11    10   ar
    54    41    42    2
    55    55    57   ar
    56    55    56   ar
    57    52    53    2
    58    57    59   ar
    59    62    63    1
    60    14    13    1
    61    84    83    1
    62    63    64    1
    63     6     5    1
    64     6     8   ar
    65    43    44    1
    66    56    58   ar
    67    59    60   ar
    68     5     2    1
    69    10     8   ar
    70    82    81    1
    71    46    45    1
    72    46    47    2
    73    21    19   ar
    74    21    22   ar
    75    19    17   ar
    76    13    12    1
    77    13    16    1
    78     2     1    1
    79     2     3    1
    80    45    44    1
    81    49    47    1
    82    64    65    2
    83    58    60   ar
    84    60    61    1
    85    47    48    1
    86    22    20   ar
    87    17    16    1
    88    17    18   ar
    89    81    79   ar
    90    81    80   ar
    91     3     4    2
    92    20    18   ar
    93    79    77   ar
    94    80    78   ar
    95    77    76   ar
    96    78    76   ar
    97    76    75    1
    98    75    72    1
    99    71    72    1
   100    72    73    1
   101    73    74    2
