@<TRIPOS>MOLECULE
tmp/3dtuC12.pdb
 100 95 0 0 0
SMALL
GASTEIGER

@<TRIPOS>ATOM
      1  N        -52.6510  -38.3950  -79.8230 N.3    30  ALA30      -0.1231
      2  CA       -53.2540  -38.3330  -81.1590 C.3    30  ALA30       0.1694
      3  C        -54.6640  -37.6990  -81.0840 C.2    30  ALA30       0.2592
      4  O        -55.0090  -36.8820  -81.9320 O.2    30  ALA30      -0.2718
      5  CB       -53.2890  -39.7080  -81.8090 C.3    30  ALA30       0.0304
      6  N        -55.4410  -38.0610  -80.0540 N.am   31  PHE31      -0.1976
      7  CA       -56.7210  -37.3940  -79.7290 C.3    31  PHE31       0.1639
      8  C        -56.5600  -35.8790  -79.6300 C.2    31  PHE31       0.2290
      9  O        -57.3590  -35.1420  -80.2070 O.2    31  PHE31      -0.2864
     10  CB       -57.3360  -37.9240  -78.4180 C.3    31  PHE31       0.0560
     11  CG       -57.8190  -39.3660  -78.4850 C.ar   31  PHE31      -0.0200
     12  CD1      -57.5650  -40.1670  -79.5920 C.ar   31  PHE31      -0.0042
     13  CD2      -58.4970  -39.9230  -77.4120 C.ar   31  PHE31      -0.0042
     14  CE1      -58.0070  -41.4840  -79.6410 C.ar   31  PHE31      -0.0003
     15  CE2      -58.9320  -41.2410  -77.4410 C.ar   31  PHE31      -0.0003
     16  CZ       -58.6850  -42.0260  -78.5620 C.ar   31  PHE31      -0.0000
     17  N        -56.1240  -34.1060  -83.0250 N.3    34  TYR34      -0.1241
     18  CA       -57.4420  -33.9560  -83.6140 C.3    34  TYR34       0.1605
     19  C        -58.2750  -32.8620  -82.9330 C.2    34  TYR34       0.2264
     20  O        -58.9360  -32.0640  -83.6170 O.2    34  TYR34      -0.2867
     21  CB       -58.2110  -35.2770  -83.5650 C.3    34  TYR34       0.0534
     22  CG       -59.4430  -35.2670  -84.4540 C.ar   34  TYR34      -0.0201
     23  CD1      -59.3910  -34.7250  -85.7480 C.ar   34  TYR34      -0.0009
     24  CD2      -60.6540  -35.8080  -84.0120 C.ar   34  TYR34      -0.0009
     25  CE1      -60.5170  -34.7140  -86.5690 C.ar   34  TYR34       0.0417
     26  CE2      -61.7760  -35.8130  -84.8330 C.ar   34  TYR34       0.0417
     27  CZ       -61.7010  -35.2610  -86.1080 C.ar   34  TYR34       0.1957
     28  OH       -62.8170  -35.2630  -86.9240 O.3    34  TYR34      -0.2866
     29  N        -70.9810  -39.4700  -89.8100 N.3    52  LEU52      -0.1245
     30  CA       -71.6440  -40.6110  -89.1630 C.3    52  LEU52       0.1561
     31  C        -72.3550  -41.5210  -90.1710 C.2    52  LEU52       0.2260
     32  O        -72.4280  -42.7360  -89.9690 O.2    52  LEU52      -0.2867
     33  CB       -72.6570  -40.1350  -88.1110 C.3    52  LEU52       0.0270
     34  CG       -72.1700  -39.3450  -86.8890 C.3    52  LEU52       0.0019
     35  CD1      -73.3340  -38.7400  -86.1080 C.3    52  LEU52       0.0001
     36  CD2      -71.3150  -40.2180  -85.9800 C.3    52  LEU52       0.0001
     37  N        -67.6670  -46.8260  -90.2590 N.3    56  LEU56      -0.1245
     38  CA       -66.7500  -46.5100  -89.1650 C.3    56  LEU56       0.1561
     39  C        -65.3760  -46.1140  -89.7220 C.2    56  LEU56       0.2260
     40  O        -64.7810  -45.1180  -89.2930 O.2    56  LEU56      -0.2867
     41  CB       -66.6330  -47.7060  -88.2130 C.3    56  LEU56       0.0270
     42  CG       -65.8550  -47.5350  -86.9030 C.3    56  LEU56       0.0019
     43  CD1      -66.5250  -46.5180  -85.9680 C.3    56  LEU56       0.0001
     44  CD2      -65.6930  -48.8880  -86.2070 C.3    56  LEU56       0.0001
     45  N        -65.7280  -43.0690  -92.4340 N.3    59  GLY59      -0.1210
     46  CA       -66.1460  -41.9520  -91.5870 C.3    59  GLY59       0.1956
     47  C        -64.9780  -41.3670  -90.8140 C.2    59  GLY59       0.2611
     48  O        -64.9000  -40.1490  -90.6240 O.2    59  GLY59      -0.2717
     49  N        -64.0700  -42.2480  -90.3850 N.am   60  PHE60      -0.1976
     50  CA       -62.8260  -41.8630  -89.7180 C.3    60  PHE60       0.1639
     51  C        -61.9150  -41.0020  -90.6050 C.2    60  PHE60       0.2290
     52  O        -61.4050  -39.9770  -90.1450 O.2    60  PHE60      -0.2864
     53  CB       -62.0800  -43.1140  -89.2110 C.3    60  PHE60       0.0560
     54  CG       -60.6570  -42.8510  -88.7770 C.ar   60  PHE60      -0.0200
     55  CD1      -60.3620  -42.5650  -87.4480 C.ar   60  PHE60      -0.0042
     56  CD2      -59.6110  -42.8990  -89.6970 C.ar   60  PHE60      -0.0042
     57  CE1      -59.0480  -42.3190  -87.0440 C.ar   60  PHE60      -0.0003
     58  CE2      -58.2950  -42.6540  -89.2990 C.ar   60  PHE60      -0.0003
     59  CZ       -58.0170  -42.3600  -87.9680 C.ar   60  PHE60      -0.0000
     60  N        -63.2650  -37.5650  -91.5340 N.3    63  SER63      -0.1202
     61  CA       -63.1680  -36.7690  -90.3010 C.3    63  SER63       0.2020
     62  C        -61.8660  -35.9920  -90.1690 C.2    63  SER63       0.2618
     63  O        -61.8200  -34.9820  -89.4600 O.2    63  SER63      -0.2717
     64  CB       -63.3480  -37.6600  -89.0690 C.3    63  SER63       0.2103
     65  OG       -64.7180  -37.8430  -88.7620 O.3    63  SER63      -0.2182
     66  N        -60.8220  -36.4540  -90.8540 N.am   64  LEU64      -0.1979
     67  CA       -59.5000  -35.8550  -90.7310 C.3    64  LEU64       0.1596
     68  C        -59.2820  -34.7230  -91.7220 C.2    64  LEU64       0.2287
     69  O        -58.3070  -33.9680  -91.6260 O.2    64  LEU64      -0.2864
     70  CB       -58.4080  -36.9230  -90.8630 C.3    64  LEU64       0.0297
     71  CG       -58.4570  -38.1120  -89.8920 C.3    64  LEU64       0.0022
     72  CD1      -57.3670  -39.1240  -90.2300 C.3    64  LEU64       0.0001
     73  CD2      -58.3480  -37.6770  -88.4220 C.3    64  LEU64       0.0001
     74  N        -69.1060  -35.9270  -80.5650 N.3    78  LEU78      -0.1245
     75  CA       -67.7500  -36.3580  -80.9100 C.3    78  LEU78       0.1561
     76  C        -66.6820  -35.5720  -80.1300 C.2    78  LEU78       0.2260
     77  O        -65.7260  -36.1640  -79.6350 O.2    78  LEU78      -0.2867
     78  CB       -67.4840  -36.2900  -82.4290 C.3    78  LEU78       0.0270
     79  CG       -66.1300  -36.8680  -82.8930 C.3    78  LEU78       0.0019
     80  CD1      -65.9230  -38.3370  -82.4260 C.3    78  LEU78       0.0001
     81  CD2      -65.9460  -36.7470  -84.4180 C.3    78  LEU78       0.0001
     82  N        -63.9900  -37.3190  -77.5460 N.3    82  MET82      -0.1245
     83  CA       -62.5390  -37.1400  -77.6970 C.3    82  MET82       0.1570
     84  C        -61.8790  -36.6030  -76.4110 C.2    82  MET82       0.2261
     85  O        -60.8230  -37.0750  -75.9960 O.2    82  MET82      -0.2867
     86  CB       -62.2000  -36.2200  -78.8710 C.3    82  MET82       0.0387
     87  CG       -62.6190  -36.7410  -80.2620 C.3    82  MET82       0.0595
     88  SD       -62.0420  -38.4120  -80.6690 S.3    82  MET82      -0.1393
     89  CE       -60.2840  -38.0880  -80.8430 C.3    82  MET82       0.0692
     90  N        -66.1360  -47.2370  -78.6730 N.3   142  PHE142     -0.1241
     91  CA       -66.8040  -47.9110  -79.7830 C.3   142  PHE142      0.1605
     92  C        -68.1170  -48.5750  -79.3750 C.2   142  PHE142      0.2264
     93  O        -68.7460  -49.2510  -80.1930 O.2   142  PHE142     -0.2867
     94  CB       -65.8510  -48.9290  -80.4320 C.3   142  PHE142      0.0534
     95  CG       -64.5820  -48.3110  -80.9640 C.ar  142  PHE142     -0.0203
     96  CD1      -64.5540  -47.7170  -82.2220 C.ar  142  PHE142     -0.0042
     97  CD2      -63.4180  -48.3090  -80.1970 C.ar  142  PHE142     -0.0042
     98  CE1      -63.3810  -47.1370  -82.7150 C.ar  142  PHE142     -0.0003
     99  CE2      -62.2450  -47.7320  -80.6740 C.ar  142  PHE142     -0.0003
    100  CZ       -62.2190  -47.1460  -81.9340 C.ar  142  PHE142     -0.0000
@<TRIPOS>BOND
     1    45    46    1
     2    68    69    2
     3    68    67    1
     4    46    47    1
     5    60    61    1
     6    70    67    1
     7    70    71    1
     8    66    67    1
     9    66    62   am
    10    47    48    2
    11    47    49   am
    12    51    52    2
    13    51    50    1
    14    49    50    1
    15    61    62    1
    16    61    64    1
    17    37    38    1
    18    72    71    1
    19    31    32    2
    20    31    30    1
    21    62    63    2
    22    71    73    1
    23    29    30    1
    24    39    40    2
    25    39    38    1
    26    50    53    1
    27    56    58   ar
    28    56    54   ar
    29    58    59   ar
    30    53    54    1
    31    38    41    1
    32    30    33    1
    33    64    65    1
    34    54    55   ar
    35    41    42    1
    36    33    34    1
    37    59    57   ar
    38    55    57   ar
    39    28    27    1
    40    42    44    1
    41    42    43    1
    42    34    35    1
    43    34    36    1
    44    25    27   ar
    45    25    23   ar
    46    27    26   ar
    47    23    22   ar
    48    26    24   ar
    49    22    24   ar
    50    22    21    1
    51    81    79    1
    52    20    19    2
    53    18    21    1
    54    18    17    1
    55    18    19    1
    56    79    78    1
    57    79    80    1
    58    98    96   ar
    59    98   100   ar
    60    78    75    1
    61    96    95   ar
    62   100    99   ar
    63     4     3    2
    64     5     2    1
    65     2     3    1
    66     2     1    1
    67     3     6   am
    68    95    94    1
    69    95    97   ar
    70    75    74    1
    71    75    76    1
    72    89    88    1
    73    99    97   ar
    74    88    87    1
    75    94    91    1
    76    87    86    1
    77     9     8    2
    78    93    92    2
    79    76    77    2
    80     6     7    1
    81    91    92    1
    82    91    90    1
    83     7     8    1
    84     7    10    1
    85    14    12   ar
    86    14    16   ar
    87    12    11   ar
    88    86    83    1
    89    16    15   ar
    90    11    10    1
    91    11    13   ar
    92    83    82    1
    93    83    84    1
    94    15    13   ar
    95    84    85    2
