@<TRIPOS>MOLECULE
tmp/3dtuB05.pdb
 80 78 0 0 0
SMALL
GASTEIGER

@<TRIPOS>ATOM
      1  N         -1.1800  -26.7930   -0.4960 N.3    39  ALA39      -0.1231
      2  CA        -0.4890  -26.1830    0.6320 C.3    39  ALA39       0.1694
      3  C          0.9170  -25.7450    0.2200 C.2    39  ALA39       0.2591
      4  O          1.2800  -24.5850    0.4030 O.2    39  ALA39      -0.2718
      5  CB        -0.4350  -27.1410    1.8110 C.3    39  ALA39       0.0304
      6  N          1.6820  -26.6750   -0.3560 N.am   40  ILE40      -0.1980
      7  CA         3.0260  -26.4040   -0.8780 C.3    40  ILE40       0.1595
      8  C          3.0530  -25.2220   -1.8680 C.2    40  ILE40       0.2287
      9  O          3.8490  -24.2920   -1.7140 O.2    40  ILE40      -0.2864
     10  CB         3.6460  -27.6660   -1.5280 C.3    40  ILE40       0.0276
     11  CG1        3.9400  -28.7310   -0.4580 C.3    40  ILE40       0.0022
     12  CG2        4.9060  -27.3060   -2.3400 C.3    40  ILE40       0.0022
     13  CD1        4.2030  -30.1350   -1.0070 C.3    40  ILE40       0.0001
     14  N          2.2010  -21.9800   -0.1690 N.3    43  PHE43      -0.1227
     15  CA         3.3810  -21.6480    0.6150 C.3    43  PHE43       0.1736
     16  C          4.4570  -20.9800   -0.2520 C.2    43  PHE43       0.2595
     17  O          4.9220  -19.8830    0.0620 O.2    43  PHE43      -0.2718
     18  CB         3.9250  -22.9140    1.2800 C.3    43  PHE43       0.0547
     19  CG         5.1460  -22.6960    2.1290 C.ar   43  PHE43      -0.0202
     20  CD1        6.3510  -23.3170    1.7990 C.ar   43  PHE43      -0.0042
     21  CD2        5.0900  -21.8960    3.2730 C.ar   43  PHE43      -0.0042
     22  CE1        7.4880  -23.1390    2.5850 C.ar   43  PHE43      -0.0003
     23  CE2        6.2250  -21.7070    4.0650 C.ar   43  PHE43      -0.0003
     24  CZ         7.4230  -22.3340    3.7230 C.ar   43  PHE43      -0.0000
     25  N          4.8320  -21.6380   -1.3490 N.am   44  VAL44      -0.1980
     26  CA         5.8340  -21.0980   -2.2620 C.3    44  VAL44       0.1595
     27  C          5.4090  -19.7410   -2.8350 C.2    44  VAL44       0.2287
     28  O          6.2260  -18.8230   -2.9100 O.2    44  VAL44      -0.2864
     29  CB         6.1890  -22.0980   -3.3770 C.3    44  VAL44       0.0276
     30  CG1        6.9860  -21.4290   -4.4910 C.3    44  VAL44       0.0022
     31  CG2        6.9650  -23.2760   -2.7970 C.3    44  VAL44       0.0022
     32  N         18.1230  -23.9530    8.0250 N.3    72  LEU72      -0.1245
     33  CA        17.0730  -23.8580    7.0200 C.3    72  LEU72       0.1561
     34  C         17.2980  -24.8100    5.8450 C.2    72  LEU72       0.2260
     35  O         16.3600  -25.4630    5.3870 O.2    72  LEU72      -0.2867
     36  CB        16.9390  -22.4210    6.5240 C.3    72  LEU72       0.0270
     37  CG        15.6420  -22.0800    5.7990 C.3    72  LEU72       0.0019
     38  CD1       14.4310  -22.3030    6.7010 C.3    72  LEU72       0.0001
     39  CD2       15.7040  -20.6430    5.3230 C.3    72  LEU72       0.0001
     40  N         16.3480  -28.2520    6.9480 N.3    75  ALA75      -0.1231
     41  CA        14.9040  -28.3480    7.0970 C.3    75  ALA75       0.1694
     42  C         14.1860  -28.4670    5.7450 C.2    75  ALA75       0.2592
     43  O         13.2230  -29.2210    5.6110 O.2    75  ALA75      -0.2718
     44  CB        14.3750  -27.1630    7.8860 C.3    75  ALA75       0.0304
     45  N         14.6680  -27.7440    4.7400 N.am   76  TRP76      -0.1976
     46  CA        13.9970  -27.7560    3.4480 C.3    76  TRP76       0.1640
     47  C         14.4600  -28.8980    2.5340 C.2    76  TRP76       0.2290
     48  O         14.0220  -29.0070    1.3920 O.2    76  TRP76      -0.2864
     49  CB        14.0150  -26.3720    2.7790 C.3    76  TRP76       0.0576
     50  CG        15.2920  -25.9270    2.1060 C.ar   76  TRP76       0.0006
     51  CD1       16.2350  -26.7080    1.4890 C.ar   76  TRP76       0.0946
     52  CD2       15.7220  -24.5740    1.9310 C.ar   76  TRP76       0.0152
     53  NE1       17.2350  -25.9210    0.9680 N.ar   76  TRP76      -0.2442
     54  CE2       16.9360  -24.6070    1.2170 C.ar   76  TRP76       0.0810
     55  CE3       15.1920  -23.3330    2.3100 C.ar   76  TRP76       0.0012
     56  CZ2       17.6340  -23.4470    0.8810 C.ar   76  TRP76       0.0191
     57  CZ3       15.8800  -22.1850    1.9770 C.ar   76  TRP76       0.0001
     58  CH2       17.0880  -22.2480    1.2710 C.ar   76  TRP76       0.0015
     59  N         12.0680  -31.8900    5.2280 N.3    79  VAL79      -0.1231
     60  CA        10.6120  -31.7760    5.2030 C.3    79  VAL79       0.1678
     61  C          9.9930  -32.3200    3.8890 C.2    79  VAL79       0.2434
     62  O          9.0320  -33.0950    3.9480 O.2    79  VAL79      -0.2733
     63  CB        10.1280  -30.3450    5.5550 C.3    79  VAL79       0.0265
     64  CG1        8.6550  -30.1570    5.2220 C.3    79  VAL79       0.0020
     65  CG2       10.3700  -30.0560    7.0330 C.3    79  VAL79       0.0020
     66  N         10.5400  -31.9310    2.7120 N.am   80  PRO80      -0.2729
     67  CA        10.0750  -32.5610    1.4760 C.3    80  PRO80       0.1401
     68  C         10.2060  -34.0820    1.4910 C.2    80  PRO80       0.2269
     69  O          9.3330  -34.7600    0.9540 O.2    80  PRO80      -0.2865
     70  CB        10.9920  -31.9530    0.4110 C.3    80  PRO80       0.0296
     71  CG        11.3130  -30.6110    0.9580 C.3    80  PRO80       0.0237
     72  CD        11.5470  -30.8940    2.4190 C.3    80  PRO80       0.0939
     73  N          7.1910  -35.4830    3.6970 N.3    83  ILE83      -0.1245
     74  CA         5.9690  -35.3740    2.8900 C.3    83  ILE83       0.1561
     75  C          5.8820  -36.4690    1.8130 C.2    83  ILE83       0.2260
     76  O          4.8640  -37.1440    1.6880 O.2    83  ILE83      -0.2867
     77  CB         5.8420  -33.9610    2.2430 C.3    83  ILE83       0.0252
     78  CG1        5.6950  -32.8830    3.3300 C.3    83  ILE83       0.0019
     79  CG2        4.6630  -33.9100    1.2900 C.3    83  ILE83       0.0019
     80  CD1        5.9200  -31.4340    2.8390 C.3    83  ILE83       0.0001
@<TRIPOS>BOND
     1    30    29    1
     2    29    31    1
     3    29    26    1
     4    28    27    2
     5    27    26    1
     6    12    10    1
     7    26    25    1
     8     8     9    2
     9     8     7    1
    10    10     7    1
    11    10    11    1
    12    25    16   am
    13    13    11    1
    14     7     6    1
    15     1     2    1
    16     6     3   am
    17    16    17    2
    18    16    15    1
    19    14    15    1
    20     3     4    2
    21     3     2    1
    22    70    71    1
    23    70    67    1
    24    15    18    1
    25     2     5    1
    26    56    54   ar
    27    56    58   ar
    28    69    68    2
    29    71    72    1
    30    53    54   ar
    31    53    51   ar
    32    54    52   ar
    33    58    57   ar
    34    18    19    1
    35    79    77    1
    36    48    47    2
    37    67    68    1
    38    67    66    1
    39    51    50   ar
    40    76    75    2
    41    20    19   ar
    42    20    22   ar
    43    75    74    1
    44    52    50   ar
    45    52    55   ar
    46    57    55   ar
    47    50    49    1
    48    19    21   ar
    49    77    74    1
    50    77    78    1
    51    72    66    1
    52    47    46    1
    53    22    24   ar
    54    66    61   am
    55    49    46    1
    56    80    78    1
    57    74    73    1
    58    21    23   ar
    59    46    45    1
    60    24    23   ar
    61    61    62    2
    62    61    60    1
    63    45    42   am
    64    60    59    1
    65    60    63    1
    66    64    63    1
    67    39    37    1
    68    35    34    2
    69    63    65    1
    70    43    42    2
    71    42    41    1
    72    37    36    1
    73    37    38    1
    74    34    33    1
    75    36    33    1
    76    40    41    1
    77    33    32    1
    78    41    44    1
