@<TRIPOS>MOLECULE
tmp/3dtuD06.pdb
 80 78 0 0 0
SMALL
GASTEIGER

@<TRIPOS>ATOM
      1  N        -43.4240  -12.0470  -60.0710 N.3    40  ALA40      -0.1231
      2  CA       -42.1770  -11.7770  -59.3460 C.3    40  ALA40       0.1694
      3  C        -41.5230  -13.1000  -58.9300 C.2    40  ALA40       0.2591
      4  O        -40.3320  -13.3020  -59.1520 O.2    40  ALA40      -0.2718
      5  CB       -42.4330  -10.8940  -58.1460 C.3    40  ALA40       0.0304
      6  N        -42.3230  -14.0180  -58.3860 N.am   41  ILE41      -0.1980
      7  CA       -41.8290  -15.3250  -57.9310 C.3    41  ILE41       0.1595
      8  C        -41.2540  -16.1490  -59.0800 C.2    41  ILE41       0.2287
      9  O        -40.1740  -16.7310  -58.9540 O.2    41  ILE41      -0.2864
     10  CB       -42.9390  -16.1270  -57.1920 C.3    41  ILE41       0.0276
     11  CG1      -43.2210  -15.4930  -55.8180 C.3    41  ILE41       0.0022
     12  CG2      -42.5600  -17.6300  -57.0750 C.3    41  ILE41       0.0022
     13  CD1      -44.5420  -15.9120  -55.1700 C.3    41  ILE41       0.0001
     14  N        -38.0480  -14.5880  -60.3560 N.3    44  PHE44      -0.1227
     15  CA       -37.0180  -14.8760  -59.3660 C.3    44  PHE44       0.1736
     16  C        -36.4630  -16.3010  -59.5330 C.2    44  PHE44       0.2595
     17  O        -35.2510  -16.4900  -59.6690 O.2    44  PHE44      -0.2718
     18  CB       -37.5910  -14.6420  -57.9690 C.3    44  PHE44       0.0547
     19  CG       -36.6430  -14.9380  -56.8460 C.ar   44  PHE44      -0.0202
     20  CD1      -36.9080  -15.9850  -55.9590 C.ar   44  PHE44      -0.0042
     21  CD2      -35.5100  -14.1550  -56.6400 C.ar   44  PHE44      -0.0042
     22  CE1      -36.0470  -16.2580  -54.8860 C.ar   44  PHE44      -0.0003
     23  CE2      -34.6410  -14.4200  -55.5790 C.ar   44  PHE44      -0.0003
     24  CZ       -34.9090  -15.4710  -54.6990 C.ar   44  PHE44      -0.0000
     25  N        -37.3600  -17.2910  -59.5710 N.am   45  VAL45      -0.1980
     26  CA       -36.9880  -18.6940  -59.7630 C.3    45  VAL45       0.1595
     27  C        -36.2210  -18.8950  -61.0660 C.2    45  VAL45       0.2287
     28  O        -35.1800  -19.5530  -61.0880 O.2    45  VAL45      -0.2864
     29  CB       -38.2400  -19.6290  -59.6970 C.3    45  VAL45       0.0276
     30  CG1      -37.9400  -21.0240  -60.2510 C.3    45  VAL45       0.0022
     31  CG2      -38.7760  -19.7090  -58.2600 C.3    45  VAL45       0.0022
     32  N        -31.0080  -19.8550  -44.2430 N.3    73  LEU73      -0.1245
     33  CA       -31.6590  -19.8230  -45.5490 C.3    73  LEU73       0.1561
     34  C        -32.9100  -20.7060  -45.5690 C.2    73  LEU73       0.2260
     35  O        -33.9600  -20.2840  -46.0430 O.2    73  LEU73      -0.2867
     36  CB       -30.6920  -20.2550  -46.6520 C.3    73  LEU73       0.0270
     37  CG       -31.2170  -20.2540  -48.1000 C.3    73  LEU73       0.0019
     38  CD1      -31.5730  -18.8560  -48.5990 C.3    73  LEU73       0.0001
     39  CD2      -30.1940  -20.8830  -49.0230 C.3    73  LEU73       0.0001
     40  N        -35.6700  -19.0700  -43.6310 N.3    76  ALA76      -0.1231
     41  CA       -36.1340  -17.9340  -44.4180 C.3    76  ALA76       0.1694
     42  C        -37.0170  -18.3410  -45.6020 C.2    76  ALA76       0.2592
     43  O        -38.0690  -17.7330  -45.8390 O.2    76  ALA76      -0.2718
     44  CB       -34.9430  -17.1160  -44.9120 C.3    76  ALA76       0.0304
     45  N        -36.5930  -19.3630  -46.3440 N.am   77  TRP77      -0.1976
     46  CA       -37.3710  -19.8080  -47.4890 C.3    77  TRP77       0.1640
     47  C        -38.6310  -20.5940  -47.1120 C.2    77  TRP77       0.2290
     48  O        -39.4100  -20.9650  -47.9750 O.2    77  TRP77      -0.2864
     49  CB       -36.4990  -20.4740  -48.5780 C.3    77  TRP77       0.0576
     50  CG       -36.0270  -21.9130  -48.4030 C.ar   77  TRP77       0.0006
     51  CD1      -36.6270  -22.9170  -47.6890 C.ar   77  TRP77       0.0946
     52  CD2      -34.8920  -22.5130  -49.0510 C.ar   77  TRP77       0.0152
     53  NE1      -35.9170  -24.0960  -47.8280 N.ar   77  TRP77      -0.2442
     54  CE2      -34.8520  -23.8730  -48.6630 C.ar   77  TRP77       0.0810
     55  CE3      -33.9040  -22.0280  -49.9160 C.ar   77  TRP77       0.0012
     56  CZ2      -33.8590  -24.7450  -49.1020 C.ar   77  TRP77       0.0191
     57  CZ3      -32.9180  -22.9010  -50.3580 C.ar   77  TRP77       0.0001
     58  CH2      -32.9070  -24.2470  -49.9520 C.ar   77  TRP77       0.0015
     59  N        -40.8120  -16.8230  -45.7030 N.3    80  VAL80      -0.1231
     60  CA       -41.2020  -15.8420  -46.7130 C.3    80  VAL80       0.1678
     61  C        -42.4500  -16.2720  -47.5120 C.2    80  VAL80       0.2434
     62  O        -43.4130  -15.5040  -47.5850 O.2    80  VAL80      -0.2733
     63  CB       -40.0130  -15.3860  -47.6030 C.3    80  VAL80       0.0265
     64  CG1      -40.4780  -14.4270  -48.7010 C.3    80  VAL80       0.0020
     65  CG2      -38.9620  -14.6850  -46.7410 C.3    80  VAL80       0.0020
     66  N        -42.4470  -17.4900  -48.1040 N.am   81  PRO81      -0.2729
     67  CA       -43.6980  -17.9970  -48.6920 C.3    81  PRO81       0.1401
     68  C        -44.9150  -17.8910  -47.7730 C.2    81  PRO81       0.2269
     69  O        -45.9700  -17.4740  -48.2310 O.2    81  PRO81      -0.2865
     70  CB       -43.3650  -19.4540  -49.0230 C.3    81  PRO81       0.0296
     71  CG       -41.9060  -19.3830  -49.3660 C.3    81  PRO81       0.0237
     72  CD       -41.3290  -18.4190  -48.3500 C.3    81  PRO81       0.0939
     73  N        -46.0030  -14.1810  -47.7200 N.3    84  ILE84      -0.1245
     74  CA       -46.6450  -13.8940  -48.9990 C.3    84  ILE84       0.1561
     75  C        -48.0800  -14.4340  -49.0720 C.2    84  ILE84       0.2260
     76  O        -48.9930  -13.7250  -49.5100 O.2    84  ILE84      -0.2867
     77  CB       -45.8100  -14.4380  -50.1900 C.3    84  ILE84       0.0252
     78  CG1      -44.4790  -13.6960  -50.2800 C.3    84  ILE84       0.0019
     79  CG2      -46.5780  -14.3010  -51.5040 C.3    84  ILE84       0.0019
     80  CD1      -43.4460  -14.3480  -51.1930 C.3    84  ILE84       0.0001
@<TRIPOS>BOND
     1    28    27    2
     2    27    26    1
     3    14    15    1
     4    30    29    1
     5     1     2    1
     6    26    29    1
     7    26    25    1
     8    29    31    1
     9    17    16    2
    10    25    16   am
    11    16    15    1
    12    15    18    1
    13     2     3    1
    14     2     5    1
    15     4     3    2
    16     8     9    2
    17     8     7    1
    18     3     6   am
    19     6     7    1
    20    18    19    1
    21     7    10    1
    22    10    12    1
    23    10    11    1
    24    19    21   ar
    25    19    20   ar
    26    21    23   ar
    27    20    22   ar
    28    11    13    1
    29    23    24   ar
    30    22    24   ar
    31    79    77    1
    32    80    78    1
    33    57    58   ar
    34    57    55   ar
    35    78    77    1
    36    77    74    1
    37    58    56   ar
    38    55    52   ar
    39    76    75    2
    40    71    70    1
    41    71    72    1
    42    56    54   ar
    43    75    74    1
    44    52    54   ar
    45    52    50   ar
    46    70    67    1
    47    39    37    1
    48    74    73    1
    49    64    63    1
    50    67    66    1
    51    67    68    1
    52    54    53   ar
    53    38    37    1
    54    49    50    1
    55    49    46    1
    56    50    51   ar
    57    72    66    1
    58    69    68    2
    59    66    61   am
    60    37    36    1
    61    48    47    2
    62    53    51   ar
    63    63    65    1
    64    63    60    1
    65    62    61    2
    66    61    60    1
    67    46    47    1
    68    46    45    1
    69    60    59    1
    70    36    33    1
    71    45    42   am
    72    35    34    2
    73    43    42    2
    74    42    41    1
    75    34    33    1
    76    33    32    1
    77    44    41    1
    78    41    40    1
