@<TRIPOS>MOLECULE
tmp/3dtuC10.pdb
 124 117 0 0 0
SMALL
GASTEIGER

@<TRIPOS>ATOM
      1  N        -41.8850  -62.0790  -71.7190 N.3     4  TRP4       -0.1241
      2  CA       -42.0500  -60.7200  -71.1970 C.3     4  TRP4        0.1605
      3  C        -43.3350  -60.6110  -70.3690 C.2     4  TRP4        0.2264
      4  O        -43.3000  -60.1950  -69.2100 O.2     4  TRP4       -0.2867
      5  CB       -42.0910  -59.7000  -72.3430 C.3     4  TRP4        0.0550
      6  CG       -40.7420  -59.1940  -72.7590 C.ar    4  TRP4        0.0003
      7  CD1      -40.0740  -59.4860  -73.9200 C.ar    4  TRP4        0.0946
      8  CD2      -39.8920  -58.2970  -72.0210 C.ar    4  TRP4        0.0152
      9  NE1      -38.8620  -58.8280  -73.9500 N.ar    4  TRP4       -0.2442
     10  CE2      -38.7230  -58.0940  -72.7980 C.ar    4  TRP4        0.0810
     11  CE3      -40.0040  -57.6430  -70.7780 C.ar    4  TRP4        0.0012
     12  CZ2      -37.6670  -57.2640  -72.3710 C.ar    4  TRP4        0.0191
     13  CZ3      -38.9500  -56.8200  -70.3520 C.ar    4  TRP4        0.0001
     14  CH2      -37.7990  -56.6410  -71.1500 C.ar    4  TRP4        0.0015
     15  N        -38.8210  -56.3820  -65.2820 N.3    12  ASP12      -0.1239
     16  CA       -39.5970  -56.7240  -66.4750 C.3    12  ASP12       0.1674
     17  C        -40.9680  -56.0480  -66.4540 C.2    12  ASP12       0.2266
     18  O        -41.3890  -55.4490  -67.4450 O.2    12  ASP12      -0.2867
     19  CB       -39.7910  -58.2450  -66.5680 C.3    12  ASP12       0.1410
     20  CG       -38.4890  -58.9980  -66.8620 C.2    12  ASP12       0.3668
     21  OD1      -37.5490  -58.4080  -67.4510 O.co2  12  ASP12      -0.2456
     22  OD2      -38.4130  -60.1910  -66.4980 O.co2  12  ASP12      -0.2456
     23  N        -40.6600  -52.3670  -67.1610 N.3    15  VAL15      -0.1245
     24  CA       -40.5060  -52.1190  -68.5900 C.3    15  VAL15       0.1561
     25  C        -41.8590  -52.2680  -69.3200 C.2    15  VAL15       0.2260
     26  O        -42.1620  -51.4970  -70.2480 O.2    15  VAL15      -0.2867
     27  CB       -39.3880  -53.0210  -69.2260 C.3    15  VAL15       0.0252
     28  CG1      -39.3680  -52.9020  -70.7470 C.3    15  VAL15       0.0019
     29  CG2      -38.0130  -52.6630  -68.6590 C.3    15  VAL15       0.0019
     30  N        -43.8310  -49.0720  -68.6890 N.3    18  LEU18      -0.1231
     31  CA       -43.2400  -47.9530  -69.4380 C.3    18  LEU18       0.1693
     32  C        -43.6330  -47.9430  -70.9150 C.2    18  LEU18       0.2592
     33  O        -44.1010  -46.9180  -71.4220 O.2    18  LEU18      -0.2718
     34  CB       -41.7220  -47.9260  -69.3070 C.3    18  LEU18       0.0284
     35  CG       -41.1230  -47.1960  -68.1070 C.3    18  LEU18       0.0019
     36  CD1      -39.6390  -47.4840  -68.0540 C.3    18  LEU18       0.0001
     37  CD2      -41.3880  -45.6710  -68.1970 C.3    18  LEU18       0.0001
     38  N        -43.4390  -49.0790  -71.5930 N.am   19  PHE19      -0.1976
     39  CA       -43.8290  -49.2350  -72.9920 C.3    19  PHE19       0.1639
     40  C        -45.3310  -49.0410  -73.2240 C.2    19  PHE19       0.2290
     41  O        -45.7270  -48.3680  -74.1690 O.2    19  PHE19      -0.2864
     42  CB       -43.4140  -50.6090  -73.5350 C.3    19  PHE19       0.0560
     43  CG       -42.0330  -50.6370  -74.1110 C.ar   19  PHE19      -0.0200
     44  CD1      -41.6480  -49.7120  -75.0800 C.ar   19  PHE19      -0.0042
     45  CD2      -41.1140  -51.5970  -73.6930 C.ar   19  PHE19      -0.0042
     46  CE1      -40.3540  -49.7350  -75.6230 C.ar   19  PHE19      -0.0003
     47  CE2      -39.8240  -51.6370  -74.2320 C.ar   19  PHE19      -0.0003
     48  CZ       -39.4430  -50.7000  -75.1890 C.ar   19  PHE19      -0.0000
     49  N        -46.4260  -45.5840  -72.6920 N.3    22  GLY22      -0.1225
     50  CA       -45.9750  -44.8050  -73.8480 C.3    22  GLY22       0.1811
     51  C        -46.8920  -44.9680  -75.0490 C.2    22  GLY22       0.2280
     52  O        -47.1430  -43.9990  -75.7820 O.2    22  GLY22      -0.2866
     53  N        -36.5540  -41.2790  -68.5110 N.3   420  ILE420     -0.1245
     54  CA       -36.2650  -42.1050  -69.6840 C.3   420  ILE420      0.1561
     55  C        -34.8230  -41.8940  -70.1540 C.2   420  ILE420      0.2260
     56  O        -34.0780  -42.8560  -70.3120 O.2   420  ILE420     -0.2867
     57  CB       -37.2860  -41.8820  -70.8300 C.3   420  ILE420      0.0252
     58  CG1      -38.6390  -42.5010  -70.4380 C.3   420  ILE420      0.0019
     59  CG2      -36.7710  -42.4910  -72.1290 C.3   420  ILE420      0.0019
     60  CD1      -39.7850  -42.1260  -71.3680 C.3   420  ILE420      0.0001
     61  N        -32.4300  -44.9720  -69.5430 N.3   424  ILE424     -0.1245
     62  CA       -32.5420  -45.8920  -70.7020 C.3   424  ILE424      0.1561
     63  C        -31.2850  -46.7890  -70.8610 C.2   424  ILE424      0.2260
     64  O        -31.4110  -47.9880  -71.0730 O.2   424  ILE424     -0.2867
     65  CB       -32.9470  -45.1820  -72.0440 C.3   424  ILE424      0.0252
     66  CG1      -33.3080  -46.2280  -73.1150 C.3   424  ILE424      0.0019
     67  CG2      -31.8680  -44.1690  -72.5060 C.3   424  ILE424      0.0019
     68  CD1      -34.1120  -45.6660  -74.2730 C.3   424  ILE424      0.0001
     69  N        -31.5050  -49.5170  -68.1330 N.3   427  MET427     -0.1230
     70  CA       -32.5680  -50.5040  -68.3330 C.3   427  MET427      0.1702
     71  C        -32.3530  -51.3960  -69.5620 C.2   427  MET427      0.2593
     72  O        -32.7990  -52.5510  -69.5840 O.2   427  MET427     -0.2718
     73  CB       -33.9340  -49.8080  -68.4660 C.3   427  MET427      0.0401
     74  CG       -34.3710  -48.9560  -67.2640 C.3   427  MET427      0.0596
     75  SD       -36.0480  -48.2850  -67.5030 S.3   427  MET427     -0.1393
     76  CE       -35.7290  -47.1130  -68.8210 C.3   427  MET427      0.0692
     77  N        -31.7110  -50.8510  -70.5900 N.am  428  SER428     -0.1952
     78  CA       -31.6430  -51.5320  -71.8890 C.3   428  SER428      0.1924
     79  C        -30.2490  -51.9890  -72.3190 C.2   428  SER428      0.2314
     80  O        -30.1360  -52.8030  -73.2220 O.2   428  SER428     -0.2863
     81  CB       -32.2500  -50.6630  -73.0040 C.3   428  SER428      0.2116
     82  OG       -31.3540  -49.6410  -73.4310 O.3   428  SER428     -0.2180
     83  N        -39.2850  -38.2350  -80.7270 N.3   495  PHE495     -0.1227
     84  CA       -38.9460  -38.9910  -79.5080 C.3   495  PHE495      0.1736
     85  C        -39.1080  -40.4990  -79.6770 C.2   495  PHE495      0.2595
     86  O        -38.2420  -41.2640  -79.2440 O.2   495  PHE495     -0.2718
     87  CB       -39.7620  -38.5260  -78.2870 C.3   495  PHE495      0.0547
     88  CG       -39.8090  -39.5380  -77.1690 C.ar  495  PHE495     -0.0202
     89  CD1      -38.7150  -39.7210  -76.3270 C.ar  495  PHE495     -0.0042
     90  CD2      -40.9350  -40.3350  -76.9790 C.ar  495  PHE495     -0.0042
     91  CE1      -38.7540  -40.6720  -75.2950 C.ar  495  PHE495     -0.0003
     92  CE2      -40.9800  -41.2890  -75.9600 C.ar  495  PHE495     -0.0003
     93  CZ       -39.8830  -41.4550  -75.1180 C.ar  495  PHE495     -0.0000
     94  N        -40.2250  -40.9280  -80.2650 N.am  496  LEU496     -0.1980
     95  CA       -40.4460  -42.3560  -80.5010 C.3   496  LEU496      0.1596
     96  C        -39.4350  -42.9100  -81.5070 C.2   496  LEU496      0.2287
     97  O        -39.1190  -44.1000  -81.4740 O.2   496  LEU496     -0.2864
     98  CB       -41.8770  -42.6550  -80.9620 C.3   496  LEU496      0.0297
     99  CG       -43.0160  -42.3050  -79.9970 C.3   496  LEU496      0.0022
    100  CD1      -44.3830  -42.5280  -80.6540 C.3   496  LEU496      0.0001
    101  CD2      -42.9050  -43.0770  -78.6880 C.3   496  LEU496      0.0001
    102  N        -36.2220  -43.4160  -79.4240 N.3   499  ILE499     -0.1245
    103  CA       -36.3130  -44.6680  -78.6630 C.3   499  ILE499      0.1561
    104  C        -36.0890  -45.9010  -79.5250 C.2   499  ILE499      0.2260
    105  O        -35.3480  -46.8020  -79.1350 O.2   499  ILE499     -0.2867
    106  CB       -37.6700  -44.8180  -77.9040 C.3   499  ILE499      0.0252
    107  CG1      -37.8470  -43.7050  -76.8520 C.3   499  ILE499      0.0019
    108  CG2      -37.8180  -46.2200  -77.2820 C.3   499  ILE499      0.0019
    109  CD1      -36.6340  -43.4340  -75.9440 C.3   499  ILE499      0.0001
    110  N        -32.8650  -48.4450  -79.0780 N.3   503  LEU503     -0.1245
    111  CA       -33.0450  -49.8460  -78.7160 C.3   503  LEU503      0.1561
    112  C        -32.5910  -50.8340  -79.7950 C.2   503  LEU503      0.2260
    113  O        -32.4710  -52.0350  -79.5250 O.2   503  LEU503     -0.2867
    114  CB       -34.4910  -50.1250  -78.2990 C.3   503  LEU503      0.0270
    115  CG       -35.0310  -49.3820  -77.0690 C.3   503  LEU503      0.0019
    116  CD1      -36.4750  -49.7770  -76.8200 C.3   503  LEU503      0.0001
    117  CD2      -34.1800  -49.6230  -75.8180 C.3   503  LEU503      0.0001
    118  N        -27.6990  -53.8030  -68.6400 N.3   529  PRO529     -0.2116
    119  CA       -28.7560  -53.8310  -67.6280 C.3   529  PRO529      0.1372
    120  C        -28.3990  -54.6530  -66.3910 C.2   529  PRO529      0.2244
    121  O        -27.4680  -55.4680  -66.4430 O.2   529  PRO529     -0.2868
    122  CB       -29.9320  -54.4720  -68.3770 C.3   529  PRO529      0.0268
    123  CG       -29.2980  -55.3550  -69.3730 C.3   529  PRO529      0.0207
    124  CD       -28.0180  -54.6750  -69.7840 C.3   529  PRO529      0.0892
@<TRIPOS>BOND
     1    96    97    2
     2    96    95    1
     3    98    95    1
     4    98    99    1
     5    83    84    1
     6   100    99    1
     7    95    94    1
     8    94    85   am
     9    99   101    1
    10   112   113    2
    11   112   111    1
    12    85    84    1
    13    85    86    2
    14   104   105    2
    15   104   103    1
    16    84    87    1
    17   102   103    1
    18   110   111    1
    19   111   114    1
    20   103   106    1
    21   114   115    1
    22    87    88    1
    23   106   108    1
    24   106   107    1
    25    88    90   ar
    26    88    89   ar
    27   115   116    1
    28   115   117    1
    29    90    92   ar
    30   107   109    1
    31    89    91   ar
    32    92    93   ar
    33    52    51    2
    34    46    48   ar
    35    46    44   ar
    36    91    93   ar
    37    48    47   ar
    38    44    43   ar
    39    51    50    1
    40    68    66    1
    41    47    45   ar
    42    41    40    2
    43    43    45   ar
    44    43    42    1
    45     9     7   ar
    46     9    10   ar
    47     7     6   ar
    48    50    49    1
    49    42    39    1
    50    82    81    1
    51    40    39    1
    52    80    79    2
    53    66    65    1
    54    81    78    1
    55    39    38    1
    56    10    12   ar
    57    10     8   ar
    58     6     5    1
    59     6     8   ar
    60    67    65    1
    61    12    14   ar
    62     5     2    1
    63    79    78    1
    64    59    57    1
    65    65    62    1
    66     8    11   ar
    67    78    77    1
    68     1     2    1
    69    38    32   am
    70    33    32    2
    71    60    58    1
    72     2     3    1
    73    14    13   ar
    74    64    63    2
    75    32    31    1
    76    63    62    1
    77    57    58    1
    78    57    54    1
    79    11    13   ar
    80    28    27    1
    81    62    61    1
    82    77    71   am
    83     3     4    2
    84    56    55    2
    85    26    25    2
    86    55    54    1
    87   124   123    1
    88   124   118    1
    89    54    53    1
    90    72    71    2
    91    71    70    1
    92    31    34    1
    93    31    30    1
    94   123   122    1
    95    25    24    1
    96    34    35    1
    97    27    29    1
    98    27    24    1
    99    76    75    1
   100   118   119    1
   101    24    23    1
   102    73    70    1
   103    73    74    1
   104   122   119    1
   105    70    69    1
   106    37    35    1
   107    35    36    1
   108   119   120    1
   109    75    74    1
   110    21    20   ar
   111    18    17    2
   112    20    19    1
   113    20    22   ar
   114    19    16    1
   115    16    17    1
   116    16    15    1
   117   121   120    2
