@<TRIPOS>MOLECULE
tmp/3dtuC01.pdb
 131 133 0 0 0
SMALL
GASTEIGER

@<TRIPOS>ATOM
      1  N        -33.1610  -49.1110  -55.5040 N.3   111  HIS111     -0.1241
      2  CA       -32.8000  -48.0170  -54.6090 C.3   111  HIS111      0.1621
      3  C        -32.6870  -48.4320  -53.1370 C.2   111  HIS111      0.2264
      4  O        -31.8320  -47.9130  -52.4080 O.2   111  HIS111     -0.2867
      5  CB       -33.7680  -46.8270  -54.7930 C.3   111  HIS111      0.0745
      6  CG       -33.5910  -46.1130  -56.0970 C.ar  111  HIS111      0.0817
      7  ND1      -34.5510  -45.2840  -56.6360 N.ar  111  HIS111     -0.2268
      8  CD2      -32.5660  -46.1260  -56.9840 C.ar  111  HIS111      0.1154
      9  CE1      -34.1180  -44.8030  -57.7890 C.ar  111  HIS111      0.1986
     10  NE2      -32.9180  -45.3020  -58.0260 N.ar  111  HIS111     -0.2212
     11  N        -35.0770  -35.0650  -58.2200 N.3   283  SER283     -0.1202
     12  CA       -34.0400  -35.0800  -57.1860 C.3   283  SER283      0.2020
     13  C        -32.7950  -35.8840  -57.5890 C.2   283  SER283      0.2618
     14  O        -31.6680  -35.4010  -57.4340 O.2   283  SER283     -0.2717
     15  CB       -34.6080  -35.5890  -55.8690 C.3   283  SER283      0.2103
     16  OG       -35.4700  -34.6180  -55.3030 O.3   283  SER283     -0.2182
     17  N        -33.0130  -37.0770  -58.1410 N.am  284  HIS284     -0.1975
     18  CA       -31.9280  -37.9440  -58.5940 C.3   284  HIS284      0.1656
     19  C        -31.1690  -37.3380  -59.7700 C.2   284  HIS284      0.2291
     20  O        -29.9360  -37.3440  -59.7870 O.2   284  HIS284     -0.2864
     21  CB       -32.4680  -39.3290  -58.9660 C.3   284  HIS284      0.0771
     22  CG       -32.8750  -40.1550  -57.7820 C.ar  284  HIS284      0.0820
     23  ND1      -32.4800  -41.4630  -57.6180 N.ar  284  HIS284     -0.2267
     24  CD2      -33.6360  -39.8580  -56.7000 C.ar  284  HIS284      0.1154
     25  CE1      -32.9850  -41.9410  -56.4950 C.ar  284  HIS284      0.1986
     26  NE2      -33.6860  -40.9850  -55.9150 N.ar  284  HIS284     -0.2212
     27  N        -29.0010  -33.9860  -58.7540 N.3   287  ALA287     -0.1231
     28  CA       -27.7970  -34.3090  -57.9770 C.3   287  ALA287      0.1694
     29  C        -26.7160  -34.9030  -58.8760 C.2   287  ALA287      0.2592
     30  O        -25.5410  -34.5880  -58.7200 O.2   287  ALA287     -0.2718
     31  CB       -28.1150  -35.2600  -56.8140 C.3   287  ALA287      0.0304
     32  N        -27.1170  -35.7440  -59.8260 N.am  288  THR288     -0.1953
     33  CA       -26.1690  -36.3260  -60.7760 C.3   288  THR288      0.1897
     34  C        -25.4900  -35.2550  -61.6370 C.2   288  THR288      0.2313
     35  O        -24.2590  -35.1760  -61.6810 O.2   288  THR288     -0.2863
     36  CB       -26.8480  -37.3620  -61.6690 C.3   288  THR288      0.1794
     37  OG1      -27.3750  -38.4030  -60.8390 O.3   288  THR288     -0.2208
     38  CG2      -25.8560  -37.9610  -62.6740 C.3   288  THR288      0.0378
     39  N        -24.4980  -33.5380  -53.9520 N.3   293  PRO293     -0.2102
     40  CA       -25.6190  -34.2500  -53.3300 C.3   293  PRO293      0.1504
     41  C        -26.7980  -33.3180  -53.0430 C.2   293  PRO293      0.2575
     42  O        -26.6250  -32.0940  -52.9480 O.2   293  PRO293     -0.2718
     43  CB       -25.0210  -34.8160  -52.0350 C.3   293  PRO293      0.0282
     44  CG       -23.8120  -33.9970  -51.7630 C.3   293  PRO293      0.0208
     45  CD       -23.3410  -33.3950  -53.0510 C.3   293  PRO293      0.0893
     46  N        -27.9830  -33.9060  -52.9340 N.am  294  ILE294     -0.1980
     47  CA       -29.2220  -33.1600  -52.7810 C.3   294  ILE294      0.1595
     48  C        -29.1700  -32.2990  -51.5150 C.2   294  ILE294      0.2287
     49  O        -28.8320  -32.7950  -50.4310 O.2   294  ILE294     -0.2864
     50  CB       -30.4590  -34.1280  -52.7960 C.3   294  ILE294      0.0276
     51  CG1      -31.7500  -33.3800  -53.1370 C.3   294  ILE294      0.0022
     52  CG2      -30.5570  -34.9540  -51.5040 C.3   294  ILE294      0.0022
     53  CD1      -31.9100  -33.1260  -54.6560 C.3   294  ILE294      0.0001
     54  N        -32.3000  -40.4650  -68.4290 N.3   422  PHE422     -0.1227
     55  CA       -31.4320  -40.7960  -67.2910 C.3   422  PHE422      0.1736
     56  C        -31.1420  -42.3000  -67.2060 C.2   422  PHE422      0.2595
     57  O        -29.9960  -42.7120  -66.9570 O.2   422  PHE422     -0.2718
     58  CB       -32.1330  -40.3570  -66.0060 C.3   422  PHE422      0.0547
     59  CG       -31.2910  -40.4310  -64.7600 C.ar  422  PHE422     -0.0202
     60  CD1      -30.0330  -39.8300  -64.7010 C.ar  422  PHE422     -0.0042
     61  CD2      -31.7900  -41.0490  -63.6200 C.ar  422  PHE422     -0.0042
     62  CE1      -29.2760  -39.8710  -63.5350 C.ar  422  PHE422     -0.0003
     63  CE2      -31.0470  -41.0810  -62.4300 C.ar  422  PHE422     -0.0003
     64  CZ       -29.7860  -40.4930  -62.3910 C.ar  422  PHE422     -0.0000
     65  N        -32.1840  -43.1000  -67.4320 N.am  423  TRP423     -0.1976
     66  CA       -32.1640  -44.5190  -67.1310 C.3   423  TRP423      0.1640
     67  C        -32.2080  -45.4750  -68.3290 C.2   423  TRP423      0.2290
     68  O        -32.0530  -46.6870  -68.1420 O.2   423  TRP423     -0.2864
     69  CB       -33.3350  -44.8510  -66.2110 C.3   423  TRP423      0.0576
     70  CG       -33.0910  -44.5470  -64.7470 C.ar  423  TRP423      0.0006
     71  CD1      -31.9350  -44.7780  -64.0240 C.ar  423  TRP423      0.0946
     72  CD2      -34.0390  -44.0000  -63.8190 C.ar  423  TRP423      0.0152
     73  NE1      -32.1150  -44.3940  -62.7120 N.ar  423  TRP423     -0.2442
     74  CE2      -33.3950  -43.9240  -62.5550 C.ar  423  TRP423      0.0810
     75  CE3      -35.3730  -43.5670  -63.9310 C.ar  423  TRP423      0.0012
     76  CZ2      -34.0420  -43.4320  -61.4110 C.ar  423  TRP423      0.0191
     77  CZ3      -36.0180  -43.0750  -62.7900 C.ar  423  TRP423      0.0001
     78  CH2      -35.3490  -43.0170  -61.5440 C.ar  423  TRP423      0.0015
     79  N        -21.5960  -38.9520  -58.7160 N.3   518  HIS518     -0.1226
     80  CA       -22.6950  -38.3170  -57.9880 C.3   518  HIS518      0.1752
     81  C        -24.0670  -38.9170  -58.2990 C.2   518  HIS518      0.2596
     82  O        -25.0480  -38.6000  -57.6290 O.2   518  HIS518     -0.2718
     83  CB       -22.6530  -36.8030  -58.1640 C.3   518  HIS518      0.0759
     84  CG       -21.3190  -36.2160  -57.8240 C.ar  518  HIS518      0.0818
     85  ND1      -20.9910  -35.8090  -56.5490 N.ar  518  HIS518     -0.2268
     86  CD2      -20.2140  -36.0120  -58.5830 C.ar  518  HIS518      0.1154
     87  CE1      -19.7500  -35.3560  -56.5400 C.ar  518  HIS518      0.1986
     88  NE2      -19.2580  -35.4610  -57.7640 N.ar  518  HIS518     -0.2212
     89  N        -24.1270  -39.7900  -59.3010 N.am  519  ALA519     -0.1966
     90  CA       -25.2200  -40.7590  -59.4010 C.3   519  ALA519      0.1728
     91  C        -24.8340  -41.8790  -58.4370 C.2   519  ALA519      0.2616
     92  O        -24.1610  -42.8380  -58.8300 O.2   519  ALA519     -0.2715
     93  CB       -25.3560  -41.2880  -60.8230 C.3   519  ALA519      0.0334
     94  N        -25.2360  -41.7370  -57.1730 N.am  520  ASP520     -0.1957
     95  CA       -24.6340  -42.5130  -56.0800 C.3   520  ASP520      0.1840
     96  C        -25.5650  -43.5200  -55.3950 C.2   520  ASP520      0.2622
     97  O        -25.2960  -43.9610  -54.2740 O.2   520  ASP520     -0.2715
     98  CB       -23.9950  -41.5720  -55.0440 C.3   520  ASP520      0.1450
     99  CG       -25.0080  -40.6500  -54.3850 C.2   520  ASP520      0.3671
    100  OD1      -26.2200  -40.7860  -54.6730 O.co2 520  ASP520     -0.2456
    101  OD2      -24.6010  -39.7870  -53.5700 O.co2 520  ASP520     -0.2456
    102  N        -26.6430  -43.8940  -56.0710 N.am  521  THR521     -0.1951
    103  CA       -27.5890  -44.8550  -55.5250 C.3   521  THR521      0.1897
    104  C        -27.3380  -46.2430  -56.1290 C.2   521  THR521      0.2313
    105  O        -26.6060  -46.3720  -57.1130 O.2   521  THR521     -0.2863
    106  CB       -29.0380  -44.4090  -55.8090 C.3   521  THR521      0.1794
    107  OG1      -29.2080  -44.2480  -57.2240 O.3   521  THR521     -0.2208
    108  CG2      -29.3460  -43.0930  -55.0940 C.3   521  THR521      0.0378
    109  N        -28.5070  -48.6670  -58.0670 N.3   523  GLU523     -0.1231
    110  CA       -28.6460  -49.1920  -59.4370 C.3   523  GLU523      0.1699
    111  C        -27.3800  -48.9120  -60.2570 C.2   523  GLU523      0.2592
    112  O        -27.0910  -49.6100  -61.2460 O.2   523  GLU523     -0.2718
    113  CB       -29.9180  -48.6440  -60.1320 C.3   523  GLU523      0.0402
    114  CG       -29.7970  -47.2390  -60.7370 C.3   523  GLU523      0.1161
    115  CD       -30.1860  -46.1300  -59.7730 C.2   523  GLU523      0.3649
    116  OE1      -29.8110  -46.1950  -58.5730 O.co2 523  GLU523     -0.2457
    117  OE2      -30.8630  -45.1760  -60.2350 O.co2 523  GLU523     -0.2457
    118  N        -26.6150  -47.9020  -59.8380 N.am  524  TRP524     -0.1976
    119  CA       -25.3820  -47.5600  -60.5400 C.3   524  TRP524      0.1640
    120  C        -24.1980  -48.4420  -60.1110 C.2   524  TRP524      0.2290
    121  O        -23.1140  -48.3260  -60.6820 O.2   524  TRP524     -0.2864
    122  CB       -25.0450  -46.0720  -60.3870 C.3   524  TRP524      0.0576
    123  CG       -26.1740  -45.2080  -60.8400 C.ar  524  TRP524      0.0006
    124  CD1      -26.9740  -44.4300  -60.0540 C.ar  524  TRP524      0.0946
    125  CD2      -26.6720  -45.0790  -62.1810 C.ar  524  TRP524      0.0152
    126  NE1      -27.9270  -43.8090  -60.8230 N.ar  524  TRP524     -0.2442
    127  CE2      -27.7710  -44.1880  -62.1310 C.ar  524  TRP524      0.0810
    128  CE3      -26.3010  -45.6310  -63.4180 C.ar  524  TRP524      0.0012
    129  CZ2      -28.5000  -43.8310  -63.2660 C.ar  524  TRP524      0.0191
    130  CZ3      -27.0140  -45.2670  -64.5520 C.ar  524  TRP524      0.0001
    131  CH2      -28.1070  -44.3680  -64.4660 C.ar  524  TRP524      0.0015
@<TRIPOS>BOND
     1    54    55    1
     2    67    68    2
     3    67    66    1
     4    65    56   am
     5    65    66    1
     6    55    56    1
     7    55    58    1
     8    56    57    2
     9    66    69    1
    10    69    70    1
    11    58    59    1
    12    59    60   ar
    13    59    61   ar
    14    70    71   ar
    15    70    72   ar
    16    60    62   ar
    17   130   131   ar
    18   130   128   ar
    19   131   129   ar
    20    71    73   ar
    21    75    72   ar
    22    75    77   ar
    23    72    74   ar
    24    61    63   ar
    25    62    64   ar
    26   128   125   ar
    27   129   127   ar
    28    77    78   ar
    29    73    74   ar
    30    38    36    1
    31    74    76   ar
    32    63    64   ar
    33   125   127   ar
    34   125   123   ar
    35   127   126   ar
    36    35    34    2
    37    36    37    1
    38    36    33    1
    39    34    33    1
    40    78    76   ar
    41   112   111    2
    42   123   122    1
    43   123   124   ar
    44   126   124   ar
    45    93    90    1
    46    33    32    1
    47   114   113    1
    48   114   115    1
    49   121   120    2
    50   119   122    1
    51   119   120    1
    52   119   118    1
    53   111   118   am
    54   111   110    1
    55   117   115   ar
    56   113   110    1
    57    32    29   am
    58    20    19    2
    59   115   116   ar
    60    19    18    1
    61   110   109    1
    62    90    89    1
    63    90    91    1
    64    89    81   am
    65    21    18    1
    66    21    22    1
    67    29    30    2
    68    29    28    1
    69    92    91    2
    70    27    28    1
    71    79    80    1
    72    18    17    1
    73    86    84   ar
    74    86    88   ar
    75    91    94   am
    76    81    80    1
    77    81    82    2
    78    11    12    1
    79    83    80    1
    80    83    84    1
    81    17    13   am
    82    10     9   ar
    83    10     8   ar
    84    28    31    1
    85    84    85   ar
    86     9     7   ar
    87    22    23   ar
    88    22    24   ar
    89    88    87   ar
    90    23    25   ar
    91    13    14    2
    92    13    12    1
    93   107   106    1
    94    12    15    1
    95    94    95    1
    96   105   104    2
    97     8     6   ar
    98    24    26   ar
    99     7     6   ar
   100    85    87   ar
   101    25    26   ar
   102   104   103    1
   103     6     5    1
   104    95    96    1
   105    95    98    1
   106   102   103    1
   107   102    96   am
   108    15    16    1
   109   106   103    1
   110   106   108    1
   111     1     2    1
   112    96    97    2
   113    98    99    1
   114     5     2    1
   115   100    99   ar
   116    53    51    1
   117     2     3    1
   118    99   101   ar
   119    39    40    1
   120    39    45    1
   121    40    41    1
   122    40    43    1
   123    51    50    1
   124     3     4    2
   125    45    44    1
   126    41    42    2
   127    41    46   am
   128    46    47    1
   129    50    47    1
   130    50    52    1
   131    47    48    1
   132    43    44    1
   133    48    49    2
