@<TRIPOS>MOLECULE
tmp/3dtwA00.pdb
 186 175 0 0 0
SMALL
GASTEIGER

@<TRIPOS>ATOM
      1  N         37.1200   24.3020   19.7740 N.3    23  LEU23      -0.1245
      2  CA        38.4750   24.7960   19.5640 C.3    23  LEU23       0.1561
      3  C         38.8330   25.7740   20.6790 C.2    23  LEU23       0.2260
      4  O         39.7110   25.4930   21.4920 O.2    23  LEU23      -0.2867
      5  CB        38.5980   25.4710   18.1900 C.3    23  LEU23       0.0270
      6  CG        38.5400   24.5300   16.9790 C.3    23  LEU23       0.0019
      7  CD1       38.4180   25.3200   15.6900 C.3    23  LEU23       0.0001
      8  CD2       39.7840   23.6510   16.9600 C.3    23  LEU23       0.0001
      9  N         34.2270   28.8280   19.6760 N.3    29  VAL29      -0.1245
     10  CA        34.4960   28.3120   18.3350 C.3    29  VAL29       0.1561
     11  C         34.5650   26.7890   18.3210 C.2    29  VAL29       0.2260
     12  O         35.0910   26.1780   19.2410 O.2    29  VAL29      -0.2867
     13  CB        35.8100   28.8780   17.7750 C.3    29  VAL29       0.0252
     14  CG1       35.9780   28.4460   16.3400 C.3    29  VAL29       0.0019
     15  CG2       35.8060   30.3910   17.8650 C.3    29  VAL29       0.0019
     16  N         35.0390   25.8550   10.6960 N.3    45  ALA45      -0.1231
     17  CA        35.0800   26.3500   12.0710 C.3    45  ALA45       0.1694
     18  C         33.8210   27.1770   12.2720 C.2    45  ALA45       0.2592
     19  O         33.5110   28.0800   11.4950 O.2    45  ALA45      -0.2718
     20  CB        36.3230   27.2150   12.3000 C.3    45  ALA45       0.0304
     21  N         33.0840   26.8640   13.3160 N.am   46  VAL46      -0.1966
     22  CA        31.8610   27.5820   13.5610 C.3    46  VAL46       0.1727
     23  C         31.9410   28.3730   14.8490 C.2    46  VAL46       0.2616
     24  O         32.3010   27.8310   15.8880 O.2    46  VAL46      -0.2715
     25  CB        30.6790   26.5970   13.6310 C.3    46  VAL46       0.0290
     26  CG1       29.3780   27.3420   13.8940 C.3    46  VAL46       0.0023
     27  CG2       30.6000   25.8110   12.3320 C.3    46  VAL46       0.0023
     28  N         31.6310   29.6650   14.7730 N.am   47  LYS47      -0.1977
     29  CA        31.6160   30.5200   15.9550 C.3    47  LYS47       0.1596
     30  C         30.1590   30.7350   16.3010 C.2    47  LYS47       0.2287
     31  O         29.4100   31.3100   15.5190 O.2    47  LYS47      -0.2864
     32  CB        32.2620   31.8710   15.6770 C.3    47  LYS47       0.0298
     33  CG        32.2250   32.8130   16.8640 C.3    47  LYS47       0.0038
     34  CD        33.0310   34.0680   16.6060 C.3    47  LYS47       0.0206
     35  CE        33.1380   34.8990   17.8840 C.3    47  LYS47       0.1093
     36  NZ        33.8420   36.2150   17.7070 N.3    47  LYS47      -0.1314
     37  N         29.9300   41.3610   13.6560 N.3    64  GLU64      -0.1245
     38  CA        31.2400   40.7930   13.3760 C.3    64  GLU64       0.1567
     39  C         31.1450   40.1320   12.0040 C.2    64  GLU64       0.2260
     40  O         32.0530   40.2450   11.1740 O.2    64  GLU64      -0.2867
     41  CB        31.6020   39.7510   14.4250 C.3    64  GLU64       0.0388
     42  CG        32.8220   38.9430   14.0760 C.3    64  GLU64       0.1160
     43  CD        33.1940   37.9730   15.1730 C.2    64  GLU64       0.3649
     44  OE1       34.0200   37.0740   14.9160 O.co2  64  GLU64      -0.2457
     45  OE2       32.6650   38.1120   16.2970 O.co2  64  GLU64      -0.2457
     46  N         30.9490   42.6230    9.1610 N.3    67  ILE67      -0.1231
     47  CA        32.2520   43.2220    8.9350 C.3    67  ILE67       0.1692
     48  C         33.0390   42.3310    7.9980 C.2    67  ILE67       0.2591
     49  O         33.6720   42.8040    7.0650 O.2    67  ILE67      -0.2718
     50  CB        33.0420   43.3750   10.2370 C.3    67  ILE67       0.0266
     51  CG1       32.4560   44.5110   11.0790 C.3    67  ILE67       0.0019
     52  CG2       34.5040   43.6570    9.9260 C.3    67  ILE67       0.0020
     53  CD1       33.1140   44.6460   12.4440 C.3    67  ILE67       0.0001
     54  N         33.0080   41.0330    8.2620 N.am   68  LEU68      -0.1980
     55  CA        33.6970   40.0660    7.4170 C.3    68  LEU68       0.1596
     56  C         33.1430   40.0840    5.9770 C.2    68  LEU68       0.2287
     57  O         33.8820   39.9080    5.0000 O.2    68  LEU68      -0.2864
     58  CB        33.5410   38.6700    8.0160 C.3    68  LEU68       0.0297
     59  CG        34.4830   38.3340    9.1610 C.3    68  LEU68       0.0022
     60  CD1       33.9400   37.1360    9.9300 C.3    68  LEU68       0.0001
     61  CD2       35.8790   38.0530    8.5980 C.3    68  LEU68       0.0001
     62  N         34.6430   43.3950    4.5240 N.3    71  ILE71      -0.1245
     63  CA        36.0640   43.2850    4.2150 C.3    71  ILE71       0.1561
     64  C         36.3040   42.6180    2.8560 C.2    71  ILE71       0.2260
     65  O         37.0520   43.1210    2.0190 O.2    71  ILE71      -0.2867
     66  CB        36.7850   42.4700    5.2910 C.3    71  ILE71       0.0252
     67  CG1       36.7920   43.2450    6.6060 C.3    71  ILE71       0.0019
     68  CG2       38.1970   42.1510    4.8410 C.3    71  ILE71       0.0019
     69  CD1       37.4320   42.4870    7.7500 C.3    71  ILE71       0.0001
     70  N         43.4780   36.4510    4.9550 N.3    77  VAL77      -0.1231
     71  CA        42.5140   36.7850    6.0060 C.3    77  VAL77       0.1692
     72  C         41.5430   35.6290    6.0890 C.2    77  VAL77       0.2591
     73  O         40.9460   35.2580    5.0860 O.2    77  VAL77      -0.2718
     74  CB        41.7240   38.0650    5.6940 C.3    77  VAL77       0.0266
     75  CG1       40.7410   38.3480    6.8130 C.3    77  VAL77       0.0020
     76  CG2       42.6770   39.2310    5.5270 C.3    77  VAL77       0.0020
     77  N         41.3910   35.0520    7.2770 N.am   78  VAL78      -0.1980
     78  CA        40.5000   33.9060    7.4530 C.3    78  VAL78       0.1595
     79  C         39.2660   34.0660    6.5590 C.2    78  VAL78       0.2287
     80  O         38.6540   35.1250    6.5280 O.2    78  VAL78      -0.2864
     81  CB        40.0910   33.7620    8.9300 C.3    78  VAL78       0.0276
     82  CG1       39.2900   34.9690    9.3610 C.3    78  VAL78       0.0022
     83  CG2       39.3250   32.4740    9.1320 C.3    78  VAL78       0.0022
     84  N         28.4960   31.6940   12.6920 N.3    93  VAL93      -0.1245
     85  CA        29.3230   32.2690   11.6340 C.3    93  VAL93       0.1561
     86  C         30.3500   31.2140   11.2360 C.2    93  VAL93       0.2260
     87  O         31.1640   30.7830   12.0500 O.2    93  VAL93      -0.2867
     88  CB        30.0360   33.5520   12.1140 C.3    93  VAL93       0.0252
     89  CG1       31.0750   33.9770   11.0980 C.3    93  VAL93       0.0019
     90  CG2       29.0210   34.6630   12.3190 C.3    93  VAL93       0.0019
     91  N         33.5780   29.8320    9.0200 N.3    95  THR95      -0.1203
     92  CA        34.7950   30.1570    8.2670 C.3    95  THR95       0.1994
     93  C         35.5670   28.9030    7.8960 C.2    95  THR95       0.2618
     94  O         35.2990   27.8030    8.4100 O.2    95  THR95      -0.2717
     95  CB        35.7810   31.0510    9.0630 C.3    95  THR95       0.1784
     96  OG1       36.4360   30.2710   10.0710 O.3    95  THR95      -0.2211
     97  CG2       35.0500   32.2170    9.6950 C.3    95  THR95       0.0376
     98  N         36.5280   29.0820    6.9940 N.am   96  GLU96      -0.1965
     99  CA        37.3700   27.9790    6.5750 C.3    96  GLU96       0.1733
    100  C         38.0400   27.4290    7.8380 C.2    96  GLU96       0.2616
    101  O         38.0700   28.0890    8.8830 O.2    96  GLU96      -0.2715
    102  CB        38.4340   28.4700    5.5840 C.3    96  GLU96       0.0429
    103  CG        39.3680   29.5630    6.1230 C.3    96  GLU96       0.1163
    104  CD        40.5020   29.9070    5.1590 C.2    96  GLU96       0.3649
    105  OE1       41.2710   28.9920    4.7870 O.co2  96  GLU96      -0.2457
    106  OE2       40.6290   31.0900    4.7770 O.co2  96  GLU96      -0.2457
    107  N         38.5640   26.2160    7.7470 N.am   97  PHE97      -0.1960
    108  CA        39.2390   25.6190    8.8830 C.3    97  PHE97       0.1771
    109  C         40.7250   25.6160    8.6140 C.2    97  PHE97       0.2619
    110  O         41.1580   25.3360    7.4980 O.2    97  PHE97      -0.2715
    111  CB        38.7880   24.1830    9.0990 C.3    97  PHE97       0.0574
    112  CG        39.4270   23.5290   10.2810 C.ar   97  PHE97      -0.0200
    113  CD1       39.1970   24.0100   11.5640 C.ar   97  PHE97      -0.0042
    114  CD2       40.2560   22.4290   10.1210 C.ar   97  PHE97      -0.0042
    115  CE1       39.7810   23.4040   12.6700 C.ar   97  PHE97      -0.0003
    116  CE2       40.8420   21.8210   11.2190 C.ar   97  PHE97      -0.0003
    117  CZ        40.6020   22.3110   12.4940 C.ar   97  PHE97      -0.0000
    118  N         41.5010   25.9530    9.6330 N.am   98  CYS98      -0.1968
    119  CA        42.9520   25.9560    9.5300 C.3    98  CYS98       0.1712
    120  C         43.3740   24.8810   10.5350 C.2    98  CYS98       0.2296
    121  O         43.2050   25.0480   11.7400 O.2    98  CYS98      -0.2864
    122  CB        43.5000   27.3350    9.9140 C.3    98  CYS98       0.0983
    123  SG        42.9570   28.7100    8.8220 S.3    98  CYS98      -0.0798
    124  N         46.3950   25.4090   13.6460 N.3   101  GLY101     -0.1225
    125  CA        46.1950   26.3100   14.7760 C.3   101  GLY101      0.1811
    126  C         46.9100   27.6570   14.7390 C.2   101  GLY101      0.2280
    127  O         47.4570   28.0600   13.6990 O.2   101  GLY101     -0.2866
    128  N         43.3670   44.7850    4.8040 N.3   148  LEU148     -0.1245
    129  CA        42.5010   45.3270    5.8550 C.3   148  LEU148      0.1561
    130  C         42.6280   46.8460    6.0220 C.2   148  LEU148      0.2260
    131  O         41.6450   47.5360    6.3040 O.2   148  LEU148     -0.2867
    132  CB        42.8290   44.6810    7.1940 C.3   148  LEU148      0.0270
    133  CG        42.4770   43.2160    7.3110 C.3   148  LEU148      0.0019
    134  CD1       42.6870   42.7710    8.7590 C.3   148  LEU148      0.0001
    135  CD2       41.0330   43.0160    6.8710 C.3   148  LEU148      0.0001
    136  N         42.6040   46.2030   13.1830 N.3   155  HIS155     -0.1241
    137  CA        42.5550   45.0030   14.0050 C.3   155  HIS155      0.1621
    138  C         42.4010   45.2560   15.5010 C.2   155  HIS155      0.2264
    139  O         41.4880   44.7200   16.1240 O.2   155  HIS155     -0.2867
    140  CB        43.7790   44.1400   13.7430 C.3   155  HIS155      0.0745
    141  CG        43.5760   42.6990   14.0830 C.ar  155  HIS155      0.0817
    142  ND1       43.4050   42.2580   15.3770 N.ar  155  HIS155     -0.2268
    143  CD2       43.5180   41.5980   13.3000 C.ar  155  HIS155      0.1154
    144  CE1       43.2530   40.9460   15.3770 C.ar  155  HIS155      0.1986
    145  NE2       43.3170   40.5210   14.1290 N.ar  155  HIS155     -0.2212
    146  N         46.4100   32.1660   11.9400 N.3   164  LEU164     -0.1245
    147  CA        46.1920   30.7430   11.7540 C.3   164  LEU164      0.1561
    148  C         47.0950   30.2000   10.6560 C.2   164  LEU164      0.2260
    149  O         47.4760   30.9260    9.7440 O.2   164  LEU164     -0.2867
    150  CB        44.7250   30.4910   11.4120 C.3   164  LEU164      0.0270
    151  CG        43.7120   31.0550   12.4170 C.3   164  LEU164      0.0019
    152  CD1       42.3090   30.8490   11.8850 C.3   164  LEU164      0.0001
    153  CD2       43.8700   30.3970   13.7790 C.3   164  LEU164      0.0001
    154  N         45.0010   35.8310    8.9240 N.3   173  ILE173     -0.1231
    155  CA        44.6790   36.6960   10.0430 C.3   173  ILE173      0.1692
    156  C         43.2500   36.4240   10.4910 C.2   173  ILE173      0.2592
    157  O         42.3020   36.4720    9.6910 O.2   173  ILE173     -0.2718
    158  CB        44.7810   38.1720    9.6400 C.3   173  ILE173      0.0266
    159  CG1       46.2050   38.4790    9.1780 C.3   173  ILE173      0.0019
    160  CG2       44.3390   39.0590   10.8020 C.3   173  ILE173      0.0020
    161  CD1       46.3580   39.8230    8.5130 C.3   173  ILE173      0.0001
    162  N         43.0870   36.1200   11.7680 N.am  174  CYS174     -0.1956
    163  CA        41.7590   35.8710   12.2880 C.3   174  CYS174      0.1843
    164  C         41.6260   36.7320   13.5200 C.2   174  CYS174      0.2625
    165  O         42.4800   37.5640   13.7810 O.2   174  CYS174     -0.2714
    166  CB        41.5820   34.3880   12.6330 C.3   174  CYS174      0.0997
    167  SG        42.6610   33.7540   13.9470 S.3   174  CYS174     -0.0797
    168  N         40.5610   36.5420   14.2800 N.am  175  ASP175     -0.1957
    169  CA        40.3770   37.3250   15.4890 C.3   175  ASP175      0.1840
    170  C         39.5270   36.5620   16.5070 C.2   175  ASP175      0.2622
    171  O         38.3160   36.4730   16.3630 O.2   175  ASP175     -0.2715
    172  CB        39.7100   38.6540   15.1410 C.3   175  ASP175      0.1450
    173  CG        39.6740   39.6110   16.3100 C.2   175  ASP175      0.3671
    174  OD1       39.5600   39.1420   17.4590 O.co2 175  ASP175     -0.2456
    175  OD2       39.7460   40.8350   16.0750 O.co2 175  ASP175     -0.2456
    176  N         40.1610   36.0030   17.5300 N.am  176  PHE176     -0.1974
    177  CA        39.4210   35.2760   18.5470 C.3   176  PHE176      0.1639
    178  C         38.8500   36.2470   19.5710 C.2   176  PHE176      0.2290
    179  O         37.6540   36.5320   19.5710 O.2   176  PHE176     -0.2864
    180  CB        40.3160   34.2640   19.2540 C.3   176  PHE176      0.0560
    181  CG        40.7910   33.1570   18.3670 C.ar  176  PHE176     -0.0200
    182  CD1       42.0340   33.2260   17.7540 C.ar  176  PHE176     -0.0042
    183  CD2       39.9900   32.0500   18.1310 C.ar  176  PHE176     -0.0042
    184  CE1       42.4770   32.2070   16.9180 C.ar  176  PHE176     -0.0003
    185  CE2       40.4230   31.0340   17.3020 C.ar  176  PHE176     -0.0003
    186  CZ        41.6710   31.1130   16.6920 C.ar  176  PHE176     -0.0000
@<TRIPOS>BOND
     1    65    64    2
     2    64    63    1
     3    63    62    1
     4    63    66    1
     5   106   104   ar
     6   105   104   ar
     7   128   129    1
     8    68    66    1
     9    70    71    1
    10    57    56    2
    11    73    72    2
    12   104   103    1
    13    66    67    1
    14    76    74    1
    15   102   103    1
    16   102    99    1
    17    74    71    1
    18    74    75    1
    19   129   130    1
    20   129   132    1
    21    56    55    1
    22    71    72    1
    23   130   131    2
    24    72    77   am
    25    80    79    2
    26    79    78    1
    27    99    98    1
    28    99   100    1
    29    67    69    1
    30   135   133    1
    31    98    93   am
    32    49    48    2
    33   132   133    1
    34    77    78    1
    35   133   134    1
    36    55    58    1
    37    55    54    1
    38    78    81    1
    39   110   109    2
    40   107   100   am
    41   107   108    1
    42   100   101    2
    43    93    92    1
    44    93    94    2
    45    48    54   am
    46    48    47    1
    47    58    59    1
    48    92    91    1
    49    92    95    1
    50   161   159    1
    51    61    59    1
    52   109   108    1
    53   109   118   am
    54   123   122    1
    55   108   111    1
    56   154   155    1
    57    81    83    1
    58    81    82    1
    59    47    46    1
    60    47    50    1
    61    95    97    1
    62    95    96    1
    63   111   112    1
    64    59    60    1
    65   159   158    1
    66   119   118    1
    67   119   122    1
    68   119   120    1
    69   158   155    1
    70   158   160    1
    71   157   156    2
    72   149   148    2
    73    52    50    1
    74   155   156    1
    75   114   112   ar
    76   114   116   ar
    77    50    51    1
    78   112   113   ar
    79   156   162   am
    80   120   121    2
    81   148   147    1
    82    16    17    1
    83    51    53    1
    84    89    88    1
    85    40    39    2
    86   116   117   ar
    87    86    85    1
    88    86    87    2
    89   150   147    1
    90   150   151    1
    91    19    18    2
    92   113   115   ar
    93    85    88    1
    94    85    84    1
    95   147   146    1
    96   162   163    1
    97   152   151    1
    98    39    38    1
    99    17    18    1
   100    17    20    1
   101    88    90    1
   102    18    21   am
   103   163   166    1
   104   163   164    1
   105    27    25    1
   106   151   153    1
   107   117   115   ar
   108   166   167    1
   109   136   137    1
   110   143   141   ar
   111   143   145   ar
   112    21    22    1
   113    38    37    1
   114    38    41    1
   115   164   165    2
   116   164   168   am
   117    22    25    1
   118    22    23    1
   119    25    26    1
   120   124   125    1
   121   127   126    2
   122   140   137    1
   123   140   141    1
   124   137   138    1
   125    42    41    1
   126    42    43    1
   127   141   142   ar
   128   145   144   ar
   129   168   169    1
   130   126   125    1
   131    28    23   am
   132    28    29    1
   133    23    24    2
   134    44    43   ar
   135   172   169    1
   136   172   173    1
   137    43    45   ar
   138   144   142   ar
   139   169   170    1
   140   138   139    2
   141    31    30    2
   142    32    29    1
   143    32    33    1
   144     7     6    1
   145    29    30    1
   146   175   173   ar
   147   173   174   ar
   148    14    13    1
   149   171   170    2
   150   170   176   am
   151    34    33    1
   152    34    35    1
   153   186   184   ar
   154   186   185   ar
   155   184   182   ar
   156     8     6    1
   157     6     5    1
   158   185   183   ar
   159   176   177    1
   160    36    35    1
   161   182   181   ar
   162    13    15    1
   163    13    10    1
   164   183   181   ar
   165     5     2    1
   166    11    10    1
   167    11    12    2
   168    10     9    1
   169   181   180    1
   170   177   180    1
   171   177   178    1
   172     2     1    1
   173     2     3    1
   174   178   179    2
   175     3     4    2
