@<TRIPOS>MOLECULE
tmp/3dtwB00.pdb
 179 167 0 0 0
SMALL
GASTEIGER

@<TRIPOS>ATOM
      1  N         26.6940   -1.2570   15.7250 N.3    21  LEU21      -0.1245
      2  CA        27.8760   -1.2010   16.5670 C.3    21  LEU21       0.1561
      3  C         28.0250   -2.5000   17.3520 C.2    21  LEU21       0.2260
      4  O         29.0420   -3.1780   17.2370 O.2    21  LEU21      -0.2867
      5  CB        27.7780   -0.0160   17.5290 C.3    21  LEU21       0.0270
      6  CG        27.9060    1.3760   16.9120 C.3    21  LEU21       0.0019
      7  CD1       27.5320    2.4330   17.9160 C.3    21  LEU21       0.0001
      8  CD2       29.3260    1.5790   16.4440 C.3    21  LEU21       0.0001
      9  N         22.8540   -2.2030   19.4320 N.3    26  VAL26      -0.1245
     10  CA        23.1870   -0.7830   19.3160 C.3    26  VAL26       0.1561
     11  C         23.5530   -0.4220   17.8840 C.2    26  VAL26       0.2260
     12  O         24.1800   -1.2030   17.1820 O.2    26  VAL26      -0.2867
     13  CB        24.3780   -0.4030   20.2360 C.3    26  VAL26       0.0252
     14  CG1       24.7260    1.0690   20.0630 C.3    26  VAL26       0.0019
     15  CG2       24.0280   -0.6910   21.6920 C.3    26  VAL26       0.0019
     16  N         24.1010    7.3050   19.0410 N.3    44  ALA44      -0.1245
     17  CA        24.1060    5.8620   19.1470 C.3    44  ALA44       0.1562
     18  C         22.7080    5.4750   19.5840 C.2    44  ALA44       0.2260
     19  O         22.1920    6.0570   20.5250 O.2    44  ALA44      -0.2867
     20  CB        25.1230    5.4340   20.1750 C.3    44  ALA44       0.0290
     21  N         20.1030    2.3300   20.7930 N.3    46  LYS46      -0.1245
     22  CA        19.9010    0.9550   21.2390 C.3    46  LYS46       0.1561
     23  C         18.4270    0.6140   21.0180 C.2    46  LYS46       0.2260
     24  O         17.5480    1.2970   21.5370 O.2    46  LYS46      -0.2867
     25  CB        20.2680    0.8210   22.7220 C.3    46  LYS46       0.0271
     26  CG        20.1160   -0.5820   23.2600 C.3    46  LYS46       0.0035
     27  CD        20.6510   -0.7130   24.6760 C.3    46  LYS46       0.0206
     28  CE        20.4430   -2.1350   25.2070 C.3    46  LYS46       0.1093
     29  NZ        21.0250   -2.3420   26.5600 N.3    46  LYS46      -0.1314
     30  N         15.7940    0.5410   31.7960 N.3    60  GLU60      -0.1245
     31  CA        17.1870    0.9380   31.6100 C.3    60  GLU60       0.1567
     32  C         17.2360    2.4280   31.2590 C.2    60  GLU60       0.2260
     33  O         18.1550    3.1530   31.6510 O.2    60  GLU60      -0.2867
     34  CB        17.8370    0.1160   30.4970 C.3    60  GLU60       0.0388
     35  CG        19.2080    0.6250   30.1010 C.3    60  GLU60       0.1160
     36  CD        19.9110   -0.2760   29.1010 C.2    60  GLU60       0.3649
     37  OE1       20.9640    0.1340   28.5660 O.co2  60  GLU60      -0.2457
     38  OE2       19.4180   -1.3960   28.8550 O.co2  60  GLU60      -0.2457
     39  N         16.5320    4.6580   34.2790 N.3    63  ILE63      -0.1231
     40  CA        17.7030    4.6580   35.1550 C.3    63  ILE63       0.1692
     41  C         18.6670    5.7780   34.7410 C.2    63  ILE63       0.2591
     42  O         19.2410    6.4770   35.5790 O.2    63  ILE63      -0.2718
     43  CB        18.4400    3.3050   35.0870 C.3    63  ILE63       0.0266
     44  CG1       17.5680    2.2080   35.6950 C.3    63  ILE63       0.0019
     45  CG2       19.7630    3.3900   35.8270 C.3    63  ILE63       0.0020
     46  CD1       18.2140    0.8270   35.6790 C.3    63  ILE63       0.0001
     47  N         18.8360    5.9380   33.4350 N.am   64  LEU64      -0.1980
     48  CA        19.7080    6.9670   32.8900 C.3    64  LEU64       0.1596
     49  C         19.1090    8.3280   33.1870 C.2    64  LEU64       0.2287
     50  O         19.8250    9.2940   33.4610 O.2    64  LEU64      -0.2864
     51  CB        19.8550    6.7890   31.3760 C.3    64  LEU64       0.0297
     52  CG        20.8040    5.6690   30.9530 C.3    64  LEU64       0.0022
     53  CD1       20.6130    5.3720   29.4810 C.3    64  LEU64       0.0001
     54  CD2       22.2480    6.0730   31.2670 C.3    64  LEU64       0.0001
     55  N         19.8160    8.8270   37.0000 N.3    67  ILE67      -0.1245
     56  CA        21.1930    9.1440   37.3390 C.3    67  ILE67       0.1561
     57  C         21.5070   10.6140   37.0710 C.2    67  ILE67       0.2260
     58  O         22.1510   11.2890   37.8750 O.2    67  ILE67      -0.2867
     59  CB        22.1450    8.2590   36.5290 C.3    67  ILE67       0.0252
     60  CG1       21.9320    6.7950   36.9300 C.3    67  ILE67       0.0019
     61  CG2       23.5720    8.7160   36.7250 C.3    67  ILE67       0.0019
     62  CD1       22.7630    5.7940   36.1580 C.3    67  ILE67       0.0001
     63  N         29.8740    9.9210   32.2250 N.3    73  VAL73      -0.1231
     64  CA        28.9190    8.8410   32.0600 C.3    73  VAL73       0.1692
     65  C         28.2090    9.0770   30.7300 C.2    73  VAL73       0.2591
     66  O         27.6340   10.1520   30.5200 O.2    73  VAL73      -0.2718
     67  CB        27.8930    8.8090   33.1810 C.3    73  VAL73       0.0266
     68  CG1       26.9860    7.5970   33.0090 C.3    73  VAL73       0.0020
     69  CG2       28.6040    8.7800   34.5160 C.3    73  VAL73       0.0020
     70  N         28.2830    8.0890   29.8340 N.am   74  VAL74      -0.1980
     71  CA        27.6620    8.1680   28.5150 C.3    74  VAL74       0.1595
     72  C         26.3650    8.9700   28.6310 C.2    74  VAL74       0.2287
     73  O         25.5310    8.6870   29.4800 O.2    74  VAL74      -0.2864
     74  CB        27.3930    6.7430   27.9580 C.3    74  VAL74       0.0276
     75  CG1       26.3470    6.0350   28.8000 C.3    74  VAL74       0.0022
     76  CG2       26.9730    6.8140   26.5100 C.3    74  VAL74       0.0022
     77  N         16.5120    3.9670   22.5250 N.3    89  VAL89      -0.1245
     78  CA        17.1210    4.8320   23.5360 C.3    89  VAL89       0.1561
     79  C         18.3530    5.4430   22.8740 C.2    89  VAL89       0.2260
     80  O         19.2130    4.7230   22.3670 O.2    89  VAL89      -0.2867
     81  CB        17.5220    4.0470   24.8110 C.3    89  VAL89       0.0252
     82  CG1       18.3630    4.9290   25.7350 C.3    89  VAL89       0.0019
     83  CG2       16.2730    3.5880   25.5280 C.3    89  VAL89       0.0019
     84  N         21.8270    7.8580   22.8690 N.3    91  THR91      -0.1203
     85  CA        22.8980    8.4550   23.6630 C.3    91  THR91       0.1994
     86  C         23.9250    9.0840   22.7470 C.2    91  THR91       0.2618
     87  O         23.9750    8.8000   21.5530 O.2    91  THR91      -0.2717
     88  CB        23.6670    7.4280   24.5720 C.3    91  THR91       0.1784
     89  OG1       24.5020    6.5970   23.7680 O.3    91  THR91      -0.2211
     90  CG2       22.7180    6.5730   25.3610 C.3    91  THR91       0.0376
     91  N         24.7520    9.9360   23.3330 N.am   92  GLU92      -0.1965
     92  CA        25.8100   10.6200   22.6120 C.3    92  GLU92       0.1733
     93  C         26.7210    9.5780   21.9550 C.2    92  GLU92       0.2616
     94  O         26.8110    8.4460   22.4280 O.2    92  GLU92      -0.2715
     95  CB        26.6160   11.4510   23.5970 C.3    92  GLU92       0.0429
     96  CG        27.2340   10.6050   24.6730 C.3    92  GLU92       0.1163
     97  CD        28.3040   11.3370   25.4480 C.2    92  GLU92       0.3649
     98  OE1       29.2400   11.8740   24.8080 O.co2  92  GLU92      -0.2457
     99  OE2       28.2140   11.3660   26.6950 O.co2  92  GLU92      -0.2457
    100  N         27.3960    9.9500   20.8710 N.am   93  PHE93      -0.1960
    101  CA        28.3010    9.0150   20.1980 C.3    93  PHE93       0.1771
    102  C         29.7520    9.2580   20.6160 C.2    93  PHE93       0.2619
    103  O         30.2250   10.3950   20.6310 O.2    93  PHE93      -0.2715
    104  CB        28.1870    9.1620   18.6760 C.3    93  PHE93       0.0574
    105  CG        28.9590    8.1210   17.8890 C.ar   93  PHE93      -0.0200
    106  CD1       28.5540    6.7900   17.8760 C.ar   93  PHE93      -0.0042
    107  CD2       30.0520    8.4890   17.1070 C.ar   93  PHE93      -0.0042
    108  CE1       29.2140    5.8510   17.0940 C.ar   93  PHE93      -0.0003
    109  CE2       30.7170    7.5530   16.3250 C.ar   93  PHE93      -0.0003
    110  CZ        30.2940    6.2350   16.3180 C.ar   93  PHE93      -0.0000
    111  N         30.4520    8.1870   20.9670 N.am   94  CYS94      -0.1968
    112  CA        31.8510    8.2920   21.3510 C.3    94  CYS94       0.1712
    113  C         32.5490    7.5830   20.2100 C.2    94  CYS94       0.2296
    114  O         32.6050    6.3560   20.1760 O.2    94  CYS94      -0.2864
    115  CB        32.0980    7.5670   22.6760 C.3    94  CYS94       0.0983
    116  SG        30.9560    8.0210   23.9960 S.3    94  CYS94      -0.0798
    117  N         35.2810    4.2510   20.4950 N.3    97  GLY97      -0.1225
    118  CA        34.9620    2.9220   21.0080 C.3    97  GLY97       0.1811
    119  C         35.3680    2.5580   22.4340 C.2    97  GLY97       0.2280
    120  O         35.6970    3.4320   23.2410 O.2    97  GLY97      -0.2866
    121  N         28.0190    7.9620   40.2050 N.3   138  LEU138     -0.1245
    122  CA        27.0410    6.8690   40.2320 C.3   138  LEU138      0.1561
    123  C         26.7920    6.3220   41.6340 C.2   138  LEU138      0.2260
    124  O         25.6950    5.8450   41.9390 O.2   138  LEU138     -0.2867
    125  CB        27.4880    5.7140   39.3300 C.3   138  LEU138      0.0270
    126  CG        27.4520    5.8940   37.8100 C.3   138  LEU138      0.0019
    127  CD1       28.0460    4.6550   37.1720 C.3   138  LEU138      0.0001
    128  CD2       26.0270    6.1130   37.3170 C.3   138  LEU138      0.0001
    129  N         27.2250   -0.2960   39.5020 N.3   145  HIS145     -0.1241
    130  CA        27.4750   -0.6660   38.1150 C.3   145  HIS145      0.1621
    131  C         27.4430   -2.1650   37.8690 C.2   145  HIS145      0.2264
    132  O         26.7630   -2.6360   36.9520 O.2   145  HIS145     -0.2867
    133  CB        28.8030   -0.0970   37.6460 C.3   145  HIS145      0.0745
    134  CG        28.9820   -0.1600   36.1640 C.ar  145  HIS145      0.0817
    135  ND1       29.3290   -1.3170   35.5030 N.ar  145  HIS145     -0.2268
    136  CD2       28.8120    0.7830   35.2080 C.ar  145  HIS145      0.1154
    137  CE1       29.3660   -1.0850   34.2040 C.ar  145  HIS145      0.1986
    138  NE2       29.0550    0.1820   33.9980 N.ar  145  HIS145     -0.2212
    139  N         33.8390    4.0290   27.1270 N.3   154  LEU154     -0.1245
    140  CA        33.9640    4.6230   25.7950 C.3   154  LEU154      0.1561
    141  C         34.8890    5.8380   25.7990 C.2   154  LEU154      0.2260
    142  O         35.0000    6.5530   26.8000 O.2   154  LEU154     -0.2867
    143  CB        32.5910    5.0450   25.2750 C.3   154  LEU154      0.0270
    144  CG        31.4800    3.9950   25.3490 C.3   154  LEU154      0.0019
    145  CD1       30.1550    4.6330   24.9950 C.3   154  LEU154      0.0001
    146  CD2       31.7840    2.8390   24.4230 C.3   154  LEU154      0.0001
    147  N         31.5540    6.2890   31.0690 N.3   163  ILE163     -0.1231
    148  CA        31.1170    4.9790   31.5050 C.3   163  ILE163      0.1692
    149  C         29.8080    4.6480   30.8320 C.2   163  ILE163      0.2592
    150  O         28.9130    5.4790   30.7760 O.2   163  ILE163     -0.2718
    151  CB        30.8750    4.9260   33.0320 C.3   163  ILE163      0.0266
    152  CG1       32.1350    5.3380   33.7860 C.3   163  ILE163      0.0019
    153  CG2       30.4290    3.5140   33.4420 C.3   163  ILE163      0.0020
    154  CD1       31.9430    5.4000   35.2690 C.3   163  ILE163      0.0001
    155  N         29.7000    3.4380   30.3050 N.am  164  CYS164     -0.1956
    156  CA        28.4650    3.0070   29.6820 C.3   164  CYS164      0.1843
    157  C         28.1970    1.5770   30.1550 C.2   164  CYS164      0.2625
    158  O         28.8190    1.1130   31.1090 O.2   164  CYS164     -0.2714
    159  CB        28.5700    3.0910   28.1580 C.3   164  CYS164      0.0997
    160  SG        29.7520    1.9870   27.4150 S.3   164  CYS164     -0.0797
    161  N         27.2680    0.8820   29.5120 N.am  165  ASP165     -0.1957
    162  CA        26.9480   -0.4850   29.9090 C.3   165  ASP165      0.1840
    163  C         26.2750   -1.2010   28.7450 C.2   165  ASP165      0.2622
    164  O         25.1060   -0.9280   28.4400 O.2   165  ASP165     -0.2715
    165  CB        26.0040   -0.4620   31.1100 C.3   165  ASP165      0.1450
    166  CG        25.9030   -1.8050   31.8040 C.2   165  ASP165      0.3671
    167  OD1       25.8230   -2.8390   31.1090 O.co2 165  ASP165     -0.2456
    168  OD2       25.8900   -1.8260   33.0530 O.co2 165  ASP165     -0.2456
    169  N         27.0050   -2.1070   28.0950 N.am  166  PHE166     -0.1974
    170  CA        26.4560   -2.8530   26.9630 C.3   166  PHE166      0.1639
    171  C         25.6540   -4.0890   27.3720 C.2   166  PHE166      0.2290
    172  O         24.4260   -4.0550   27.4110 O.2   166  PHE166     -0.2864
    173  CB        27.5640   -3.2880   26.0090 C.3   166  PHE166      0.0560
    174  CG        28.2720   -2.1530   25.3380 C.ar  166  PHE166     -0.0200
    175  CD1       29.4590   -1.6580   25.8490 C.ar  166  PHE166     -0.0042
    176  CD2       27.7670   -1.5990   24.1780 C.ar  166  PHE166     -0.0042
    177  CE1       30.1260   -0.6420   25.2150 C.ar  166  PHE166     -0.0003
    178  CE2       28.4330   -0.5800   23.5410 C.ar  166  PHE166     -0.0003
    179  CZ        29.6130   -0.1020   24.0590 C.ar  166  PHE166     -0.0000
@<TRIPOS>BOND
     1     1     2    1
     2   110   109   ar
     3   110   108   ar
     4   109   107   ar
     5     8     6    1
     6     2     3    1
     7     2     5    1
     8     6     5    1
     9     6     7    1
    10   108   106   ar
    11   107   105   ar
    12    12    11    2
    13     4     3    2
    14   106   105   ar
    15    11    10    1
    16   105   104    1
    17   104   101    1
    18    16    17    1
    19    17    18    1
    20    17    20    1
    21    10     9    1
    22    10    13    1
    23    18    19    2
    24    14    13    1
    25   114   113    2
    26   101   102    1
    27   101   100    1
    28   113   112    1
    29    13    15    1
    30   117   118    1
    31   102   103    2
    32   102   111   am
    33    21    22    1
    34   100    93   am
    35   111   112    1
    36   118   119    1
    37    23    22    1
    38    23    24    2
    39    22    25    1
    40   112   115    1
    41    87    86    2
    42    93    94    2
    43    93    92    1
    44    80    79    2
    45   119   120    2
    46    77    78    1
    47    92    91    1
    48    92    95    1
    49   115   116    1
    50    25    26    1
    51    86    91   am
    52    86    85    1
    53    84    85    1
    54    79    78    1
    55    26    27    1
    56    78    81    1
    57   178   179   ar
    58   178   176   ar
    59    95    96    1
    60    85    88    1
    61    89    88    1
    62   179   177   ar
    63   176   174   ar
    64   146   144    1
    65    88    90    1
    66    96    97    1
    67    27    28    1
    68    98    97   ar
    69    81    83    1
    70    81    82    1
    71   145   144    1
    72    28    29    1
    73   177   175   ar
    74   143   144    1
    75   143   140    1
    76   174   175   ar
    77   174   173    1
    78    97    99   ar
    79   140   141    1
    80   140   139    1
    81   141   142    2
    82   173   170    1
    83    76    74    1
    84   170   171    1
    85   170   169    1
    86   171   172    2
    87   160   159    1
    88    74    71    1
    89    74    75    1
    90   169   163   am
    91   159   156    1
    92   164   163    2
    93    71    72    1
    94    71    70    1
    95    37    36   ar
    96    72    73    2
    97   163   162    1
    98    38    36   ar
    99    36    35    1
   100    53    52    1
   101   161   162    1
   102   161   157   am
   103   156   157    1
   104   156   155    1
   105    70    65   am
   106   162   165    1
   107    35    34    1
   108   157   158    2
   109   155   149   am
   110    34    31    1
   111    66    65    2
   112    65    64    1
   113   150   149    2
   114   149   148    1
   115    52    54    1
   116    52    51    1
   117   147   148    1
   118   167   166   ar
   119   165   166    1
   120    32    31    1
   121    32    33    2
   122    51    48    1
   123   148   151    1
   124    31    30    1
   125   166   168   ar
   126    64    63    1
   127    64    67    1
   128    48    49    1
   129    48    47    1
   130    68    67    1
   131   151   153    1
   132   151   152    1
   133    67    69    1
   134    49    50    2
   135    47    41   am
   136   152   154    1
   137   138   137   ar
   138   138   136   ar
   139   137   135   ar
   140    39    40    1
   141    41    40    1
   142    41    42    2
   143    43    40    1
   144    43    44    1
   145    43    45    1
   146   136   134   ar
   147   135   134   ar
   148    46    44    1
   149    62    60    1
   150   134   133    1
   151    59    61    1
   152    59    60    1
   153    59    56    1
   154   132   131    2
   155    55    56    1
   156    57    56    1
   157    57    58    2
   158   127   126    1
   159   128   126    1
   160   133   130    1
   161   126   125    1
   162   131   130    1
   163   130   129    1
   164   125   122    1
   165   121   122    1
   166   122   123    1
   167   123   124    2
