@<TRIPOS>MOLECULE
tmp/3dtxA00.pdb
 173 163 0 0 0
SMALL
GASTEIGER

@<TRIPOS>ATOM
      1  N         10.0530    2.6700  -16.3480 N.3    62  ARG62      -0.1245
      2  CA         9.0920    1.6410  -15.9710 C.3    62  ARG62       0.1563
      3  C          8.8290    1.6470  -14.4610 C.2    62  ARG62       0.2260
      4  O          7.6780    1.6220  -14.0410 O.2    62  ARG62      -0.2867
      5  CB         9.5750    0.2590  -16.4400 C.3    62  ARG62       0.0307
      6  CG         8.6730   -0.8880  -16.0550 C.3    62  ARG62       0.0489
      7  CD         9.2440   -2.2050  -16.5350 C.3    62  ARG62       0.2205
      8  NE         8.3450   -3.3450  -16.3120 N.pl3  62  ARG62      -0.0865
      9  CZ         8.2330   -4.0150  -15.1650 C.cat  62  ARG62       0.5346
     10  NH1        8.9400   -3.6610  -14.0950 N.pl3  62  ARG62       0.1354
     11  NH2        7.3960   -5.0360  -15.0790 N.pl3  62  ARG62       0.1354
     12  N          1.1610    4.3660  -11.0610 N.3    69  ALA69      -0.1231
     13  CA         0.0000    3.4920  -11.1640 C.3    69  ALA69       0.1694
     14  C         -0.4730    3.0360   -9.7770 C.2    69  ALA69       0.2591
     15  O         -1.6650    3.0920   -9.4770 O.2    69  ALA69      -0.2718
     16  CB         0.3200    2.2900  -12.0390 C.3    69  ALA69       0.0304
     17  N          0.4680    2.5950   -8.9410 N.am   70  LYS70      -0.1980
     18  CA         0.1650    2.1270   -7.5940 C.3    70  LYS70       0.1596
     19  C         -0.4640    3.2290   -6.7370 C.2    70  LYS70       0.2287
     20  O         -1.4630    2.9890   -6.0700 O.2    70  LYS70      -0.2864
     21  CB         1.4210    1.5190   -6.9420 C.3    70  LYS70       0.0298
     22  CG         1.3160    1.2540   -5.4490 C.3    70  LYS70       0.0038
     23  CD         0.5880   -0.0260   -5.1040 C.3    70  LYS70       0.0206
     24  CE         0.4920   -0.1550   -3.5870 C.3    70  LYS70       0.1093
     25  NZ        -0.4550   -1.2040   -3.2200 N.3    70  LYS70      -0.1314
     26  N         -3.9910    3.5740   -8.0150 N.3    73  THR73      -0.1218
     27  CA        -4.7400    2.4250   -7.5070 C.3    73  THR73       0.1862
     28  C         -5.1050    2.6290   -6.0330 C.2    73  THR73       0.2287
     29  O         -6.2570    2.4410   -5.6450 O.2    73  THR73      -0.2866
     30  CB        -3.9650    1.1000   -7.6760 C.3    73  THR73       0.1770
     31  OG1       -3.5930    0.9370   -9.0520 O.3    73  THR73      -0.2211
     32  CG2       -4.8310   -0.0770   -7.2550 C.3    73  THR73       0.0375
     33  N         -8.0270    5.1580   -5.2990 N.3    76  GLU76      -0.1231
     34  CA        -9.3210    4.4820   -5.5010 C.3    76  GLU76       0.1699
     35  C         -9.6200    3.4730   -4.3890 C.2    76  GLU76       0.2592
     36  O        -10.7210    3.4580   -3.8490 O.2    76  GLU76      -0.2718
     37  CB        -9.3960    3.8050   -6.8760 C.3    76  GLU76       0.0402
     38  CG       -10.7660    3.1910   -7.2010 C.3    76  GLU76       0.1161
     39  CD       -11.8700    4.2350   -7.3680 C.2    76  GLU76       0.3649
     40  OE1      -12.7510    4.3320   -6.4820 O.co2  76  GLU76      -0.2457
     41  OE2      -11.8510    4.9680   -8.3780 O.co2  76  GLU76      -0.2457
     42  N         -8.6380    2.6380   -4.0560 N.am   77  ASP77      -0.1974
     43  CA        -8.7720    1.6750   -2.9660 C.3    77  ASP77       0.1709
     44  C         -9.1690    2.3070   -1.6390 C.2    77  ASP77       0.2293
     45  O         -9.9100    1.7060   -0.8800 O.2    77  ASP77      -0.2864
     46  CB        -7.4780    0.8810   -2.7700 C.3    77  ASP77       0.1436
     47  CG        -7.2590   -0.1520   -3.8490 C.2    77  ASP77       0.3671
     48  OD1       -8.0900   -0.2790   -4.7790 O.co2  77  ASP77      -0.2456
     49  OD2       -6.2250   -0.8330   -3.7800 O.co2  77  ASP77      -0.2456
     50  N        -12.8590    3.1510   -1.8380 N.3    80  THR80      -0.1203
     51  CA       -13.5080    1.8550   -1.6450 C.3    80  THR80       0.1994
     52  C        -13.6160    1.4400   -0.1740 C.2    80  THR80       0.2617
     53  O        -14.6910    1.0310    0.2790 O.2    80  THR80      -0.2717
     54  CB       -12.7570    0.7810   -2.4370 C.3    80  THR80       0.1784
     55  OG1      -12.8090    1.1230   -3.8190 O.3    80  THR80      -0.2211
     56  CG2      -13.3640   -0.5930   -2.2490 C.3    80  THR80       0.0376
     57  N        -12.5210    1.5630    0.5750 N.am   81  LEU81      -0.1979
     58  CA       -12.5090    1.1690    2.0070 C.3    81  LEU81       0.1596
     59  C        -13.4000    2.0060    2.9120 C.2    81  LEU81       0.2287
     60  O        -13.9020    1.5180    3.9250 O.2    81  LEU81      -0.2864
     61  CB       -11.0760    1.1350    2.5490 C.3    81  LEU81       0.0297
     62  CG       -10.1850    0.0860    1.8830 C.3    81  LEU81       0.0022
     63  CD1       -8.7060    0.5170    1.9120 C.3    81  LEU81       0.0001
     64  CD2      -10.3690   -1.2680    2.5140 C.3    81  LEU81       0.0001
     65  N        -16.5540    0.0350    2.5370 N.3    84  TYR84      -0.1241
     66  CA       -16.5120   -1.2710    3.2260 C.3    84  TYR84       0.1605
     67  C        -16.6230   -1.1240    4.7350 C.2    84  TYR84       0.2264
     68  O        -17.1410   -2.0060    5.4050 O.2    84  TYR84      -0.2867
     69  CB       -15.1990   -2.0160    2.9320 C.3    84  TYR84       0.0534
     70  CG       -14.9900   -2.5460    1.5250 C.ar   84  TYR84      -0.0201
     71  CD1      -15.8780   -2.2600    0.4940 C.ar   84  TYR84      -0.0009
     72  CD2      -13.8630   -3.3120    1.2250 C.ar   84  TYR84      -0.0009
     73  CE1      -15.6620   -2.7380   -0.7910 C.ar   84  TYR84       0.0417
     74  CE2      -13.6390   -3.7930   -0.0540 C.ar   84  TYR84       0.0417
     75  CZ       -14.5490   -3.5060   -1.0560 C.ar   84  TYR84       0.1957
     76  OH       -14.3330   -3.9850   -2.3350 O.3    84  TYR84      -0.2866
     77  N         -3.3810    3.1520    3.9420 N.3    95  LEU95      -0.1245
     78  CA        -3.2930    1.8860    3.2340 C.3    95  LEU95       0.1561
     79  C         -1.8040    1.5280    3.0840 C.2    95  LEU95       0.2260
     80  O         -1.0080    2.3460    2.6050 O.2    95  LEU95      -0.2867
     81  CB        -3.8930    2.0370    1.8430 C.3    95  LEU95       0.0270
     82  CG        -4.9670    1.0790    1.3480 C.3    95  LEU95       0.0019
     83  CD1       -4.9760    1.1970   -0.1780 C.3    95  LEU95       0.0001
     84  CD2       -4.7350   -0.3740    1.7960 C.3    95  LEU95       0.0001
     85  N          2.9670  -11.1200    0.0350 N.3   114  HIS114     -0.1241
     86  CA         2.1670  -10.0090   -0.4520 C.3   114  HIS114      0.1621
     87  C          1.0720   -9.7780    0.5650 C.2   114  HIS114      0.2264
     88  O          0.2000  -10.6340    0.7480 O.2   114  HIS114     -0.2867
     89  CB         1.5580  -10.3260   -1.8180 C.3   114  HIS114      0.0745
     90  CG         0.8180   -9.1800   -2.4280 C.ar  114  HIS114      0.0817
     91  ND1       -0.4210   -8.7700   -1.9840 N.ar  114  HIS114     -0.2268
     92  CD2        1.1320   -8.3720   -3.4670 C.ar  114  HIS114      0.1154
     93  CE1       -0.8300   -7.7480   -2.7150 C.ar  114  HIS114      0.1986
     94  NE2        0.0930   -7.4890   -3.6220 N.ar  114  HIS114     -0.2212
     95  N         -1.5230   -6.6280    2.6590 N.3   116  ASP116     -0.1239
     96  CA        -2.0430   -5.2880    2.8030 C.3   116  ASP116      0.1674
     97  C         -2.5730   -5.0420    4.2110 C.2   116  ASP116      0.2266
     98  O         -3.0280   -5.9720    4.8970 O.2   116  ASP116     -0.2867
     99  CB        -3.1360   -5.0230    1.7680 C.3   116  ASP116      0.1410
    100  CG        -2.6130   -5.0880    0.3390 C.2   116  ASP116      0.3668
    101  OD1       -2.4950   -6.1920   -0.2100 O.co2 116  ASP116     -0.2456
    102  OD2       -2.3210   -4.0370   -0.2360 O.co2 116  ASP116     -0.2456
    103  N         -5.2820   -6.5550    6.7490 N.3   123  TYR123     -0.1241
    104  CA        -6.4410   -6.5050    5.8670 C.3   123  TYR123      0.1605
    105  C         -6.5390   -7.8240    5.1240 C.2   123  TYR123      0.2264
    106  O         -7.3690   -8.6570    5.4530 O.2   123  TYR123     -0.2867
    107  CB        -6.3670   -5.3160    4.8890 C.3   123  TYR123      0.0534
    108  CG        -7.6200   -5.1790    4.0440 C.ar  123  TYR123     -0.0201
    109  CD1       -8.8210   -4.6960    4.5990 C.ar  123  TYR123     -0.0009
    110  CD2       -7.6130   -5.5440    2.6920 C.ar  123  TYR123     -0.0009
    111  CE1       -9.9750   -4.5960    3.8290 C.ar  123  TYR123      0.0417
    112  CE2       -8.7580   -5.4550    1.9230 C.ar  123  TYR123      0.0417
    113  CZ        -9.9310   -4.9790    2.4940 C.ar  123  TYR123      0.1957
    114  OH       -11.0500   -4.8930    1.7200 O.3   123  TYR123     -0.2866
    115  N        -12.7590   -8.1960   -0.9190 N.3   143  THR143     -0.1218
    116  CA       -11.5460   -8.1280   -1.7380 C.3   143  THR143      0.1862
    117  C        -11.1180   -9.5360   -2.1680 C.2   143  THR143      0.2287
    118  O        -10.8160   -9.7710   -3.3470 O.2   143  THR143     -0.2866
    119  CB       -10.3980   -7.4040   -1.0030 C.3   143  THR143      0.1770
    120  OG1      -10.7790   -6.0470   -0.7350 O.3   143  THR143     -0.2211
    121  CG2       -9.1300   -7.4170   -1.8450 C.3   143  THR143      0.0375
    122  N        -13.1110  -10.9180   -5.0720 N.3   146  LYS146     -0.1231
    123  CA       -12.7460  -10.2590   -6.3230 C.3   146  LYS146      0.1693
    124  C        -11.4020  -10.7410   -6.8430 C.2   146  LYS146      0.2592
    125  O        -11.2230  -10.9200   -8.0490 O.2   146  LYS146     -0.2718
    126  CB       -12.7050   -8.7370   -6.1560 C.3   146  LYS146      0.0285
    127  CG       -14.0550   -8.1080   -5.8540 C.3   146  LYS146      0.0035
    128  CD       -14.1240   -6.6910   -6.3840 C.3   146  LYS146      0.0206
    129  CE       -13.4270   -5.7210   -5.4680 C.3   146  LYS146      0.1093
    130  NZ       -13.6330   -4.3160   -5.9500 N.3   146  LYS146     -0.1314
    131  N        -10.4550  -10.9420   -5.9320 N.am  147  TRP147     -0.1976
    132  CA        -9.1180  -11.4040   -6.2980 C.3   147  TRP147      0.1640
    133  C         -9.1110  -12.8880   -6.6720 C.2   147  TRP147      0.2290
    134  O         -8.3110  -13.3230   -7.5020 O.2   147  TRP147     -0.2864
    135  CB        -8.1240  -11.0860   -5.1770 C.3   147  TRP147      0.0576
    136  CG        -7.8310   -9.6040   -5.0830 C.ar  147  TRP147      0.0006
    137  CD1       -8.4410   -8.5960   -5.7920 C.ar  147  TRP147      0.0946
    138  CD2       -6.8820   -8.9590   -4.2190 C.ar  147  TRP147      0.0152
    139  NE1       -7.9110   -7.3800   -5.4420 N.ar  147  TRP147     -0.2442
    140  CE2       -6.9530   -7.5720   -4.4810 C.ar  147  TRP147      0.0810
    141  CE3       -5.9560   -9.4200   -3.2780 C.ar  147  TRP147      0.0012
    142  CZ2       -6.1500   -6.6420   -3.8130 C.ar  147  TRP147      0.0191
    143  CZ3       -5.1580   -8.4880   -2.6180 C.ar  147  TRP147      0.0001
    144  CH2       -5.2630   -7.1190   -2.8900 C.ar  147  TRP147      0.0015
    145  N        -10.5080  -12.8540  -10.2260 N.3   150  ALA150     -0.1245
    146  CA        -9.5710  -12.2480  -11.1660 C.3   150  ALA150      0.1562
    147  C         -8.2630  -13.0210  -11.2670 C.2   150  ALA150      0.2260
    148  O         -7.3940  -12.6650  -12.0640 O.2   150  ALA150     -0.2867
    149  CB        -9.3050  -10.8020  -10.7930 C.3   150  ALA150      0.0290
    150  N         -5.7410  -13.2650   -9.0790 N.3   152  VAL152     -0.1245
    151  CA        -4.6290  -12.4100   -8.6600 C.3   152  VAL152      0.1561
    152  C         -3.4840  -13.2030   -8.0250 C.2   152  VAL152      0.2260
    153  O         -2.3270  -12.9140   -8.3000 O.2   152  VAL152     -0.2867
    154  CB        -5.0870  -11.2850   -7.7020 C.3   152  VAL152      0.0252
    155  CG1       -3.8980  -10.4910   -7.2030 C.3   152  VAL152      0.0019
    156  CG2       -6.0690  -10.3570   -8.3920 C.3   152  VAL152      0.0019
    157  N         -1.1210  -14.4880  -10.5790 N.3   155  GLN155     -0.1231
    158  CA        -0.2600  -13.4210  -11.1160 C.3   155  GLN155      0.1698
    159  C          0.8990  -13.0850  -10.1710 C.2   155  GLN155      0.2592
    160  O          2.0390  -12.9290  -10.6040 O.2   155  GLN155     -0.2718
    161  CB        -1.0750  -12.1560  -11.3920 C.3   155  GLN155      0.0381
    162  CG        -2.1420  -12.3230  -12.4620 C.3   155  GLN155      0.0905
    163  CD        -3.1090  -11.1590  -12.5100 C.2   155  GLN155      0.2608
    164  OE1       -2.6980   -9.9960  -12.5610 O.2   155  GLN155     -0.2717
    165  NE2       -4.4100  -11.4640  -12.5050 N.am  155  GLN155     -0.0878
    166  N          0.5960  -12.9690   -8.8820 N.am  156  LEU156     -0.1980
    167  CA         1.6230  -12.7350   -7.8750 C.3   156  LEU156      0.1596
    168  C          2.6110  -13.8960   -7.7970 C.2   156  LEU156      0.2287
    169  O          3.8120  -13.6810   -7.5920 O.2   156  LEU156     -0.2864
    170  CB         0.9920  -12.5000   -6.5040 C.3   156  LEU156      0.0297
    171  CG         0.1730  -11.2150   -6.3960 C.3   156  LEU156      0.0022
    172  CD1       -0.5820  -11.1940   -5.0710 C.3   156  LEU156      0.0001
    173  CD2        1.1180  -10.0400   -6.5030 C.3   156  LEU156      0.0001
@<TRIPOS>BOND
     1     7     8    1
     2     7     6    1
     3     5     6    1
     4     5     2    1
     5     1     2    1
     6     8     9    2
     7     2     3    1
     8     9    11    1
     9     9    10    1
    10     3     4    2
    11   164   163    2
    12   163   165   am
    13   163   162    1
    14   162   161    1
    15   148   147    2
    16    16    13    1
    17   161   158    1
    18   147   146    1
    19   146   149    1
    20   146   145    1
    21    13    12    1
    22    13    14    1
    23   158   157    1
    24   158   159    1
    25   160   159    2
    26   159   166   am
    27    14    15    2
    28    14    17   am
    29   150   151    1
    30    31    30    1
    31    17    18    1
    32   166   167    1
    33   151   152    1
    34   151   154    1
    35   156   154    1
    36    41    39   ar
    37   153   152    2
    38   125   124    2
    39    26    27    1
    40   167   168    1
    41   167   170    1
    42   168   169    2
    43   154   155    1
    44    30    27    1
    45    30    32    1
    46    18    21    1
    47    18    19    1
    48    27    28    1
    49   134   133    2
    50    39    38    1
    51    39    40   ar
    52    38    37    1
    53    21    22    1
    54    37    34    1
    55   124   123    1
    56   124   131   am
    57    19    20    2
    58   133   132    1
    59   170   171    1
    60   173   171    1
    61   171   172    1
    62   128   127    1
    63   128   129    1
    64   123   126    1
    65   123   122    1
    66   132   131    1
    67   132   135    1
    68   126   127    1
    69    28    29    2
    70   130   129    1
    71   137   139   ar
    72   137   136   ar
    73    34    33    1
    74    34    35    1
    75    22    23    1
    76   139   140   ar
    77   135   136    1
    78    23    24    1
    79   136   138   ar
    80    48    47   ar
    81   140   138   ar
    82   140   142   ar
    83    35    42   am
    84    35    36    2
    85   138   141   ar
    86    42    43    1
    87    47    49   ar
    88    47    46    1
    89    55    54    1
    90   142   144   ar
    91    94    92   ar
    92    94    93   ar
    93    24    25    1
    94    92    90   ar
    95   118   117    2
    96   141   143   ar
    97    43    46    1
    98    43    44    1
    99   144   143   ar
   100    93    91   ar
   101    54    56    1
   102    54    51    1
   103    90    91   ar
   104    90    89    1
   105    76    75    1
   106   117   116    1
   107   121   119    1
   108    50    51    1
   109    89    86    1
   110   116   119    1
   111   116   115    1
   112    51    52    1
   113    44    45    2
   114    75    73   ar
   115    75    74   ar
   116   119   120    1
   117    73    71   ar
   118    86    85    1
   119    86    87    1
   120   102   100   ar
   121   101   100   ar
   122    83    82    1
   123    52    53    2
   124    52    57   am
   125    74    72   ar
   126   100    99    1
   127    71    70   ar
   128    87    88    2
   129    57    58    1
   130    72    70   ar
   131    82    84    1
   132    82    81    1
   133    70    69    1
   134   114   113    1
   135    99    96    1
   136    81    78    1
   137    62    63    1
   138    62    64    1
   139    62    61    1
   140   112   113   ar
   141   112   110   ar
   142    58    61    1
   143    58    59    1
   144   113   111   ar
   145    65    66    1
   146    80    79    2
   147    95    96    1
   148   110   108   ar
   149    96    97    1
   150    59    60    2
   151    69    66    1
   152    79    78    1
   153    66    67    1
   154    78    77    1
   155   111   109   ar
   156   108   109   ar
   157   108   107    1
   158    97    98    2
   159    67    68    2
   160   107   104    1
   161   105   106    2
   162   105   104    1
   163   104   103    1
