@<TRIPOS>MOLECULE
tmp/3du4A00.pdb
 101 98 0 0 0
SMALL
GASTEIGER

@<TRIPOS>ATOM
      1  N          5.7540   15.9110   12.2080 N.3    54  TRP54      -0.1241
      2  CA         4.4010   15.4420   12.4860 C.3    54  TRP54       0.1605
      3  C          3.7990   16.0400   13.7470 C.2    54  TRP54       0.2264
      4  O          2.8980   15.4690   14.3520 O.2    54  TRP54      -0.2867
      5  CB         4.3490   13.9020   12.5100 C.3    54  TRP54       0.0550
      6  CG         5.2220   13.2200   11.4600 C.ar   54  TRP54       0.0003
      7  CD1        5.7640   13.7860   10.3390 C.ar   54  TRP54       0.0946
      8  CD2        5.6100   11.8380   11.4350 C.ar   54  TRP54       0.0152
      9  NE1        6.4800   12.8450    9.6300 N.ar   54  TRP54      -0.2442
     10  CE2        6.3950   11.6430   10.2800 C.ar   54  TRP54       0.0810
     11  CE3        5.3640   10.7460   12.2770 C.ar   54  TRP54       0.0012
     12  CZ2        6.9510   10.4030    9.9520 C.ar   54  TRP54       0.0191
     13  CZ3        5.9080    9.5190   11.9470 C.ar   54  TRP54       0.0001
     14  CH2        6.6970    9.3570   10.7920 C.ar   54  TRP54       0.0015
     15  N          7.3750   12.7650   26.1900 N.3   112  SER112     -0.1202
     16  CA         7.4960   12.3510   24.8020 C.3   112  SER112      0.2020
     17  C          6.6300   11.1240   24.5060 C.2   112  SER112      0.2619
     18  O          6.2120   10.4210   25.4360 O.2   112  SER112     -0.2717
     19  CB         8.9550   12.0390   24.5010 C.3   112  SER112      0.2103
     20  OG         9.3090   10.8870   25.2120 O.3   112  SER112     -0.2182
     21  N          6.3530   10.8900   23.2210 N.am  113  GLY113     -0.1942
     22  CA         5.5970    9.7050   22.7780 C.3   113  GLY113      0.2014
     23  C          6.1420    8.3720   23.2580 C.2   113  GLY113      0.2638
     24  O          5.3830    7.5100   23.6650 O.2   113  GLY113     -0.2714
     25  N          7.4640    8.2180   23.2450 N.am  114  ALA114     -0.1977
     26  CA         8.1260    7.0000   23.6900 C.3   114  ALA114      0.1597
     27  C          7.8850    6.8040   25.1740 C.2   114  ALA114      0.2287
     28  O          7.6480    5.6850   25.6380 O.2   114  ALA114     -0.2864
     29  CB         9.6130    7.0830   23.4090 C.3   114  ALA114      0.0319
     30  N          6.0280    0.9950   15.1960 N.3   146  TYR146     -0.1227
     31  CA         7.0270    1.8650   15.7700 C.3   146  TYR146      0.1736
     32  C          6.3980    2.5790   16.9480 C.2   146  TYR146      0.2595
     33  O          5.3240    3.1970   16.8130 O.2   146  TYR146     -0.2718
     34  CB         7.5210    2.8800   14.7420 C.3   146  TYR146      0.0548
     35  CG         8.4460    3.9180   15.3380 C.ar  146  TYR146     -0.0200
     36  CD1        9.7850    3.6200   15.5940 C.ar  146  TYR146     -0.0009
     37  CD2        7.9850    5.1920   15.6430 C.ar  146  TYR146     -0.0009
     38  CE1       10.6420    4.5730   16.1540 C.ar  146  TYR146      0.0417
     39  CE2        8.8270    6.1470   16.1880 C.ar  146  TYR146      0.0417
     40  CZ        10.1540    5.8340   16.4440 C.ar  146  TYR146      0.1957
     41  OH        10.9980    6.7790   16.9900 O.3   146  TYR146     -0.2866
     42  N          7.0540    2.5070   18.1040 N.am  147  HIS147     -0.1961
     43  CA         6.4680    3.1120   19.2980 C.3   147  HIS147      0.1787
     44  C          7.3940    4.0490   20.0530 C.2   147  HIS147      0.2621
     45  O          7.0730    4.4900   21.1570 O.2   147  HIS147     -0.2715
     46  CB         5.9300    2.0230   20.2330 C.3   147  HIS147      0.0785
     47  CG         4.7810    1.2550   19.6560 C.ar  147  HIS147      0.0821
     48  ND1        3.5460    1.8240   19.4260 N.ar  147  HIS147     -0.2267
     49  CD2        4.6790   -0.0360   19.2600 C.ar  147  HIS147      0.1154
     50  CE1        2.7350    0.9190   18.9110 C.ar  147  HIS147      0.1986
     51  NE2        3.3950   -0.2200   18.8060 N.ar  147  HIS147     -0.2212
     52  N          8.5550    4.3300   19.4760 N.am  148  GLY148     -0.1940
     53  CA         9.5180    5.2080   20.1350 C.3   148  GLY148      0.2014
     54  C         10.8240    4.4880   20.2890 C.2   148  GLY148      0.2638
     55  O         10.9220    3.3210   19.9380 O.2   148  GLY148     -0.2714
     56  N         11.8110    5.1740   20.8530 N.am  149  ASP149     -0.1971
     57  CA        13.2090    4.7430   20.7710 C.3   149  ASP149      0.1709
     58  C         13.7780    4.1700   22.0590 C.2   149  ASP149      0.2293
     59  O         14.7680    3.4470   22.0340 O.2   149  ASP149     -0.2864
     60  CB        14.1070    5.8990   20.2910 C.3   149  ASP149      0.1436
     61  CG        13.5940    6.5530   19.0170 C.2   149  ASP149      0.3671
     62  OD1       13.6570    7.8020   18.9320 O.co2 149  ASP149     -0.2456
     63  OD2       13.1150    5.8210   18.1120 O.co2 149  ASP149     -0.2456
     64  N         -0.3330    0.9180   16.5650 N.3   216  GLU216     -0.1245
     65  CA        -0.5290    2.2600   16.0600 C.3   216  GLU216      0.1567
     66  C         -1.9560    2.4150   15.5680 C.2   216  GLU216      0.2260
     67  O         -2.5510    1.4730   15.0630 O.2   216  GLU216     -0.2867
     68  CB         0.4500    2.5680   14.9330 C.3   216  GLU216      0.0388
     69  CG         1.8460    2.8560   15.4200 C.3   216  GLU216      0.1160
     70  CD         2.8320    2.9200   14.2810 C.2   216  GLU216      0.3649
     71  OE1        3.3670    1.8620   13.8880 O.co2 216  GLU216     -0.2457
     72  OE2        3.0690    4.0350   13.7730 O.co2 216  GLU216     -0.2457
     73  N         -1.3970    3.5340   20.0720 N.3   250  ASP250     -0.1239
     74  CA        -0.4820    4.6340   19.8230 C.3   250  ASP250      0.1674
     75  C         -1.0770    5.7230   18.9140 C.2   250  ASP250      0.2266
     76  O         -1.1370    5.5380   17.6960 O.2   250  ASP250     -0.2867
     77  CB         0.7810    4.0940   19.1690 C.3   250  ASP250      0.1410
     78  CG         1.9980    4.9570   19.4350 C.2   250  ASP250      0.3668
     79  OD1        1.8470    6.1810   19.6050 O.co2 250  ASP250     -0.2456
     80  OD2        3.1150    4.4000   19.4760 O.co2 250  ASP250     -0.2456
     81  N          0.3340    8.9230   18.9630 N.3   252  VAL252     -0.1231
     82  CA         1.3470    9.9920   18.9900 C.3   252  VAL252      0.1692
     83  C          1.4250   10.7770   17.6680 C.2   252  VAL252      0.2591
     84  O          1.4390   12.0160   17.6630 O.2   252  VAL252     -0.2718
     85  CB         2.7370    9.4870   19.4430 C.3   252  VAL252      0.0266
     86  CG1        3.7080   10.6400   19.4860 C.3   252  VAL252      0.0020
     87  CG2        2.6510    8.8980   20.8170 C.3   252  VAL252      0.0020
     88  N          1.4090   10.0550   16.5530 N.am  253  ALA253     -0.1980
     89  CA         1.4610   10.6650   15.2250 C.3   253  ALA253      0.1597
     90  C          0.0690   11.0380   14.6510 C.2   253  ALA253      0.2287
     91  O         -0.1150   12.1370   14.1330 O.2   253  ALA253     -0.2864
     92  CB         2.2440    9.7410   14.2590 C.3   253  ALA253      0.0319
     93  N          3.3620   14.6560   20.2920 N.3   279  LYS279     -0.1245
     94  CA         3.5950   15.4920   19.1040 C.3   279  LYS279      0.1561
     95  C          2.6960   16.7510   19.0140 C.2   279  LYS279      0.2260
     96  O          3.0170   17.7820   19.6020 O.2   279  LYS279     -0.2867
     97  CB         3.5450   14.6370   17.8190 C.3   279  LYS279      0.0271
     98  CG         4.6880   13.5860   17.6810 C.3   279  LYS279      0.0035
     99  CD         4.5820   12.8590   16.3450 C.3   279  LYS279      0.0206
    100  CE         5.9020   12.2390   15.8700 C.3   279  LYS279      0.1093
    101  NZ         6.0590   10.7820   16.2470 N.3   279  LYS279     -0.1314
@<TRIPOS>BOND
     1     9    10   ar
     2     9     7   ar
     3    12    10   ar
     4    12    14   ar
     5    10     8   ar
     6     7     6   ar
     7    14    13   ar
     8     8     6   ar
     9     8    11   ar
    10     6     5    1
    11    13    11   ar
    12     1     2    1
    13     2     5    1
    14     2     3    1
    15     3     4    2
    16    72    70   ar
    17    71    70   ar
    18    91    90    2
    19    92    89    1
    20    70    69    1
    21    90    89    1
    22    34    35    1
    23    34    31    1
    24    68    69    1
    25    68    65    1
    26    67    66    2
    27    30    31    1
    28    89    88    1
    29    35    36   ar
    30    35    37   ar
    31    66    65    1
    32    36    38   ar
    33    37    39   ar
    34    31    32    1
    35   100   101    1
    36   100    99    1
    37    65    64    1
    38    38    40   ar
    39    39    40   ar
    40    99    98    1
    41    40    41    1
    42    88    83   am
    43    33    32    2
    44    32    42   am
    45    84    83    2
    46    83    82    1
    47    98    97    1
    48    76    75    2
    49    97    94    1
    50    42    43    1
    51    63    61   ar
    52    51    50   ar
    53    51    49   ar
    54    50    48   ar
    55    75    74    1
    56    62    61   ar
    57    81    82    1
    58    82    85    1
    59    95    94    1
    60    95    96    2
    61    61    60    1
    62    94    93    1
    63    77    78    1
    64    77    74    1
    65    49    47   ar
    66    43    44    1
    67    43    46    1
    68    48    47   ar
    69    78    80   ar
    70    78    79   ar
    71    85    86    1
    72    85    87    1
    73    52    44   am
    74    52    53    1
    75    47    46    1
    76    74    73    1
    77    55    54    2
    78    44    45    2
    79    53    54    1
    80    54    56   am
    81    60    57    1
    82    57    56    1
    83    57    58    1
    84    59    58    2
    85    22    21    1
    86    22    23    1
    87    21    17   am
    88    25    23   am
    89    25    26    1
    90    23    24    2
    91    29    26    1
    92    26    27    1
    93    19    16    1
    94    19    20    1
    95    17    16    1
    96    17    18    2
    97    16    15    1
    98    27    28    2
