@<TRIPOS>MOLECULE
tmp/3du4A01.pdb
 114 113 0 0 0
SMALL
GASTEIGER

@<TRIPOS>ATOM
      1  N         19.7560   13.3120   15.9110 N.3    16  PRO16      -0.2102
      2  CA        18.8040   12.1990   16.0000 C.3    16  PRO16       0.1504
      3  C         18.5010   11.5600   14.6440 C.2    16  PRO16       0.2575
      4  O         18.2720   12.2610   13.6660 O.2    16  PRO16      -0.2718
      5  CB        17.5350   12.8570   16.5340 C.3    16  PRO16       0.0282
      6  CG        17.6400   14.2730   16.1500 C.3    16  PRO16       0.0208
      7  CD        19.1000   14.6110   16.1530 C.3    16  PRO16       0.0893
      8  N         18.4770   10.2330   14.5880 N.am   17  PHE17      -0.1977
      9  CA        18.1880    9.5490   13.3180 C.3    17  PHE17       0.1639
     10  C         18.9610   10.1030   12.1090 C.2    17  PHE17       0.2290
     11  O         18.4490   10.0920   10.9900 O.2    17  PHE17      -0.2864
     12  CB        16.6860    9.5650   13.0190 C.3    17  PHE17       0.0560
     13  CG        15.9140    8.5180   13.7730 C.ar   17  PHE17      -0.0200
     14  CD1       16.0150    7.1860   13.4150 C.ar   17  PHE17      -0.0042
     15  CD2       15.1000    8.8670   14.8450 C.ar   17  PHE17      -0.0042
     16  CE1       15.3100    6.2080   14.1100 C.ar   17  PHE17      -0.0003
     17  CE2       14.3940    7.9070   15.5420 C.ar   17  PHE17      -0.0003
     18  CZ        14.5070    6.5630   15.1740 C.ar   17  PHE17      -0.0000
     19  N          8.2860   17.1190   11.6150 N.3    53  VAL53      -0.1231
     20  CA         8.1460   15.7340   12.0530 C.3    53  VAL53       0.1692
     21  C          6.8470   15.4690   12.8250 C.2    53  VAL53       0.2592
     22  O          6.8470   14.9090   13.9270 O.2    53  VAL53      -0.2718
     23  CB         9.4010   15.1720   12.7740 C.3    53  VAL53       0.0266
     24  CG1        9.2380   13.6850   12.9820 C.3    53  VAL53       0.0020
     25  CG2       10.6380   15.4160   11.9510 C.3    53  VAL53       0.0020
     26  N          5.7540   15.9110   12.2080 N.am   54  TRP54      -0.1976
     27  CA         4.4010   15.4420   12.4860 C.3    54  TRP54       0.1640
     28  C          3.7990   16.0400   13.7470 C.2    54  TRP54       0.2290
     29  O          2.8980   15.4690   14.3520 O.2    54  TRP54      -0.2864
     30  CB         4.3490   13.9020   12.5100 C.3    54  TRP54       0.0576
     31  CG         5.2220   13.2200   11.4600 C.ar   54  TRP54       0.0006
     32  CD1        5.7640   13.7860   10.3390 C.ar   54  TRP54       0.0946
     33  CD2        5.6100   11.8380   11.4350 C.ar   54  TRP54       0.0152
     34  NE1        6.4800   12.8450    9.6300 N.ar   54  TRP54      -0.2442
     35  CE2        6.3950   11.6430   10.2800 C.ar   54  TRP54       0.0810
     36  CE3        5.3640   10.7460   12.2770 C.ar   54  TRP54       0.0012
     37  CZ2        6.9510   10.4030    9.9520 C.ar   54  TRP54       0.0191
     38  CZ3        5.9080    9.5190   11.9470 C.ar   54  TRP54       0.0001
     39  CH2        6.6970    9.3570   10.7920 C.ar   54  TRP54       0.0015
     40  N          6.0280    0.9950   15.1960 N.3   146  TYR146     -0.1241
     41  CA         7.0270    1.8650   15.7700 C.3   146  TYR146      0.1605
     42  C          6.3980    2.5790   16.9480 C.2   146  TYR146      0.2264
     43  O          5.3240    3.1970   16.8130 O.2   146  TYR146     -0.2867
     44  CB         7.5210    2.8800   14.7420 C.3   146  TYR146      0.0534
     45  CG         8.4460    3.9180   15.3380 C.ar  146  TYR146     -0.0201
     46  CD1        9.7850    3.6200   15.5940 C.ar  146  TYR146     -0.0009
     47  CD2        7.9850    5.1920   15.6430 C.ar  146  TYR146     -0.0009
     48  CE1       10.6420    4.5730   16.1540 C.ar  146  TYR146      0.0417
     49  CE2        8.8270    6.1470   16.1880 C.ar  146  TYR146      0.0417
     50  CZ        10.1540    5.8340   16.4440 C.ar  146  TYR146      0.1957
     51  OH        10.9980    6.7790   16.9900 O.3   146  TYR146     -0.2866
     52  N          8.5550    4.3300   19.4760 N.3   148  GLY148     -0.1210
     53  CA         9.5180    5.2080   20.1350 C.3   148  GLY148      0.1956
     54  C         10.8240    4.4880   20.2890 C.2   148  GLY148      0.2611
     55  O         10.9220    3.3210   19.9380 O.2   148  GLY148     -0.2717
     56  N         11.8110    5.1740   20.8530 N.am  149  ASP149     -0.1973
     57  CA        13.2090    4.7430   20.7710 C.3   149  ASP149      0.1709
     58  C         13.7780    4.1700   22.0590 C.2   149  ASP149      0.2293
     59  O         14.7680    3.4470   22.0340 O.2   149  ASP149     -0.2864
     60  CB        14.1070    5.8990   20.2910 C.3   149  ASP149      0.1436
     61  CG        13.5940    6.5530   19.0170 C.2   149  ASP149      0.3671
     62  OD1       13.6570    7.8020   18.9320 O.co2 149  ASP149     -0.2456
     63  OD2       13.1150    5.8210   18.1120 O.co2 149  ASP149     -0.2456
     64  N         15.9720    0.2860   12.5960 N.3   162  PHE162     -0.1241
     65  CA        16.0510    0.9660   13.8920 C.3   162  PHE162      0.1605
     66  C         16.3820   -0.0380   15.0030 C.2   162  PHE162      0.2264
     67  O         17.3200    0.1550   15.7950 O.2   162  PHE162     -0.2867
     68  CB        14.7230    1.6500   14.2670 C.3   162  PHE162      0.0534
     69  CG        14.2540    2.7060   13.2930 C.ar  162  PHE162     -0.0203
     70  CD1       12.9900    3.2730   13.4390 C.ar  162  PHE162     -0.0042
     71  CD2       15.0550    3.1270   12.2410 C.ar  162  PHE162     -0.0042
     72  CE1       12.5340    4.2520   12.5540 C.ar  162  PHE162     -0.0003
     73  CE2       14.6030    4.1000   11.3520 C.ar  162  PHE162     -0.0003
     74  CZ        13.3410    4.6560   11.5080 C.ar  162  PHE162     -0.0000
     75  N          6.0850    5.3590   10.6720 N.3   222  ALA222     -0.1245
     76  CA         7.5010    5.1160   10.3940 C.3   222  ALA222      0.1562
     77  C          7.7550    3.9730    9.4050 C.2   222  ALA222      0.2260
     78  O          8.8280    3.8770    8.8080 O.2   222  ALA222     -0.2867
     79  CB         8.2360    4.8500   11.6870 C.3   222  ALA222      0.0290
     80  N          3.3620   14.6560   20.2920 N.3   279  LYS279     -0.1245
     81  CA         3.5950   15.4920   19.1040 C.3   279  LYS279      0.1561
     82  C          2.6960   16.7510   19.0140 C.2   279  LYS279      0.2260
     83  O          3.0170   17.7820   19.6020 O.2   279  LYS279     -0.2867
     84  CB         3.5450   14.6370   17.8190 C.3   279  LYS279      0.0271
     85  CG         4.6880   13.5860   17.6810 C.3   279  LYS279      0.0035
     86  CD         4.5820   12.8590   16.3450 C.3   279  LYS279      0.0206
     87  CE         5.9020   12.2390   15.8700 C.3   279  LYS279      0.1093
     88  NZ         6.0590   10.7820   16.2470 N.3   279  LYS279     -0.1314
     89  N         10.8050   14.2100    5.3450 N.3   409  ARG409     -0.1231
     90  CA        11.7220   13.0920    5.4820 C.3   409  ARG409      0.1679
     91  C         11.0940   11.8410    4.8860 C.2   409  ARG409      0.2434
     92  O          9.9110   11.5890    5.0530 O.2   409  ARG409     -0.2733
     93  CB        12.1260   12.8660    6.9530 C.3   409  ARG409      0.0321
     94  CG        13.2350   13.7930    7.4470 C.3   409  ARG409      0.0489
     95  CD        13.4510   13.7100    8.9630 C.3   409  ARG409      0.2205
     96  NE        14.1880   12.5060    9.3230 N.pl3 409  ARG409     -0.0865
     97  CZ        15.4960   12.3580    9.1540 C.cat 409  ARG409      0.5346
     98  NH1       16.2120   13.3400    8.6390 N.pl3 409  ARG409      0.1354
     99  NH2       16.0880   11.2180    9.4780 N.pl3 409  ARG409      0.1354
    100  N         11.8910   11.0520    4.1650 N.am  410  PRO410     -0.2718
    101  CA        11.3730    9.8480    3.5650 C.3   410  PRO410      0.1535
    102  C         11.3310    8.7240    4.5780 C.2   410  PRO410      0.2598
    103  O         12.0280    8.7750    5.6030 O.2   410  PRO410     -0.2715
    104  CB        12.4230    9.5290    2.5130 C.3   410  PRO410      0.0310
    105  CG        13.6730   10.0110    3.1040 C.3   410  PRO410      0.0237
    106  CD        13.3190   11.2400    3.8740 C.3   410  PRO410      0.0939
    107  N         10.5190    7.7140    4.3060 N.am  411  LEU411     -0.1978
    108  CA        10.5600    6.5220    5.1220 C.3   411  LEU411      0.1596
    109  C         10.9760    5.3540    4.2330 C.2   411  LEU411      0.2287
    110  O         10.1460    4.7100    3.6220 O.2   411  LEU411     -0.2864
    111  CB         9.2180    6.2820    5.8290 C.3   411  LEU411      0.0297
    112  CG         8.7430    7.2390    6.9440 C.3   411  LEU411      0.0022
    113  CD1        9.7770    7.4850    8.0610 C.3   411  LEU411      0.0001
    114  CD2        8.2870    8.5360    6.3910 C.3   411  LEU411      0.0001
@<TRIPOS>BOND
     1   104   105    1
     2   104   101    1
     3   105   106    1
     4   101   100    1
     5   101   102    1
     6   110   109    2
     7   106   100    1
     8   100    91   am
     9   109   108    1
    10   107   102   am
    11   107   108    1
    12   102   103    2
    13    91    92    2
    14    91    90    1
    15   108   111    1
    16    89    90    1
    17    90    93    1
    18   111   112    1
    19   114   112    1
    20   112   113    1
    21    93    94    1
    22    94    95    1
    23    98    97    1
    24    78    77    2
    25    95    96    1
    26    97    96    2
    27    97    99    1
    28    77    76    1
    29    34    35   ar
    30    34    32   ar
    31    37    35   ar
    32    37    39   ar
    33    35    33   ar
    34    32    31   ar
    35    76    75    1
    36    76    79    1
    37    39    38   ar
    38    11    10    2
    39    73    74   ar
    40    73    71   ar
    41    33    31   ar
    42    33    36   ar
    43    31    30    1
    44    74    72   ar
    45    19    20    1
    46    38    36   ar
    47    25    23    1
    48    20    23    1
    49    20    21    1
    50    10     9    1
    51    26    27    1
    52    26    21   am
    53    71    69   ar
    54    27    30    1
    55    27    28    1
    56    72    70   ar
    57    64    65    1
    58    23    24    1
    59    21    22    2
    60    12     9    1
    61    12    13    1
    62    69    70   ar
    63    69    68    1
    64     9     8    1
    65    14    13   ar
    66    14    16   ar
    67     4     3    2
    68    28    29    2
    69    13    15   ar
    70    65    68    1
    71    65    66    1
    72    16    18   ar
    73     8     3   am
    74     3     2    1
    75    44    45    1
    76    44    41    1
    77    15    17   ar
    78    66    67    2
    79    18    17   ar
    80    40    41    1
    81    45    46   ar
    82    45    47   ar
    83    46    48   ar
    84    47    49   ar
    85    41    42    1
    86    87    88    1
    87    87    86    1
    88     1     2    1
    89     1     7    1
    90     2     5    1
    91     6     7    1
    92     6     5    1
    93    48    50   ar
    94    49    50   ar
    95    86    85    1
    96    50    51    1
    97    43    42    2
    98    85    84    1
    99    84    81    1
   100    63    61   ar
   101    62    61   ar
   102    82    81    1
   103    82    83    2
   104    61    60    1
   105    81    80    1
   106    52    53    1
   107    55    54    2
   108    53    54    1
   109    54    56   am
   110    60    57    1
   111    57    56    1
   112    57    58    1
   113    59    58    2
