@<TRIPOS>MOLECULE
tmp/3du7D01.pdb
 135 134 0 0 0
SMALL
GASTEIGER

@<TRIPOS>ATOM
      1  N         18.0890   37.3500   -4.7460 N.3    14  GLN14      -0.1245
      2  CA        18.5960   36.6820   -5.9320 C.3    14  GLN14       0.1566
      3  C         19.8370   37.4680   -6.3600 C.2    14  GLN14       0.2260
      4  O         20.9150   36.9020   -6.4830 O.2    14  GLN14      -0.2867
      5  CB        17.5580   36.5390   -7.0590 C.3    14  GLN14       0.0367
      6  CG        16.9880   35.1380   -7.1850 C.3    14  GLN14       0.0905
      7  CD        15.6750   35.0110   -6.4320 C.2    14  GLN14       0.2608
      8  OE1       15.5080   35.5580   -5.3200 O.2    14  GLN14      -0.2717
      9  NE2       14.7280   34.3000   -7.0350 N.am   14  GLN14      -0.0878
     10  N         22.9360   34.9260   -7.2720 N.3    18  LYS18      -0.1245
     11  CA        23.5580   34.9520   -8.5990 C.3    18  LYS18       0.1561
     12  C         24.9300   35.5900   -8.5260 C.2    18  LYS18       0.2260
     13  O         25.8400   35.1870   -9.2470 O.2    18  LYS18      -0.2867
     14  CB        22.6720   35.7000   -9.6210 C.3    18  LYS18       0.0271
     15  CG        21.2980   35.1080   -9.8460 C.3    18  LYS18       0.0035
     16  CD        21.3500   33.6170   -9.9610 C.3    18  LYS18       0.0206
     17  CE        20.6630   33.0570  -11.1430 C.3    18  LYS18       0.1093
     18  NZ        19.2090   32.9870  -11.1020 N.3    18  LYS18      -0.1314
     19  N          8.8230   50.8910  -14.7560 N.3   172  PRO172     -0.2102
     20  CA         7.4080   50.5230  -14.9970 C.3   172  PRO172      0.1504
     21  C          7.1180   49.3130  -15.9140 C.2   172  PRO172      0.2576
     22  O          6.0260   48.6980  -15.8380 O.2   172  PRO172     -0.2718
     23  CB         6.8310   51.7940  -15.6390 C.3   172  PRO172      0.0282
     24  CG         8.0880   52.5600  -16.1760 C.3   172  PRO172      0.0208
     25  CD         9.3330   51.8300  -15.7680 C.3   172  PRO172      0.0893
     26  N          8.0710   49.0180  -16.7940 N.am  173  LYS173     -0.1966
     27  CA         7.9790   47.8870  -17.7050 C.3   173  LYS173      0.1728
     28  C          8.8950   46.8600  -17.0940 C.2   173  LYS173      0.2616
     29  O         10.0800   47.1340  -16.9290 O.2   173  LYS173     -0.2715
     30  CB         8.4680   48.2840  -19.1070 C.3   173  LYS173      0.0311
     31  CG         9.6870   49.2540  -19.1310 C.3   173  LYS173      0.0038
     32  CD        10.1780   49.5710  -20.5570 C.3   173  LYS173      0.0206
     33  CE         9.0860   50.2180  -21.4260 C.3   173  LYS173      0.1093
     34  NZ         9.3630   50.0130  -22.8640 N.3   173  LYS173     -0.1314
     35  N          8.3460   45.6950  -16.7490 N.am  174  VAL174     -0.1963
     36  CA         9.0160   44.7090  -15.8770 C.3   174  VAL174      0.1727
     37  C          8.7610   45.0050  -14.3750 C.2   174  VAL174      0.2617
     38  O          9.4750   45.8050  -13.7280 O.2   174  VAL174     -0.2715
     39  CB        10.5440   44.4670  -16.2060 C.3   174  VAL174      0.0290
     40  CG1       11.2590   43.6960  -15.0820 C.3   174  VAL174      0.0023
     41  CG2       10.7120   43.7420  -17.5360 C.3   174  VAL174      0.0023
     42  N          7.7520   44.2960  -13.8500 N.am  175  SER175     -0.1936
     43  CA         7.0640   44.5400  -12.5640 C.3   175  SER175      0.2055
     44  C          6.2760   45.8220  -12.6340 C.2   175  SER175      0.2643
     45  O          6.8310   46.9090  -12.7950 O.2   175  SER175     -0.2714
     46  CB         7.9750   44.5210  -11.3120 C.3   175  SER175      0.2130
     47  OG         7.2090   44.5760  -10.1000 O.3   175  SER175     -0.2179
     48  N          4.9660   45.6910  -12.5310 N.am  176  ASP176     -0.1971
     49  CA         4.1640   46.8840  -12.3820 C.3   176  ASP176      0.1709
     50  C          4.1270   47.4300  -10.9430 C.2   176  ASP176      0.2293
     51  O          5.0500   48.1410  -10.5540 O.2   176  ASP176     -0.2864
     52  CB         2.8130   46.7200  -13.0300 C.3   176  ASP176      0.1436
     53  CG         2.6600   47.6650  -14.1530 C.2   176  ASP176      0.3671
     54  OD1        2.3120   48.8220  -13.8450 O.co2 176  ASP176     -0.2456
     55  OD2        2.9600   47.3740  -15.3360 O.co2 176  ASP176     -0.2456
     56  N         16.2350   45.7010  -18.6650 N.3   207  TYR207     -0.1241
     57  CA        15.2880   45.0950  -19.5790 C.3   207  TYR207      0.1605
     58  C         15.5960   45.4500  -21.0340 C.2   207  TYR207      0.2264
     59  O         15.6230   44.5720  -21.9000 O.2   207  TYR207     -0.2867
     60  CB        13.8670   45.5030  -19.2090 C.3   207  TYR207      0.0534
     61  CG        12.8570   45.3160  -20.3190 C.ar  207  TYR207     -0.0201
     62  CD1       12.2000   46.4130  -20.8690 C.ar  207  TYR207     -0.0009
     63  CD2       12.5550   44.0460  -20.8160 C.ar  207  TYR207     -0.0009
     64  CE1       11.2660   46.2590  -21.8970 C.ar  207  TYR207      0.0417
     65  CE2       11.6260   43.8740  -21.8440 C.ar  207  TYR207      0.0417
     66  CZ        10.9750   44.9860  -22.3890 C.ar  207  TYR207      0.1957
     67  OH        10.0340   44.8390  -23.4180 O.3   207  TYR207     -0.2866
     68  N         13.0730   37.4110  -26.1790 N.3   217  THR217     -0.1203
     69  CA        11.6580   37.7610  -26.4270 C.3   217  THR217      0.1994
     70  C         11.0250   38.4640  -25.2410 C.2   217  THR217      0.2619
     71  O         10.7890   39.6780  -25.2740 O.2   217  THR217     -0.2717
     72  CB        10.8050   36.5000  -26.7660 C.3   217  THR217      0.1784
     73  OG1       11.4960   35.6850  -27.7130 O.3   217  THR217     -0.2211
     74  CG2        9.4740   36.8730  -27.4790 C.3   217  THR217      0.0376
     75  N         10.7420   37.6760  -24.2060 N.am  218  THR218     -0.1939
     76  CA        10.1130   38.1620  -22.9940 C.3   218  THR218      0.2013
     77  C         11.1040   37.8160  -21.9040 C.2   218  THR218      0.2484
     78  O         11.1530   36.6900  -21.4110 O.2   218  THR218     -0.2729
     79  CB         8.6910   37.5420  -22.7990 C.3   218  THR218      0.1807
     80  OG1        8.2580   36.9130  -24.0170 O.3   218  THR218     -0.2208
     81  CG2        7.6260   38.6350  -22.6300 C.3   218  THR218      0.0379
     82  N         11.9320   38.8070  -21.5880 N.am  219  PRO219     -0.2715
     83  CA        13.1240   38.6270  -20.7630 C.3   219  PRO219      0.1536
     84  C         12.7470   38.2530  -19.3620 C.2   219  PRO219      0.2599
     85  O         11.8970   38.8760  -18.7190 O.2   219  PRO219     -0.2715
     86  CB        13.7610   40.0150  -20.7580 C.3   219  PRO219      0.0310
     87  CG        13.1690   40.6940  -21.8950 C.3   219  PRO219      0.0237
     88  CD        11.7680   40.2090  -21.9900 C.3   219  PRO219      0.0939
     89  N         13.4180   37.2260  -18.8860 N.am  220  THR220     -0.1937
     90  CA        13.0340   36.5890  -17.6580 C.3   220  THR220      0.2028
     91  C         13.3500   37.4630  -16.4760 C.2   220  THR220      0.2642
     92  O         13.6950   38.6260  -16.6310 O.2   220  THR220     -0.2714
     93  CB        13.7630   35.2720  -17.5650 C.3   220  THR220      0.1808
     94  OG1       15.0530   35.4930  -16.9950 O.3   220  THR220     -0.2208
     95  CG2       14.0670   34.7620  -18.9720 C.3   220  THR220      0.0379
     96  N         13.2040   36.9080  -15.2870 N.am  221  TYR221     -0.1959
     97  CA        13.8050   37.5370  -14.1370 C.3   221  TYR221      0.1771
     98  C         15.2570   37.0650  -14.0200 C.2   221  TYR221      0.2620
     99  O         16.1320   37.8380  -13.6210 O.2   221  TYR221     -0.2715
    100  CB        13.0180   37.2330  -12.8750 C.3   221  TYR221      0.0574
    101  CG        12.2420   38.4060  -12.3100 C.ar  221  TYR221     -0.0198
    102  CD1       10.8430   38.4170  -12.3330 C.ar  221  TYR221     -0.0009
    103  CD2       12.8970   39.4950  -11.7310 C.ar  221  TYR221     -0.0009
    104  CE1       10.1100   39.4910  -11.8030 C.ar  221  TYR221      0.0417
    105  CE2       12.1740   40.5740  -11.2020 C.ar  221  TYR221      0.0417
    106  CZ        10.7820   40.5630  -11.2380 C.ar  221  TYR221      0.1957
    107  OH        10.0630   41.6170  -10.7190 O.3   221  TYR221     -0.2866
    108  N         15.5140   35.8070  -14.3890 N.am  222  GLY222     -0.1940
    109  CA        16.8680   35.2580  -14.3900 C.3   222  GLY222      0.2014
    110  C         17.7270   35.7780  -15.5390 C.2   222  GLY222      0.2639
    111  O         18.2890   36.8670  -15.4540 O.2   222  GLY222     -0.2714
    112  N         17.8720   34.9590  -16.5800 N.am  223  ASP223     -0.1957
    113  CA        18.1560   35.4220  -17.9290 C.3   223  ASP223      0.1840
    114  C         17.7290   36.9180  -17.9950 C.2   223  ASP223      0.2622
    115  O         16.6000   37.2360  -18.3930 O.2   223  ASP223     -0.2715
    116  CB        17.3550   34.4690  -18.8570 C.3   223  ASP223      0.1450
    117  CG        17.2590   34.9260  -20.3280 C.2   223  ASP223      0.3671
    118  OD1       18.3190   34.9850  -20.9900 O.co2 223  ASP223     -0.2456
    119  OD2       16.1640   35.1690  -20.9290 O.co2 223  ASP223     -0.2456
    120  N         18.6360   37.8040  -17.5500 N.am  224  LEU224     -0.1963
    121  CA        18.4200   39.2470  -17.2910 C.3   224  LEU224      0.1728
    122  C         19.2550   39.5600  -16.0910 C.2   224  LEU224      0.2616
    123  O         20.3750   40.0170  -16.2380 O.2   224  LEU224     -0.2715
    124  CB        16.9720   39.6400  -16.9410 C.3   224  LEU224      0.0311
    125  CG        16.7740   40.9300  -16.0960 C.3   224  LEU224      0.0022
    126  CD1       16.4370   42.1560  -16.9350 C.3   224  LEU224      0.0001
    127  CD2       15.7300   40.7810  -14.9910 C.3   224  LEU224      0.0001
    128  N         18.6650   39.3400  -14.9100 N.am  225  ASN225     -0.1972
    129  CA        19.3520   39.2410  -13.6280 C.3   225  ASN225      0.1688
    130  C         20.8400   39.0470  -13.8790 C.2   225  ASN225      0.2292
    131  O         21.6830   39.8340  -13.4310 O.2   225  ASN225     -0.2864
    132  CB        18.8090   38.0040  -12.9010 C.3   225  ASN225      0.1181
    133  CG        18.6630   38.1900  -11.4110 C.2   225  ASN225      0.2629
    134  OD1       18.9190   39.2670  -10.8820 O.2   225  ASN225     -0.2716
    135  ND2       18.2420   37.1210  -10.7170 N.am  225  ASN225     -0.0877
@<TRIPOS>BOND
     1    73    72    1
     2    74    72    1
     3    72    69    1
     4    69    68    1
     5    69    70    1
     6    71    70    2
     7    70    75   am
     8    75    76    1
     9    80    79    1
    10    67    66    1
    11    76    79    1
    12    76    77    1
    13    34    33    1
    14    79    81    1
    15    66    64   ar
    16    66    65   ar
    17    88    87    1
    18    88    82    1
    19    77    82   am
    20    77    78    2
    21    59    58    2
    22    64    62   ar
    23    87    86    1
    24    65    63   ar
    25    82    83    1
    26    33    32    1
    27    58    57    1
    28   118   117   ar
    29   119   117   ar
    30    62    61   ar
    31    63    61   ar
    32    83    86    1
    33    83    84    1
    34    32    31    1
    35   117   116    1
    36    61    60    1
    37    57    60    1
    38    57    56    1
    39    84    89   am
    40    84    85    2
    41    31    30    1
    42    30    27    1
    43    95    93    1
    44    89    90    1
    45   116   113    1
    46   115   114    2
    47   114   113    1
    48   114   120   am
    49   113   112    1
    50    27    28    1
    51    27    26    1
    52    90    93    1
    53    90    91    1
    54    93    94    1
    55   120   121    1
    56    41    39    1
    57   121   124    1
    58   121   122    1
    59    28    29    2
    60    28    35   am
    61   124   125    1
    62   126   125    1
    63    26    21   am
    64    35    36    1
    65    92    91    2
    66   112   110   am
    67    91    96   am
    68   123   122    2
    69    39    36    1
    70    39    40    1
    71    24    25    1
    72    24    23    1
    73   125   127    1
    74   122   128   am
    75    21    22    2
    76    21    20    1
    77    36    37    1
    78    25    19    1
    79    23    20    1
    80   110   111    2
    81   110   109    1
    82    55    53   ar
    83    96    97    1
    84    20    19    1
    85   128   129    1
    86   109   108    1
    87   108    98   am
    88    37    42   am
    89    37    38    2
    90    53    54   ar
    91    53    52    1
    92    97    98    1
    93    97   100    1
    94    98    99    2
    95   130   129    1
    96   130   131    2
    97    42    43    1
    98   129   132    1
    99    52    49    1
   100   132   133    1
   101   100   101    1
   102    45    44    2
   103    44    43    1
   104    44    48   am
   105    43    46    1
   106    48    49    1
   107    49    50    1
   108   102   101   ar
   109   102   104   ar
   110   101   103   ar
   111   104   106   ar
   112   103   105   ar
   113   133   134    2
   114   133   135   am
   115    46    47    1
   116   106   105   ar
   117   106   107    1
   118    17    18    1
   119    17    16    1
   120    50    51    2
   121    16    15    1
   122    15    14    1
   123    14    11    1
   124    13    12    2
   125    11    12    1
   126    11    10    1
   127     6     5    1
   128     6     7    1
   129     5     2    1
   130     9     7   am
   131     4     3    2
   132     7     8    2
   133     3     2    1
   134     2     1    1
