@<TRIPOS>MOLECULE
tmp/3du8B00.pdb
 148 139 0 0 0
SMALL
GASTEIGER

@<TRIPOS>ATOM
      1  N         -4.4070    6.8480  -30.3090 N.3    28  ILE28      -0.1231
      2  CA        -3.6620    5.7280  -30.9070 C.3    28  ILE28       0.1692
      3  C         -2.2790    5.4520  -30.2700 C.2    28  ILE28       0.2592
      4  O         -1.6490    4.4350  -30.5700 O.2    28  ILE28      -0.2718
      5  CB        -3.5710    5.8100  -32.4870 C.3    28  ILE28       0.0266
      6  CG1       -2.8850    7.1080  -32.9670 C.3    28  ILE28       0.0019
      7  CG2       -4.9730    5.6050  -33.1220 C.3    28  ILE28       0.0020
      8  CD1       -2.7160    7.2560  -34.5230 C.3    28  ILE28       0.0001
      9  N         -1.8340    6.3360  -29.3780 N.am   29  GLY29      -0.1957
     10  CA        -0.5300    6.2180  -28.7270 C.3    29  GLY29       0.1869
     11  C         -0.4620    7.1640  -27.5510 C.2    29  GLY29       0.2309
     12  O         -1.0190    8.2430  -27.6060 O.2    29  GLY29      -0.2863
     13  N          6.0580   11.4490  -24.1300 N.3    33  PHE33      -0.1241
     14  CA         5.8740   12.7100  -24.8460 C.3    33  PHE33       0.1605
     15  C          4.5220   13.4090  -24.6070 C.2    33  PHE33       0.2264
     16  O          4.4700   14.6400  -24.4670 O.2    33  PHE33      -0.2867
     17  CB         6.0150   12.4130  -26.3380 C.3    33  PHE33       0.0534
     18  CG         5.0830   11.3320  -26.8190 C.ar   33  PHE33      -0.0203
     19  CD1        3.9150   11.6590  -27.4920 C.ar   33  PHE33      -0.0042
     20  CD2        5.3640    9.9890  -26.5740 C.ar   33  PHE33      -0.0042
     21  CE1        3.0370   10.6640  -27.9290 C.ar   33  PHE33      -0.0003
     22  CE2        4.4880    8.9820  -27.0040 C.ar   33  PHE33      -0.0003
     23  CZ         3.3180    9.3210  -27.6860 C.ar   33  PHE33      -0.0000
     24  N         -0.8120   10.6900  -29.0800 N.3    36  VAL36      -0.1245
     25  CA        -1.0910   10.6650  -30.5150 C.3    36  VAL36       0.1561
     26  C         -2.5490   10.2430  -30.7930 C.2    36  VAL36       0.2260
     27  O         -2.9720    9.1250  -30.4490 O.2    36  VAL36      -0.2867
     28  CB        -0.0450    9.8140  -31.3260 C.3    36  VAL36       0.0252
     29  CG1       -0.1930   10.0540  -32.8320 C.3    36  VAL36       0.0019
     30  CG2        1.3800   10.1710  -30.9060 C.3    36  VAL36       0.0019
     31  N         -2.6540   12.0200  -38.0460 N.3    49  ALA49      -0.1245
     32  CA        -2.2870   11.7600  -36.6650 C.3    49  ALA49       0.1562
     33  C         -2.0350   13.1240  -36.0250 C.2    49  ALA49       0.2260
     34  O         -1.5220   14.0120  -36.6740 O.2    49  ALA49      -0.2867
     35  CB        -1.0470   10.8750  -36.6000 C.3    49  ALA49       0.0290
     36  N         -0.1150   14.5980  -32.8680 N.3    51  LYS51      -0.1245
     37  CA         0.7580   14.4940  -31.7200 C.3    51  LYS51       0.1561
     38  C          0.5600   15.7370  -30.8270 C.2    51  LYS51       0.2260
     39  O          0.9290   16.8570  -31.2110 O.2    51  LYS51      -0.2867
     40  CB         2.2090   14.3440  -32.1870 C.3    51  LYS51       0.0271
     41  CG         3.2190   14.1320  -31.0830 C.3    51  LYS51       0.0035
     42  CD         4.6570   13.9890  -31.6190 C.3    51  LYS51       0.0206
     43  CE         5.6070   13.3590  -30.5970 C.3    51  LYS51       0.1093
     44  NZ         7.0310   13.1440  -31.0840 N.3    51  LYS51      -0.1314
     45  N          7.6130   11.3900  -42.2150 N.3    76  VAL76      -0.1245
     46  CA         6.2100   11.7820  -42.0390 C.3    76  VAL76       0.1561
     47  C          6.0990   13.2660  -42.2400 C.2    76  VAL76       0.2260
     48  O          6.9210   14.0340  -41.7050 O.2    76  VAL76      -0.2867
     49  CB         5.5780   11.5910  -40.5930 C.3    76  VAL76       0.0252
     50  CG1        4.6760   10.4130  -40.5240 C.3    76  VAL76       0.0019
     51  CG2        6.5890   11.7610  -39.4290 C.3    76  VAL76       0.0019
     52  N         -0.0080   15.3430  -38.6310 N.3    92  LEU92      -0.1231
     53  CA         0.9090   14.5480  -39.4350 C.3    92  LEU92       0.1693
     54  C          0.0880   13.6550  -40.3330 C.2    92  LEU92       0.2592
     55  O         -1.0830   13.3870  -40.0350 O.2    92  LEU92      -0.2718
     56  CB         1.7880   13.6560  -38.5300 C.3    92  LEU92       0.0284
     57  CG         2.6320   14.3530  -37.4510 C.3    92  LEU92       0.0019
     58  CD1        2.9330   13.3870  -36.3260 C.3    92  LEU92       0.0001
     59  CD2        3.9240   14.9990  -37.9820 C.3    92  LEU92       0.0001
     60  N          0.6880   13.1960  -41.4310 N.am   93  ASP93      -0.1960
     61  CA         0.0190   12.1990  -42.2490 C.3    93  ASP93       0.1840
     62  C         -0.0860   10.9610  -41.3750 C.2    93  ASP93       0.2622
     63  O          0.8850   10.5880  -40.7400 O.2    93  ASP93      -0.2715
     64  CB         0.8280   11.8650  -43.5110 C.3    93  ASP93       0.1450
     65  CG         0.6510   12.9020  -44.6220 C.2    93  ASP93       0.3671
     66  OD1       -0.4160   13.5620  -44.6650 O.co2  93  ASP93      -0.2456
     67  OD2        1.5840   13.0560  -45.4560 O.co2  93  ASP93      -0.2456
     68  N         -1.2600   10.3460  -41.3350 N.am   94  TYR94      -0.1960
     69  CA        -1.4530    9.0860  -40.6140 C.3    94  TYR94       0.1771
     70  C         -0.8850    7.9340  -41.4300 C.2    94  TYR94       0.2619
     71  O         -1.2020    7.8320  -42.6110 O.2    94  TYR94      -0.2715
     72  CB        -2.9430    8.8310  -40.4040 C.3    94  TYR94       0.0574
     73  CG        -3.2290    7.4470  -39.9370 C.ar   94  TYR94      -0.0198
     74  CD1       -3.0030    7.0970  -38.6040 C.ar   94  TYR94      -0.0009
     75  CD2       -3.7160    6.4660  -40.8230 C.ar   94  TYR94      -0.0009
     76  CE1       -3.2520    5.8010  -38.1530 C.ar   94  TYR94       0.0417
     77  CE2       -3.9690    5.1670  -40.3770 C.ar   94  TYR94       0.0417
     78  CZ        -3.7360    4.8520  -39.0390 C.ar   94  TYR94       0.1957
     79  OH        -3.9720    3.5870  -38.5630 O.3    94  TYR94      -0.2866
     80  N         -0.0430    7.0850  -40.8250 N.am   95  VAL95      -0.1964
     81  CA         0.4270    5.8580  -41.4850 C.3    95  VAL95       0.1712
     82  C         -0.0700    4.6910  -40.6300 C.2    95  VAL95       0.2458
     83  O          0.0140    4.7620  -39.4060 O.2    95  VAL95      -0.2730
     84  CB         1.9790    5.8180  -41.6760 C.3    95  VAL95       0.0289
     85  CG1        2.3760    4.7720  -42.6980 C.3    95  VAL95       0.0023
     86  CG2        2.5410    7.1990  -42.1270 C.3    95  VAL95       0.0023
     87  N         -0.6460    3.6440  -41.2640 N.am   96  PRO96      -0.2727
     88  CA        -1.2780    2.5060  -40.5670 C.3    96  PRO96       0.1402
     89  C         -0.3470    1.5200  -39.8210 C.2    96  PRO96       0.2269
     90  O         -0.7540    0.9630  -38.7900 O.2    96  PRO96      -0.2865
     91  CB        -2.0100    1.7660  -41.7120 C.3    96  PRO96       0.0296
     92  CG        -1.1650    2.0800  -42.9280 C.3    96  PRO96       0.0237
     93  CD        -0.7900    3.5200  -42.7350 C.3    96  PRO96       0.0939
     94  N          3.7590   -0.1450  -38.5460 N.3    98  THR98      -0.1218
     95  CA         5.1180    0.1520  -38.1150 C.3    98  THR98       0.1862
     96  C          5.9920   -1.0600  -38.3920 C.2    98  THR98       0.2287
     97  O          5.4870   -2.1830  -38.4440 O.2    98  THR98      -0.2866
     98  CB         5.2090    0.4850  -36.6040 C.3    98  THR98       0.1770
     99  OG1        4.8930   -0.6950  -35.8490 O.3    98  THR98      -0.2211
    100  CG2        4.2770    1.6250  -36.1960 C.3    98  THR98       0.0375
    101  N         14.5550    3.3300  -34.0780 N.3   143  LYS143     -0.1245
    102  CA        14.1130    2.0480  -33.5280 C.3   143  LYS143      0.1561
    103  C         12.8900    1.5800  -34.3120 C.2   143  LYS143      0.2260
    104  O         12.1670    2.3980  -34.8970 O.2   143  LYS143     -0.2867
    105  CB        13.7710    2.2280  -32.0320 C.3   143  LYS143      0.0271
    106  CG        12.5390    3.1070  -31.7730 C.3   143  LYS143      0.0035
    107  CD        12.3820    3.4260  -30.2640 C.3   143  LYS143      0.0206
    108  CE        11.0790    4.1570  -30.0770 C.3   143  LYS143      0.1093
    109  NZ        11.1830    5.2560  -29.0680 N.3   143  LYS143     -0.1314
    110  N          9.8490    1.0330  -33.7120 N.3   145  GLN145     -0.1231
    111  CA         8.5380    1.6410  -33.5320 C.3   145  GLN145      0.1698
    112  C          8.4250    3.0390  -34.1200 C.2   145  GLN145      0.2592
    113  O          7.3270    3.5410  -34.2350 O.2   145  GLN145     -0.2718
    114  CB         8.0720    1.6240  -32.0730 C.3   145  GLN145      0.0381
    115  CG         9.1880    1.7190  -31.1880 C.3   145  GLN145      0.0905
    116  CD         9.5400    0.3960  -30.5650 C.2   145  GLN145      0.2608
    117  OE1        8.7840   -0.0830  -29.6960 O.2   145  GLN145     -0.2717
    118  NE2       10.7170   -0.1810  -30.9510 N.am  145  GLN145     -0.0878
    119  N          9.5650    3.6380  -34.4660 N.am  146  ASN146     -0.1974
    120  CA         9.6240    4.9380  -35.0810 C.3   146  ASN146      0.1688
    121  C          9.5790    4.8800  -36.6390 C.2   146  ASN146      0.2292
    122  O          9.6580    5.9080  -37.2880 O.2   146  ASN146     -0.2864
    123  CB        10.8930    5.6770  -34.6080 C.3   146  ASN146      0.1181
    124  CG        10.6800    6.3310  -33.2650 C.2   146  ASN146      0.2629
    125  OD1        9.5310    6.4710  -32.8330 O.2   146  ASN146     -0.2716
    126  ND2       11.7580    6.7110  -32.5880 N.am  146  ASN146     -0.0877
    127  N          7.3960    3.9940  -39.5760 N.3   148  LEU148     -0.1245
    128  CA         6.0120    3.8330  -39.9900 C.3   148  LEU148      0.1561
    129  C          5.9320    3.2450  -41.4100 C.2   148  LEU148      0.2260
    130  O          6.7890    3.5240  -42.2480 O.2   148  LEU148     -0.2867
    131  CB         5.2980    5.1790  -39.9220 C.3   148  LEU148      0.0270
    132  CG         5.4390    5.9500  -38.6070 C.3   148  LEU148      0.0019
    133  CD1        4.6120    7.2180  -38.7180 C.3   148  LEU148      0.0001
    134  CD2        5.0010    5.1140  -37.3960 C.3   148  LEU148      0.0001
    135  N          9.5060    8.6310  -38.2640 N.3   159  CYS159     -0.1221
    136  CA         8.8240    9.5930  -37.4360 C.3   159  CYS159      0.1808
    137  C          9.5520    9.9000  -36.0960 C.2   159  CYS159      0.2601
    138  O         10.6830    9.4440  -35.8500 O.2   159  CYS159     -0.2717
    139  CB         7.3680    9.1990  -37.2020 C.3   159  CYS159      0.0970
    140  SG         7.1270    7.7900  -35.9920 S.3   159  CYS159     -0.0800
    141  N          8.9030   10.7450  -35.2870 N.am  160  ASP160     -0.1973
    142  CA         9.3110   11.0920  -33.8930 C.3   160  ASP160      0.1709
    143  C         10.6100   11.8080  -33.8140 C.2   160  ASP160      0.2293
    144  O         11.6320   11.2250  -33.4570 O.2   160  ASP160     -0.2864
    145  CB         9.3500    9.8840  -32.9560 C.3   160  ASP160      0.1436
    146  CG         9.6180   10.2980  -31.4680 C.2   160  ASP160      0.3671
    147  OD1        9.6190   11.5530  -31.1300 O.co2 160  ASP160     -0.2456
    148  OD2        9.8560    9.3470  -30.6850 O.co2 160  ASP160     -0.2456
@<TRIPOS>BOND
     1    67    65   ar
     2    66    65   ar
     3    65    64    1
     4    64    61    1
     5    92    93    1
     6    92    91    1
     7    93    87    1
     8    85    84    1
     9    71    70    2
    10    61    60    1
    11    61    62    1
    12   130   129    2
    13    47    46    1
    14    47    48    2
    15    45    46    1
    16    86    84    1
    17    46    49    1
    18    91    88    1
    19    84    81    1
    20    81    80    1
    21    81    82    1
    22    60    54   am
    23    70    80   am
    24    70    69    1
    25   129   128    1
    26    62    68   am
    27    62    63    2
    28    68    69    1
    29    87    82   am
    30    87    88    1
    31    75    77   ar
    32    75    73   ar
    33    82    83    2
    34    69    72    1
    35    49    50    1
    36    49    51    1
    37    88    89    1
    38    72    73    1
    39    77    78   ar
    40    54    55    2
    41    54    53    1
    42   128   131    1
    43   128   127    1
    44    73    74   ar
    45   131   132    1
    46    89    90    2
    47    53    52    1
    48    53    56    1
    49    78    79    1
    50    78    76   ar
    51   133   132    1
    52   132   134    1
    53    74    76   ar
    54    94    95    1
    55    56    57    1
    56    97    96    2
    57    96    95    1
    58   135   136    1
    59    95    98    1
    60    31    32    1
    61    59    57    1
    62    57    58    1
    63   136   139    1
    64   136   137    1
    65   122   121    2
    66   139   140    1
    67    34    33    2
    68    32    35    1
    69    32    33    1
    70   121   120    1
    71    98   100    1
    72    98    99    1
    73   137   138    2
    74   137   141   am
    75   141   142    1
    76   120   123    1
    77   120   119    1
    78   104   103    2
    79   123   124    1
    80     8     6    1
    81   119   112   am
    82   103   102    1
    83   113   112    2
    84   112   111    1
    85   101   102    1
    86   142   143    1
    87   142   145    1
    88   143   144    2
    89   110   111    1
    90   111   114    1
    91   102   105    1
    92   124   125    2
    93   124   126   am
    94     7     5    1
    95     6     5    1
    96   145   146    1
    97    36    37    1
    98    29    28    1
    99     5     2    1
   100    40    37    1
   101    40    41    1
   102   114   115    1
   103   105   106    1
   104   106   107    1
   105    37    38    1
   106    42    41    1
   107    42    43    1
   108   146   147   ar
   109   146   148   ar
   110    28    30    1
   111    28    25    1
   112    39    38    2
   113   115   116    1
   114    44    43    1
   115   118   116   am
   116     2     1    1
   117     2     3    1
   118    26    25    1
   119    26    27    2
   120     4     3    2
   121   116   117    2
   122    25    24    1
   123     3     9   am
   124   107   108    1
   125   108   109    1
   126     9    10    1
   127    10    11    1
   128    21    23   ar
   129    21    19   ar
   130    23    22   ar
   131    12    11    2
   132    19    18   ar
   133    22    20   ar
   134    18    20   ar
   135    18    17    1
   136    17    14    1
   137    14    15    1
   138    14    13    1
   139    15    16    2
