@<TRIPOS>MOLECULE
tmp/3dufA00.pdb
 165 158 0 0 0
SMALL
GASTEIGER

@<TRIPOS>ATOM
      1  N         -9.8410   17.9580   28.6610 N.3    71  PHE71      -0.1241
      2  CA        -8.9120   17.3900   27.6980 C.3    71  PHE71       0.1605
      3  C         -9.6740   16.8670   26.4880 C.2    71  PHE71       0.2264
      4  O        -10.7110   16.2080   26.6310 O.2    71  PHE71      -0.2867
      5  CB        -8.1130   16.2460   28.3430 C.3    71  PHE71       0.0534
      6  CG        -7.3560   15.3980   27.3480 C.ar   71  PHE71      -0.0203
      7  CD1       -6.1560   15.8400   26.8000 C.ar   71  PHE71      -0.0042
      8  CD2       -7.8780   14.1820   26.9180 C.ar   71  PHE71      -0.0042
      9  CE1       -5.4890   15.0850   25.8340 C.ar   71  PHE71      -0.0003
     10  CE2       -7.2210   13.4240   25.9580 C.ar   71  PHE71      -0.0003
     11  CZ        -6.0240   13.8760   25.4130 C.ar   71  PHE71      -0.0000
     12  N        -10.0780   11.9360   10.3320 N.3    78  GLN78      -0.1245
     13  CA        -9.8480   10.5170   10.5640 C.3    78  GLN78       0.1566
     14  C        -11.1280    9.6890   10.7100 C.2    78  GLN78       0.2260
     15  O        -11.1110    8.6560   11.3600 O.2    78  GLN78      -0.2867
     16  CB        -8.9850   10.3410   11.8160 C.3    78  GLN78       0.0367
     17  CG        -7.6070   11.0090   11.7270 C.3    78  GLN78       0.0905
     18  CD        -6.7040   10.6670   12.9020 C.2    78  GLN78       0.2608
     19  OE1       -5.6080   11.1980   13.0260 O.2    78  GLN78      -0.2717
     20  NE2       -7.1630    9.7710   13.7630 N.am   78  GLN78      -0.0878
     21  N         -6.1360    7.5980   23.4170 N.3    99  TYR99      -0.1227
     22  CA        -6.7170    8.8660   23.8790 C.3    99  TYR99       0.1736
     23  C         -7.4900    9.6120   22.7840 C.2    99  TYR99       0.2595
     24  O         -8.3430   10.4460   23.0750 O.2    99  TYR99      -0.2718
     25  CB        -5.6180    9.7780   24.4370 C.3    99  TYR99       0.0548
     26  CG        -4.4870   10.0090   23.4670 C.ar   99  TYR99      -0.0200
     27  CD1       -4.5360   11.0480   22.5380 C.ar   99  TYR99      -0.0009
     28  CD2       -3.4110    9.1200   23.4070 C.ar   99  TYR99      -0.0009
     29  CE1       -3.5490   11.1900   21.5610 C.ar   99  TYR99       0.0417
     30  CE2       -2.4190    9.2520   22.4380 C.ar   99  TYR99       0.0417
     31  CZ        -2.4950   10.2850   21.5190 C.ar   99  TYR99       0.1957
     32  OH        -1.5130   10.3970   20.5620 O.3    99  TYR99      -0.2866
     33  N         -7.2060    9.3030   21.5290 N.am  100  ARG100     -0.1980
     34  CA        -7.8760    9.9720   20.4150 C.3   100  ARG100      0.1597
     35  C         -9.0580    9.1460   19.8570 C.2   100  ARG100      0.2287
     36  O         -9.8270    9.6210   19.0140 O.2   100  ARG100     -0.2864
     37  CB        -6.8450   10.2400   19.3010 C.3   100  ARG100      0.0334
     38  CG        -7.2870   11.1850   18.1860 C.3   100  ARG100      0.0492
     39  CD        -6.1590   11.4130   17.1710 C.3   100  ARG100      0.2205
     40  NE        -5.0010   12.0940   17.7500 N.pl3 100  ARG100     -0.0865
     41  CZ        -4.9660   13.3900   18.0550 C.cat 100  ARG100      0.5346
     42  NH1       -6.0230   14.1630   17.8320 N.pl3 100  ARG100      0.1354
     43  NH2       -3.8840   13.9150   18.6110 N.pl3 100  ARG100      0.1354
     44  N         -4.0270    6.5360   27.8870 N.3   139  ILE139     -0.1231
     45  CA        -3.1140    7.6640   27.7290 C.3   139  ILE139      0.1692
     46  C         -1.6610    7.2590   27.4920 C.2   139  ILE139      0.2592
     47  O         -0.9560    7.9060   26.7300 O.2   139  ILE139     -0.2718
     48  CB        -3.1640    8.5940   28.9560 C.3   139  ILE139      0.0266
     49  CG1       -4.4080    9.4710   28.8800 C.3   139  ILE139      0.0019
     50  CG2       -1.9100    9.4670   29.0070 C.3   139  ILE139      0.0020
     51  CD1       -4.3740   10.4400   27.7250 C.3   139  ILE139      0.0001
     52  N         -1.2160    6.1970   28.1530 N.am  140  ILE140     -0.1966
     53  CA         0.1550    5.7250   27.9930 C.3   140  ILE140      0.1727
     54  C          0.3110    5.0400   26.6360 C.2   140  ILE140      0.2616
     55  O         -0.1170    3.9010   26.4510 O.2   140  ILE140     -0.2715
     56  CB         0.5400    4.7370   29.1120 C.3   140  ILE140      0.0290
     57  CG1        0.4040    5.4180   30.4800 C.3   140  ILE140      0.0022
     58  CG2        1.9640    4.2450   28.9060 C.3   140  ILE140      0.0023
     59  CD1        1.3100    6.6210   30.6710 C.3   140  ILE140      0.0001
     60  N          0.9260    5.7440   25.6910 N.am  141  ILE141     -0.1977
     61  CA         1.1200    5.2190   24.3540 C.3   141  ILE141      0.1596
     62  C          1.8460    3.8660   24.3410 C.2   141  ILE141      0.2287
     63  O          2.9630    3.7330   24.8570 O.2   141  ILE141     -0.2864
     64  CB         1.8800    6.2520   23.4970 C.3   141  ILE141      0.0276
     65  CG1        0.9860    7.4740   23.2750 C.3   141  ILE141      0.0022
     66  CG2        2.2950    5.6450   22.1730 C.3   141  ILE141      0.0022
     67  CD1        1.6400    8.5830   22.5000 C.3   141  ILE141      0.0001
     68  N         -1.0230    5.4090   17.1740 N.3   169  GLY169     -0.1210
     69  CA        -0.6150    6.3210   16.1190 C.3   169  GLY169      0.1956
     70  C          0.7480    6.0040   15.5310 C.2   169  GLY169      0.2612
     71  O          1.4270    5.0950   16.0090 O.2   169  GLY169     -0.2717
     72  N          1.1560    6.7430   14.4980 N.am  170  ASP170     -0.1959
     73  CA         2.4590    6.4980   13.8720 C.3   170  ASP170      0.1840
     74  C          3.5940    6.5710   14.8930 C.2   170  ASP170      0.2623
     75  O          4.4710    5.7070   14.9210 O.2   170  ASP170     -0.2715
     76  CB         2.7190    7.4890   12.7200 C.3   170  ASP170      0.1450
     77  CG         2.2340    8.9090   13.0270 C.2   170  ASP170      0.3671
     78  OD1        1.0120    9.1070   13.1440 O.co2 170  ASP170     -0.2456
     79  OD2        3.0690    9.8260   13.1530 O.co2 170  ASP170     -0.2456
     80  N          3.5660    7.5990   15.7380 N.am  171  GLY171     -0.1940
     81  CA         4.5940    7.7490   16.7490 C.3   171  GLY171      0.2014
     82  C          4.6410    6.5460   17.6670 C.2   171  GLY171      0.2639
     83  O          5.7110    6.1290   18.1060 O.2   171  GLY171     -0.2714
     84  N          3.4710    5.9760   17.9390 N.am  172  GLY172     -0.1954
     85  CA         3.3780    4.8210   18.8140 C.3   172  GLY172      0.1869
     86  C          4.1010    3.5670   18.3630 C.2   172  GLY172      0.2309
     87  O          4.4530    2.7360   19.1940 O.2   172  GLY172     -0.2863
     88  N          7.4110    2.7040   20.2190 N.3   175  GLN175     -0.1245
     89  CA         7.4310    2.1440   21.5650 C.3   175  GLN175      0.1566
     90  C          7.6870    0.6410   21.5850 C.2   175  GLN175      0.2260
     91  O          7.2130   -0.0900   20.7200 O.2   175  GLN175     -0.2867
     92  CB         6.1010    2.4230   22.2710 C.3   175  GLN175      0.0367
     93  CG         5.8920    3.8700   22.6810 C.3   175  GLN175      0.0905
     94  CD         6.7510    4.2700   23.8670 C.2   175  GLN175      0.2608
     95  OE1        7.5880    3.4970   24.3360 O.2   175  GLN175     -0.2717
     96  NE2        6.5430    5.4830   24.3610 N.am  175  GLN175     -0.0878
     97  N         -2.9310    4.3290   13.0730 N.3   197  GLN197     -0.1245
     98  CA        -3.4080    5.4810   12.3160 C.3   197  GLN197      0.1566
     99  C         -2.2510    6.4470   12.0450 C.2   197  GLN197      0.2260
    100  O         -1.8420    7.2280   12.9100 O.2   197  GLN197     -0.2867
    101  CB        -4.5400    6.1890   13.0700 C.3   197  GLN197      0.0367
    102  CG        -5.6900    5.2600   13.4170 C.3   197  GLN197      0.0905
    103  CD        -6.8790    5.9850   14.0260 C.2   197  GLN197      0.2608
    104  OE1       -7.5330    6.7960   13.3660 O.2   197  GLN197     -0.2717
    105  NE2       -7.1610    5.7010   15.2900 N.am  197  GLN197     -0.0878
    106  N         -1.1690    9.5810   10.6320 N.3   199  ASN199     -0.1240
    107  CA        -1.5940   10.8760   10.1320 C.3   199  ASN199      0.1653
    108  C         -0.3700   11.7680    9.9060 C.2   199  ASN199      0.2266
    109  O         -0.4800   12.9940    9.9000 O.2   199  ASN199     -0.2867
    110  CB        -2.6070   11.5440   11.0790 C.3   199  ASN199      0.1155
    111  CG        -2.0880   11.6600   12.4770 C.2   199  ASN199      0.2627
    112  OD1       -0.8870   11.7530   12.6690 O.2   199  ASN199     -0.2716
    113  ND2       -2.9840   11.6740   13.4680 N.am  199  ASN199     -0.0877
    114  N          2.2040   12.7780   11.6720 N.3   201  PHE201     -0.1227
    115  CA         2.8870   13.5260   12.7200 C.3   201  PHE201      0.1736
    116  C          2.6530   13.0060   14.1280 C.2   201  PHE201      0.2595
    117  O          1.5460   12.6140   14.4650 O.2   201  PHE201     -0.2718
    118  CB         2.4420   15.0010   12.6970 C.3   201  PHE201      0.0547
    119  CG         2.9730   15.7910   11.5340 C.ar  201  PHE201     -0.0202
    120  CD1        4.2920   16.2260   11.5160 C.ar  201  PHE201     -0.0042
    121  CD2        2.1560   16.0850   10.4460 C.ar  201  PHE201     -0.0042
    122  CE1        4.7940   16.9410   10.4290 C.ar  201  PHE201     -0.0003
    123  CE2        2.6470   16.8000    9.3560 C.ar  201  PHE201     -0.0003
    124  CZ         3.9710   17.2280    9.3470 C.ar  201  PHE201     -0.0000
    125  N          3.7050   13.0090   14.9420 N.am  202  ALA202     -0.1966
    126  CA         3.5940   12.6460   16.3530 C.3   202  ALA202      0.1728
    127  C          3.8820   14.0150   16.9770 C.2   202  ALA202      0.2616
    128  O          5.0360   14.3920   17.1450 O.2   202  ALA202     -0.2715
    129  CB         4.6470   11.6390   16.7440 C.3   202  ALA202      0.0334
    130  N          2.8120   14.7540   17.2800 N.am  203  ILE203     -0.1977
    131  CA         2.8790   16.1200   17.8090 C.3   203  ILE203      0.1596
    132  C          3.5730   16.8160   16.6270 C.2   203  ILE203      0.2287
    133  O          3.0840   16.7470   15.4990 O.2   203  ILE203     -0.2864
    134  CB         3.7050   16.2240   19.1140 C.3   203  ILE203      0.0276
    135  CG1        3.0150   15.4490   20.2400 C.3   203  ILE203      0.0022
    136  CG2        3.8140   17.6830   19.5390 C.3   203  ILE203      0.0022
    137  CD1        3.6300   15.6600   21.6170 C.3   203  ILE203      0.0001
    138  N         -5.1080   14.8270   10.0410 N.3   264  ARG264     -0.1245
    139  CA        -5.9360   15.5770   10.9890 C.3   264  ARG264      0.1563
    140  C         -6.0600   17.0220   10.5390 C.2   264  ARG264      0.2260
    141  O         -5.0610   17.6590   10.2090 O.2   264  ARG264     -0.2867
    142  CB        -5.3350   15.5900   12.3990 C.3   264  ARG264      0.0307
    143  CG        -5.2250   14.2540   13.1090 C.3   264  ARG264      0.0489
    144  CD        -5.0730   14.4820   14.6130 C.3   264  ARG264      0.2205
    145  NE        -4.3470   15.7170   14.9080 N.pl3 264  ARG264     -0.0865
    146  CZ        -3.0380   15.8820   14.7350 C.cat 264  ARG264      0.5346
    147  NH1       -2.2930   14.8850   14.2760 N.pl3 264  ARG264      0.1354
    148  NH2       -2.4720   17.0550   14.9940 N.pl3 264  ARG264      0.1354
    149  N         -3.1800   19.1530   17.6600 N.3   268  HIS268     -0.1226
    150  CA        -2.8320   17.8730   18.2780 C.3   268  HIS268      0.1752
    151  C         -3.8410   17.5860   19.4030 C.2   268  HIS268      0.2596
    152  O         -4.4170   16.4990   19.4820 O.2   268  HIS268     -0.2718
    153  CB        -1.3910   17.9270   18.8160 C.3   268  HIS268      0.0759
    154  CG        -1.0720   16.8420   19.7970 C.ar  268  HIS268      0.0818
    155  ND1       -1.1430   15.5040   19.4750 N.ar  268  HIS268     -0.2268
    156  CD2       -0.7290   16.8960   21.1070 C.ar  268  HIS268      0.1154
    157  CE1       -0.8610   14.7810   20.5460 C.ar  268  HIS268      0.1986
    158  NE2       -0.6070   15.6010   21.5490 N.ar  268  HIS268     -0.2212
    159  N         -4.0230   18.5670   20.2800 N.am  269  THR269     -0.1953
    160  CA        -4.9990   18.4900   21.3620 C.3   269  THR269      0.1897
    161  C         -5.4360   19.9340   21.6040 C.2   269  THR269      0.2313
    162  O         -5.1510   20.8100   20.7860 O.2   269  THR269     -0.2863
    163  CB        -4.4210   17.8820   22.6740 C.3   269  THR269      0.1794
    164  OG1       -3.3740   18.7140   23.1840 O.3   269  THR269     -0.2208
    165  CG2       -3.8970   16.4660   22.4270 C.3   269  THR269      0.0378
@<TRIPOS>BOND
     1   124   123   ar
     2   124   122   ar
     3   123   121   ar
     4   109   108    2
     5   108   107    1
     6   138   139    1
     7   107   106    1
     8   107   110    1
     9   141   140    2
    10    12    13    1
    11   122   120   ar
    12   121   119   ar
    13   140   139    1
    14    13    14    1
    15    13    16    1
    16    14    15    2
    17   139   142    1
    18   110   111    1
    19   120   119   ar
    20   119   118    1
    21   114   115    1
    22    17    16    1
    23    17    18    1
    24    99    98    1
    25    99   100    2
    26    98   101    1
    27    98    97    1
    28   142   143    1
    29   111   112    2
    30   111   113   am
    31   118   115    1
    32    76    77    1
    33    76    73    1
    34   115   116    1
    35    18    19    2
    36    18    20   am
    37    77    78   ar
    38    77    79   ar
    39   101   102    1
    40   143   144    1
    41   104   103    2
    42   102   103    1
    43    73    72    1
    44    73    74    1
    45   103   105   am
    46   116   117    2
    47   116   125   am
    48   147   146    1
    49    72    70   am
    50   144   145    1
    51   146   145    2
    52   146   148    1
    53    74    75    2
    54    74    80   am
    55   125   126    1
    56   133   132    2
    57    70    71    2
    58    70    69    1
    59    80    81    1
    60    69    68    1
    61   126   129    1
    62   126   127    1
    63   132   131    1
    64    81    82    1
    65   127   128    2
    66   127   130   am
    67    39    40    1
    68    39    38    1
    69   130   131    1
    70   149   150    1
    71    82    84   am
    72    82    83    2
    73    40    41    2
    74   131   134    1
    75    42    41    1
    76    84    85    1
    77    41    43    1
    78    38    37    1
    79   150   153    1
    80   150   151    1
    81    86    85    1
    82    86    87    2
    83   153   154    1
    84    36    35    2
    85   134   136    1
    86   134   135    1
    87    37    34    1
    88   151   152    2
    89   151   159   am
    90   155   154   ar
    91   155   157   ar
    92   154   156   ar
    93    35    34    1
    94    88    89    1
    95   135   137    1
    96   159   160    1
    97    34    33    1
    98   157   158   ar
    99    32    31    1
   100    91    90    2
   101   162   161    2
   102   156   158   ar
   103   160   161    1
   104   160   163    1
   105    31    29   ar
   106    31    30   ar
   107    33    23   am
   108    29    27   ar
   109    89    90    1
   110    89    92    1
   111    66    64    1
   112    92    93    1
   113   165   163    1
   114    30    28   ar
   115    67    65    1
   116    27    26   ar
   117   163   164    1
   118    93    94    1
   119    23    24    2
   120    23    22    1
   121    65    64    1
   122    28    26   ar
   123    21    22    1
   124    26    25    1
   125    64    61    1
   126    94    95    2
   127    94    96   am
   128    22    25    1
   129    62    61    1
   130    62    63    2
   131    61    60    1
   132    11     9   ar
   133    11    10   ar
   134    60    54   am
   135     9     7   ar
   136    10     8   ar
   137    55    54    2
   138     3     4    2
   139     3     2    1
   140    54    53    1
   141    47    46    2
   142     7     6   ar
   143     8     6   ar
   144     6     5    1
   145    46    45    1
   146    46    52   am
   147     2     5    1
   148     2     1    1
   149    51    49    1
   150    45    44    1
   151    45    48    1
   152    53    52    1
   153    53    56    1
   154    49    48    1
   155    58    56    1
   156    48    50    1
   157    56    57    1
   158    57    59    1
