@<TRIPOS>MOLECULE
tmp/3dufB00.pdb
 91 87 0 0 0
SMALL
GASTEIGER

@<TRIPOS>ATOM
      1  N          8.3410  -17.0040   32.2380 N.3    28  GLU28      -0.1231
      2  CA         9.5060  -17.5700   31.5750 C.3    28  GLU28       0.1699
      3  C          9.9680  -18.8600   32.2550 C.2    28  GLU28       0.2592
      4  O         10.3040  -18.8610   33.4380 O.2    28  GLU28      -0.2718
      5  CB        10.6530  -16.5490   31.5720 C.3    28  GLU28       0.0402
      6  CG        10.3860  -15.2720   30.7660 C.3    28  GLU28       0.1161
      7  CD        11.0700  -14.0320   31.3590 C.2    28  GLU28       0.3649
      8  OE1       12.0800  -14.1790   32.0880 O.co2  28  GLU28      -0.2457
      9  OE2       10.5990  -12.9030   31.0910 O.co2  28  GLU28      -0.2457
     10  N          9.9520  -19.9530   31.4960 N.am   29  ASP29      -0.1974
     11  CA        10.3980  -21.2660   31.9670 C.3    29  ASP29       0.1709
     12  C          9.6190  -21.9170   33.1080 C.2    29  ASP29       0.2293
     13  O         10.1930  -22.7080   33.8620 O.2    29  ASP29      -0.2864
     14  CB        11.8770  -21.1910   32.3620 C.3    29  ASP29       0.1436
     15  CG        12.7380  -20.5850   31.2680 C.2    29  ASP29       0.3671
     16  OD1       12.7930  -21.1690   30.1600 O.co2  29  ASP29      -0.2456
     17  OD2       13.3510  -19.5220   31.5110 O.co2  29  ASP29      -0.2456
     18  N         10.1470  -14.2110   26.0200 N.3    57  LEU57      -0.1245
     19  CA        10.9600  -13.4800   27.0010 C.3    57  LEU57       0.1561
     20  C         10.7160  -11.9650   26.9750 C.2    57  LEU57       0.2260
     21  O         11.3700  -11.2410   26.2280 O.2    57  LEU57      -0.2867
     22  CB        12.4480  -13.7550   26.7520 C.3    57  LEU57       0.0270
     23  CG        13.4410  -13.5660   27.9030 C.3    57  LEU57       0.0019
     24  CD1       14.8130  -13.9370   27.3970 C.3    57  LEU57       0.0001
     25  CD2       13.4400  -12.1320   28.4280 C.3    57  LEU57       0.0001
     26  N          9.0850   -9.2550   30.1330 N.3    59  GLU59      -0.1245
     27  CA         8.2990   -8.9250   31.3220 C.3    59  GLU59       0.1567
     28  C          7.1460   -7.9760   31.0070 C.2    59  GLU59       0.2260
     29  O          6.0030   -8.2390   31.3720 O.2    59  GLU59      -0.2867
     30  CB         9.1870   -8.3020   32.4080 C.3    59  GLU59       0.0388
     31  CG        10.4000   -9.1250   32.8060 C.3    59  GLU59       0.1160
     32  CD        11.3990   -9.2950   31.6620 C.2    59  GLU59       0.3649
     33  OE1       11.4540   -8.4050   30.7830 O.co2  59  GLU59      -0.2457
     34  OE2       12.1380  -10.3070   31.6500 O.co2  59  GLU59      -0.2457
     35  N         10.8820  -13.7210   36.8200 N.3    81  GLN81      -0.1231
     36  CA        11.9450  -14.6350   37.2450 C.3    81  GLN81       0.1698
     37  C         12.7260  -14.2030   38.4720 C.2    81  GLN81       0.2592
     38  O         13.0730  -15.0330   39.3080 O.2    81  GLN81      -0.2718
     39  CB        12.8980  -14.9180   36.0920 C.3    81  GLN81       0.0381
     40  CG        13.5820  -16.2650   36.2170 C.3    81  GLN81       0.0905
     41  CD        14.3830  -16.6360   34.9860 C.2    81  GLN81       0.2608
     42  OE1       15.4400  -16.0540   34.7140 O.2    81  GLN81      -0.2717
     43  NE2       13.8770  -17.6110   34.2260 N.am   81  GLN81      -0.0878
     44  N         12.9920  -12.9050   38.5700 N.am   82  PHE82      -0.1976
     45  CA        13.6960  -12.3090   39.7040 C.3    82  PHE82       0.1639
     46  C         13.1040  -10.9020   39.8420 C.2    82  PHE82       0.2290
     47  O         12.7420  -10.2890   38.8380 O.2    82  PHE82      -0.2864
     48  CB        15.1990  -12.2370   39.4260 C.3    82  PHE82       0.0560
     49  CG        15.9120  -13.5580   39.5620 C.ar   82  PHE82      -0.0200
     50  CD1       16.3060  -14.0310   40.8160 C.ar   82  PHE82      -0.0042
     51  CD2       16.2020  -14.3280   38.4350 C.ar   82  PHE82      -0.0042
     52  CE1       16.9770  -15.2370   40.9440 C.ar   82  PHE82      -0.0003
     53  CE2       16.8720  -15.5420   38.5570 C.ar   82  PHE82      -0.0003
     54  CZ        17.2610  -15.9960   39.8140 C.ar   82  PHE82      -0.0000
     55  N         14.2970   -7.6770   38.0720 N.3    85  PHE85      -0.1241
     56  CA        13.7810   -7.4020   36.7370 C.3    85  PHE85       0.1605
     57  C         12.4280   -6.7070   36.6870 C.2    85  PHE85       0.2264
     58  O         11.8390   -6.5860   35.6200 O.2    85  PHE85      -0.2867
     59  CB        13.6980   -8.6960   35.9340 C.3    85  PHE85       0.0534
     60  CG        14.9720   -9.4800   35.9290 C.ar   85  PHE85      -0.0203
     61  CD1       16.1860   -8.8440   35.7420 C.ar   85  PHE85      -0.0042
     62  CD2       14.9580  -10.8610   36.1130 C.ar   85  PHE85      -0.0042
     63  CE1       17.3840   -9.5700   35.7390 C.ar   85  PHE85      -0.0003
     64  CE2       16.1550  -11.6000   36.1100 C.ar   85  PHE85      -0.0003
     65  CZ        17.3680  -10.9500   35.9230 C.ar   85  PHE85      -0.0000
     66  N         11.3830   -3.5710   34.1790 N.3    88  GLU88      -0.1245
     67  CA        10.8630   -3.7470   32.8210 C.3    88  GLU88       0.1567
     68  C          9.3390   -3.7540   32.7580 C.2    88  GLU88       0.2260
     69  O          8.7480   -3.4390   31.7160 O.2    88  GLU88      -0.2867
     70  CB        11.3530   -5.0680   32.2200 C.3    88  GLU88       0.0388
     71  CG        12.5760   -4.9570   31.3390 C.3    88  GLU88       0.1160
     72  CD        13.7860   -4.5230   32.1150 C.2    88  GLU88       0.3649
     73  OE1       14.0820   -5.1690   33.1430 O.co2  88  GLU88      -0.2457
     74  OE2       14.4390   -3.5410   31.6990 O.co2  88  GLU88      -0.2457
     75  N         24.2960  -13.4730   40.4100 N.3   125  PRO125     -0.2116
     76  CA        24.8830  -12.4380   39.5510 C.3   125  PRO125      0.1372
     77  C         24.1850  -11.0940   39.7820 C.2   125  PRO125      0.2244
     78  O         23.2560  -11.0000   40.5870 O.2   125  PRO125     -0.2868
     79  CB        24.6570  -12.9870   38.1440 C.3   125  PRO125      0.0268
     80  CG        23.4040  -13.8030   38.2960 C.3   125  PRO125      0.0207
     81  CD        23.6500  -14.5230   39.6030 C.3   125  PRO125      0.0892
     82  N         19.9300   -9.6750   40.6730 N.3   128  HIS128     -0.1241
     83  CA        19.0660  -10.8120   40.9950 C.3   128  HIS128      0.1621
     84  C         18.6140  -10.7670   42.4480 C.2   128  HIS128      0.2264
     85  O         17.4830  -11.1240   42.7660 O.2   128  HIS128     -0.2867
     86  CB        19.8080  -12.1340   40.7760 C.3   128  HIS128      0.0745
     87  CG        19.9280  -12.5410   39.3410 C.ar  128  HIS128      0.0817
     88  ND1       20.3350  -11.6740   38.3500 N.ar  128  HIS128     -0.2268
     89  CD2       19.7460  -13.7400   38.7420 C.ar  128  HIS128      0.1154
     90  CE1       20.4030  -12.3240   37.2030 C.ar  128  HIS128      0.1986
     91  NE2       20.0520  -13.5800   37.4130 N.ar  128  HIS128     -0.2212
@<TRIPOS>BOND
     1    18    19    1
     2    21    20    2
     3    22    19    1
     4    22    23    1
     5    20    19    1
     6    24    23    1
     7    23    25    1
     8    26    27    1
     9    16    15   ar
    10     6     7    1
    11     6     5    1
    12    33    32   ar
    13    28    27    1
    14    28    29    2
    15     9     7   ar
    16    15    17   ar
    17    15    14    1
    18    27    30    1
    19    71    72    1
    20    71    70    1
    21     7     8   ar
    22    10    11    1
    23    10     3   am
    24     5     2    1
    25     2     1    1
    26     2     3    1
    27    34    32   ar
    28    32    31    1
    29    74    72   ar
    30    69    68    2
    31    11    14    1
    32    11    12    1
    33    72    73   ar
    34    70    67    1
    35     3     4    2
    36    30    31    1
    37    68    67    1
    38    67    66    1
    39    12    13    2
    40    43    41   am
    41    42    41    2
    42    41    40    1
    43    58    57    2
    44    63    61   ar
    45    63    65   ar
    46    61    60   ar
    47    65    64   ar
    48    60    59    1
    49    60    62   ar
    50    59    56    1
    51    39    40    1
    52    39    36    1
    53    64    62   ar
    54    57    56    1
    55    56    55    1
    56    35    36    1
    57    90    91   ar
    58    90    88   ar
    59    36    37    1
    60    91    89   ar
    61    79    80    1
    62    79    76    1
    63    80    81    1
    64    88    87   ar
    65    51    53   ar
    66    51    49   ar
    67    37    44   am
    68    37    38    2
    69    53    54   ar
    70    44    45    1
    71    89    87   ar
    72    47    46    2
    73    87    86    1
    74    48    49    1
    75    48    45    1
    76    76    77    1
    77    76    75    1
    78    49    50   ar
    79    81    75    1
    80    45    46    1
    81    77    78    2
    82    54    52   ar
    83    82    83    1
    84    86    83    1
    85    50    52   ar
    86    83    84    1
    87    84    85    2
