@<TRIPOS>MOLECULE
tmp/3duvB00.pdb
 151 140 0 0 0
SMALL
GASTEIGER

@<TRIPOS>ATOM
      1  N         21.2280   58.0140   89.2760 N.3    18  LYS18      -0.1245
      2  CA        20.0880   58.8150   88.8330 C.3    18  LYS18       0.1561
      3  C         20.2810   59.6480   87.5470 C.2    18  LYS18       0.2260
      4  O         19.6140   59.4010   86.5420 O.2    18  LYS18      -0.2867
      5  CB        19.6610   59.7200   89.9970 C.3    18  LYS18       0.0271
      6  CG        18.3430   60.4530   89.8360 C.3    18  LYS18       0.0035
      7  CD        18.2530   61.5430   90.9000 C.3    18  LYS18       0.0206
      8  CE        16.8850   62.1800   90.9470 C.3    18  LYS18       0.1093
      9  NZ        15.8720   61.1980   91.4020 N.3    18  LYS18      -0.1314
     10  N         22.2180   70.2630   98.3750 N.3    71  SER71      -0.1217
     11  CA        21.1810   70.5920   97.3920 C.3    71  SER71       0.1889
     12  C         21.7580   71.2950   96.1500 C.2    71  SER71       0.2288
     13  O         22.8980   71.7820   96.1660 O.2    71  SER71      -0.2866
     14  CB        20.1100   71.4870   98.0290 C.3    71  SER71       0.2089
     15  OG        20.6160   72.7870   98.2950 O.3    71  SER71      -0.2183
     16  N         16.4040   71.3220   87.7680 N.3    95  GLN95      -0.1245
     17  CA        16.9820   70.1590   88.4310 C.3    95  GLN95       0.1566
     18  C         17.1680   69.0140   87.4490 C.2    95  GLN95       0.2260
     19  O         16.3430   68.7890   86.5690 O.2    95  GLN95      -0.2867
     20  CB        16.1160   69.7290   89.6190 C.3    95  GLN95       0.0367
     21  CG        16.2110   70.6910   90.8040 C.3    95  GLN95       0.0905
     22  CD        15.3810   70.2510   92.0040 C.2    95  GLN95       0.2608
     23  OE1       15.5380   70.7830   93.1060 O.2    95  GLN95      -0.2717
     24  NE2       14.4880   69.2810   91.7950 N.am   95  GLN95      -0.0878
     25  N         16.4780   66.1480   87.3670 N.3    97  ASP97      -0.1225
     26  CA        15.4680   65.0940   87.3130 C.3    97  ASP97       0.1805
     27  C         14.1290   65.5310   86.7140 C.2    97  ASP97       0.2597
     28  O         13.0970   64.9100   86.9700 O.2    97  ASP97      -0.2718
     29  CB        15.2440   64.4950   88.7080 C.3    97  ASP97       0.1424
     30  CG        14.7820   65.5260   89.7250 C.2    97  ASP97       0.3668
     31  OD1       14.4770   65.1280   90.8680 O.co2  97  ASP97      -0.2456
     32  OD2       14.7240   66.7300   89.3910 O.co2  97  ASP97      -0.2456
     33  N         14.1530   66.5960   85.9160 N.am   98  GLU98      -0.1979
     34  CA        12.9500   67.1030   85.2470 C.3    98  GLU98       0.1602
     35  C         13.2120   67.0030   83.7490 C.2    98  GLU98       0.2287
     36  O         13.3670   68.0180   83.0680 O.2    98  GLU98      -0.2864
     37  CB        12.6880   68.5670   85.6230 C.3    98  GLU98       0.0415
     38  CG        12.3210   68.8030   87.0920 C.3    98  GLU98       0.1163
     39  CD        10.8980   68.3940   87.4310 C.2    98  GLU98       0.3649
     40  OE1       10.5400   68.4300   88.6240 O.co2  98  GLU98      -0.2457
     41  OE2       10.1330   68.0440   86.5100 O.co2  98  GLU98      -0.2457
     42  N          6.7020   61.8060   97.7550 N.3   136  ASN136     -0.1240
     43  CA         7.6930   62.2510   96.7800 C.3   136  ASN136      0.1653
     44  C          7.1580   63.4010   95.9390 C.2   136  ASN136      0.2266
     45  O          7.9210   64.1120   95.2930 O.2   136  ASN136     -0.2867
     46  CB         8.1220   61.0980   95.8590 C.3   136  ASN136      0.1155
     47  CG         8.8430   59.9980   96.6070 C.2   136  ASN136      0.2627
     48  OD1        9.6780   60.2670   97.4690 O.2   136  ASN136     -0.2716
     49  ND2        8.5320   58.7510   96.2760 N.am  136  ASN136     -0.0877
     50  N          5.9470   66.8990   95.8020 N.3   138  VAL138     -0.1245
     51  CA         5.9570   68.0770   96.6450 C.3   138  VAL138      0.1561
     52  C          4.7700   68.9620   96.3280 C.2   138  VAL138      0.2260
     53  O          4.5500   69.3460   95.1740 O.2   138  VAL138     -0.2867
     54  CB         7.2490   68.9010   96.4720 C.3   138  VAL138      0.0252
     55  CG1        7.2000   70.1310   97.3810 C.3   138  VAL138      0.0019
     56  CG2        8.4520   68.0570   96.8180 C.3   138  VAL138      0.0019
     57  N          5.6010   67.9680  101.7590 N.3   153  ARG153     -0.1245
     58  CA         5.3850   66.6230  101.2390 C.3   153  ARG153      0.1563
     59  C          4.0610   66.1330  101.8210 C.2   153  ARG153      0.2260
     60  O          3.5010   65.1360  101.3770 O.2   153  ARG153     -0.2867
     61  CB         6.5310   65.7000  101.6590 C.3   153  ARG153      0.0307
     62  CG         7.8550   66.0240  100.9700 C.3   153  ARG153      0.0489
     63  CD         8.9140   64.9610  101.2590 C.3   153  ARG153      0.2205
     64  NE         9.9040   64.8590  100.1810 N.pl3 153  ARG153     -0.0865
     65  CZ        10.7670   65.8170   99.8650 C.cat 153  ARG153      0.5346
     66  NH1       10.7650   66.9500  100.5450 N.pl3 153  ARG153      0.1354
     67  NH2       11.6260   65.6520   98.8720 N.pl3 153  ARG153      0.1354
     68  N          1.4630   70.4470   92.3150 N.3   179  ARG179     -0.1231
     69  CA         2.7020   69.7060   92.4780 C.3   179  ARG179      0.1694
     70  C          3.7680   70.6980   92.0370 C.2   179  ARG179      0.2592
     71  O          3.6480   71.3240   90.9830 O.2   179  ARG179     -0.2718
     72  CB         2.7480   68.4760   91.5720 C.3   179  ARG179      0.0321
     73  CG         3.9760   67.5940   91.7960 C.3   179  ARG179      0.0489
     74  CD         4.0410   66.4900   90.7550 C.3   179  ARG179      0.2205
     75  NE         4.9380   65.4030   91.1400 N.pl3 179  ARG179     -0.0865
     76  CZ         6.2490   65.5340   91.3230 C.cat 179  ARG179      0.5346
     77  NH1        6.8320   66.7150   91.1560 N.pl3 179  ARG179      0.1354
     78  NH2        6.9810   64.4820   91.6710 N.pl3 179  ARG179      0.1354
     79  N          4.8020   70.8500   92.8510 N.am  180  HIS180     -0.1976
     80  CA         5.8820   71.7760   92.5570 C.3   180  HIS180      0.1656
     81  C          6.8610   71.1730   91.5590 C.2   180  HIS180      0.2291
     82  O          7.2980   70.0330   91.7200 O.2   180  HIS180     -0.2864
     83  CB         6.6100   72.1240   93.8560 C.3   180  HIS180      0.0771
     84  CG         7.7610   73.0640   93.6830 C.ar  180  HIS180      0.0820
     85  ND1        9.0010   72.8220   94.2320 N.ar  180  HIS180     -0.2267
     86  CD2        7.8440   74.2790   93.0910 C.ar  180  HIS180      0.1154
     87  CE1        9.7990   73.8460   93.9880 C.ar  180  HIS180      0.1986
     88  NE2        9.1230   74.7450   93.2970 N.ar  180  HIS180     -0.2212
     89  N         10.4900   70.9340   89.9460 N.3   182  GLY182     -0.1225
     90  CA        11.8300   71.2160   90.4250 C.3   182  GLY182      0.1811
     91  C         12.5610   72.1650   89.4930 C.2   182  GLY182      0.2280
     92  O         13.4620   71.7570   88.7570 O.2   182  GLY182     -0.2866
     93  N         13.8300   76.5210   89.4360 N.3   184  TYR184     -0.1241
     94  CA        13.8790   77.8060   90.1260 C.3   184  TYR184      0.1605
     95  C         14.5770   78.8920   89.3190 C.2   184  TYR184      0.2264
     96  O         15.5050   78.6250   88.5670 O.2   184  TYR184     -0.2867
     97  CB        14.6280   77.6950   91.4630 C.3   184  TYR184      0.0534
     98  CG        14.1130   76.6590   92.4310 C.ar  184  TYR184     -0.0201
     99  CD1       14.7350   75.4140   92.5410 C.ar  184  TYR184     -0.0009
    100  CD2       13.0280   76.9350   93.2680 C.ar  184  TYR184     -0.0009
    101  CE1       14.2980   74.4670   93.4640 C.ar  184  TYR184      0.0417
    102  CE2       12.5810   75.9960   94.1960 C.ar  184  TYR184      0.0417
    103  CZ        13.2240   74.7650   94.2930 C.ar  184  TYR184      0.1957
    104  OH        12.8200   73.8520   95.2370 O.3   184  TYR184     -0.2866
    105  N         13.1360   68.0570  103.7330 N.3   207  LYS207     -0.1231
    106  CA        14.1110   67.7730  102.6760 C.3   207  LYS207      0.1693
    107  C         13.7610   68.6910  101.4980 C.2   207  LYS207      0.2592
    108  O         13.6880   68.2540  100.3520 O.2   207  LYS207     -0.2718
    109  CB        14.0580   66.3060  102.2140 C.3   207  LYS207      0.0285
    110  CG        14.4560   65.2670  103.2620 C.3   207  LYS207      0.0035
    111  CD        15.8470   65.5210  103.8200 C.3   207  LYS207      0.0206
    112  CE        16.2250   64.4640  104.8500 C.3   207  LYS207      0.1093
    113  NZ        17.4680   64.8170  105.5910 N.3   207  LYS207     -0.1314
    114  N         13.5260   69.9670  101.7880 N.am  208  LEU208     -0.1966
    115  CA        13.1850   70.9280  100.7420 C.3   208  LEU208      0.1728
    116  C         14.0340   72.1840  100.8820 C.2   208  LEU208      0.2616
    117  O         13.7950   73.0270  101.7450 O.2   208  LEU208     -0.2715
    118  CB        11.6980   71.2780  100.8080 C.3   208  LEU208      0.0311
    119  CG        10.7340   70.1040  100.5960 C.3   208  LEU208      0.0022
    120  CD1        9.3250   70.5020  101.0280 C.3   208  LEU208      0.0001
    121  CD2       10.7570   69.6690   99.1300 C.3   208  LEU208      0.0001
    122  N         15.0240   72.3040  100.0100 N.am  209  GLU209     -0.1963
    123  CA        15.9430   73.4330  100.0320 C.3   209  GLU209      0.1733
    124  C         15.2660   74.7970  100.0140 C.2   209  GLU209      0.2616
    125  O         15.7860   75.7540  100.6000 O.2   209  GLU209     -0.2715
    126  CB        16.9030   73.3250   98.8460 C.3   209  GLU209      0.0429
    127  CG        16.1830   73.2730   97.5010 C.3   209  GLU209      0.1163
    128  CD        17.0170   72.6290   96.4130 C.2   209  GLU209      0.3649
    129  OE1       17.7650   73.3460   95.7070 O.co2 209  GLU209     -0.2457
    130  OE2       16.9270   71.3930   96.2750 O.co2 209  GLU209     -0.2457
    131  N         14.1200   74.8920   99.3460 N.am  210  GLN210     -0.1977
    132  CA        13.4060   76.1640   99.2500 C.3   210  GLN210      0.1601
    133  C         12.8020   76.6530  100.5710 C.2   210  GLN210      0.2287
    134  O         12.4050   77.8110  100.6840 O.2   210  GLN210     -0.2864
    135  CB        12.3030   76.0930   98.1760 C.3   210  GLN210      0.0394
    136  CG        11.1880   75.0900   98.4520 C.3   210  GLN210      0.0908
    137  CD        11.5000   73.6750   97.9520 C.2   210  GLN210      0.2608
    138  OE1       12.5220   73.0850   98.3090 O.2   210  GLN210     -0.2717
    139  NE2       10.6050   73.1260   97.1310 N.am  210  GLN210     -0.0878
    140  N          9.2390   65.5540   88.1160 N.3   232  GLY232     -0.1225
    141  CA        10.1530   64.8760   89.0200 C.3   232  GLY232      0.1811
    142  C         10.2700   63.3620   88.9990 C.2   232  GLY232      0.2280
    143  O          9.2810   62.6370   89.1090 O.2   232  GLY232     -0.2866
    144  N         12.1390   60.5730   91.1050 N.3   234  ASP234     -0.1239
    145  CA        12.9070   60.2670   92.3060 C.3   234  ASP234      0.1674
    146  C         13.0250   58.7660   92.5150 C.2   234  ASP234      0.2266
    147  O         13.9800   58.2900   93.1260 O.2   234  ASP234     -0.2867
    148  CB        12.2460   60.8900   93.5420 C.3   234  ASP234      0.1410
    149  CG        12.0990   62.3980   93.4350 C.2   234  ASP234      0.3668
    150  OD1       13.1240   63.0950   93.2630 O.co2 234  ASP234     -0.2456
    151  OD2       10.9520   62.8850   93.5290 O.co2 234  ASP234     -0.2456
@<TRIPOS>BOND
     1    36    35    2
     2    35    34    1
     3    34    37    1
     4    34    33    1
     5    37    38    1
     6    33    27   am
     7    41    39   ar
     8     4     3    2
     9    19    18    2
    10    27    28    2
    11    27    26    1
    12    38    39    1
    13    26    25    1
    14    26    29    1
    15    39    40   ar
    16    18    17    1
    17     3     2    1
    18    16    17    1
    19   140   141    1
    20    17    20    1
    21    96    95    2
    22    29    30    1
    23    92    91    2
    24     2     1    1
    25     2     5    1
    26   142   141    1
    27   142   143    2
    28    95    94    1
    29    32    30   ar
    30    93    94    1
    31    91    90    1
    32    20    21    1
    33    30    31   ar
    34     6     5    1
    35     6     7    1
    36    89    90    1
    37    94    97    1
    38    74    75    1
    39    74    73    1
    40    21    22    1
    41     7     8    1
    42     8     9    1
    43    71    70    2
    44   144   145    1
    45    75    76    2
    46    77    76    1
    47    76    78    1
    48    97    98    1
    49    81    82    2
    50    81    80    1
    51    72    73    1
    52    72    69    1
    53    24    22   am
    54    22    23    2
    55    70    69    1
    56    70    79   am
    57   145   146    1
    58   145   148    1
    59    68    69    1
    60    98    99   ar
    61    98   100   ar
    62   146   147    2
    63    99   101   ar
    64    80    79    1
    65    80    83    1
    66    86    88   ar
    67    86    84   ar
    68   150   149   ar
    69   100   102   ar
    70    88    87   ar
    71   149   151   ar
    72   149   148    1
    73   101   103   ar
    74    84    83    1
    75    84    85   ar
    76    87    85   ar
    77   102   103   ar
    78   103   104    1
    79    53    52    2
    80    45    44    2
    81   129   128   ar
    82    50    51    1
    83    46    47    1
    84    46    43    1
    85    44    43    1
    86    12    13    2
    87    12    11    1
    88   130   128   ar
    89    49    47   am
    90    52    51    1
    91   128   127    1
    92    54    51    1
    93    54    56    1
    94    54    55    1
    95    47    48    2
    96    43    42    1
    97   139   137   am
    98    11    14    1
    99    11    10    1
   100   127   126    1
   101   137   138    2
   102   137   136    1
   103    14    15    1
   104   135   136    1
   105   135   132    1
   106   126   123    1
   107    67    65    1
   108   121   119    1
   109   132   131    1
   110   132   133    1
   111   131   124   am
   112    65    64    2
   113    65    66    1
   114   122   123    1
   115   122   116   am
   116   124   123    1
   117   124   125    2
   118    64    63    1
   119   108   107    2
   120   133   134    2
   121   119   118    1
   122   119   120    1
   123   115   118    1
   124   115   116    1
   125   115   114    1
   126   116   117    2
   127    62    63    1
   128    62    61    1
   129    58    61    1
   130    58    57    1
   131    58    59    1
   132    60    59    2
   133   107   114   am
   134   107   106    1
   135   109   106    1
   136   109   110    1
   137   106   105    1
   138   110   111    1
   139   111   112    1
   140   112   113    1
