@<TRIPOS>MOLECULE
tmp/3duwA00.pdb
 186 181 0 0 0
SMALL
GASTEIGER

@<TRIPOS>ATOM
      1  N         41.6680   45.3070   33.0270 N.3    37  HIS37      -0.1226
      2  CA        40.4180   44.7740   33.5510 C.3    37  HIS37       0.1752
      3  C         40.5930   43.4740   34.3260 C.2    37  HIS37       0.2596
      4  O         39.6020   42.8050   34.6390 O.2    37  HIS37      -0.2718
      5  CB        39.4040   44.5540   32.4220 C.3    37  HIS37       0.0759
      6  CG        39.0050   45.8080   31.7070 C.ar   37  HIS37       0.0818
      7  ND1       39.1140   47.0600   32.2730 N.ar   37  HIS37      -0.2268
      8  CD2       38.4720   45.9960   30.4770 C.ar   37  HIS37       0.1154
      9  CE1       38.6680   47.9660   31.4210 C.ar   37  HIS37       0.1986
     10  NE2       38.2720   47.3470   30.3240 N.ar   37  HIS37      -0.2212
     11  N         41.8370   43.1150   34.6390 N.am   38  ASP38      -0.1960
     12  CA        42.0880   41.8920   35.4030 C.3    38  ASP38       0.1840
     13  C         41.5180   42.0690   36.8080 C.2    38  ASP38       0.2621
     14  O         41.4020   43.1920   37.2990 O.2    38  ASP38      -0.2715
     15  CB        43.5920   41.6130   35.5720 C.3    38  ASP38       0.1450
     16  CG        44.4240   42.0310   34.3750 C.2    38  ASP38       0.3671
     17  OD1       44.5350   43.2490   34.1250 O.co2  38  ASP38      -0.2456
     18  OD2       44.9830   41.1420   33.6950 O.co2  38  ASP38      -0.2456
     19  N         41.1550   40.9730   37.4610 N.am   39  VAL39      -0.1977
     20  CA        40.6910   41.1020   38.8370 C.3    39  VAL39       0.1596
     21  C         41.8970   41.6320   39.6130 C.2    39  VAL39       0.2287
     22  O         43.0460   41.4690   39.1880 O.2    39  VAL39      -0.2864
     23  CB        40.2750   39.7430   39.4610 C.3    39  VAL39       0.0276
     24  CG1       39.0090   39.2350   38.8000 C.3    39  VAL39       0.0022
     25  CG2       41.4090   38.7270   39.3450 C.3    39  VAL39       0.0022
     26  N         35.6100   34.8020   30.0550 N.3    63  GLY63      -0.1210
     27  CA        36.3270   36.0680   30.0070 C.3    63  GLY63       0.1956
     28  C         37.7390   35.8510   30.5430 C.2    63  GLY63       0.2613
     29  O         37.9720   35.9660   31.7470 O.2    63  GLY63      -0.2717
     30  N         38.6930   35.5830   29.6450 N.am   64  THR64      -0.1938
     31  CA        40.0780   35.2990   30.0370 C.3    64  THR64       0.2028
     32  C         41.0530   36.4910   30.0750 C.2    64  THR64       0.2642
     33  O         41.9410   36.5210   30.9440 O.2    64  THR64      -0.2714
     34  CB        40.7080   34.2520   29.0740 C.3    64  THR64       0.1808
     35  OG1       39.7440   33.2350   28.7540 O.3    64  THR64      -0.2208
     36  CG2       41.9360   33.6330   29.7220 C.3    64  THR64       0.0379
     37  N         40.9020   37.4410   29.1410 N.am   65  LEU65      -0.1977
     38  CA        41.8320   38.5780   29.0410 C.3    65  LEU65       0.1596
     39  C         43.2640   38.0470   28.8930 C.2    65  LEU65       0.2287
     40  O         43.6290   37.4790   27.8650 O.2    65  LEU65      -0.2864
     41  CB        41.7790   39.4670   30.2740 C.3    65  LEU65       0.0297
     42  CG        42.2950   40.8910   30.1260 C.3    65  LEU65       0.0022
     43  CD1       41.6770   41.5530   28.9010 C.3    65  LEU65       0.0001
     44  CD2       41.9690   41.6950   31.3700 C.3    65  LEU65       0.0001
     45  N         45.0750   36.3210   34.0500 N.3    68  TYR68      -0.1227
     46  CA        45.4170   36.6500   35.4300 C.3    68  TYR68       0.1736
     47  C         44.4730   35.9350   36.4090 C.2    68  TYR68       0.2596
     48  O         44.9290   35.2140   37.2930 O.2    68  TYR68      -0.2718
     49  CB        45.3690   38.1660   35.6370 C.3    68  TYR68       0.0548
     50  CG        45.8610   38.6120   36.9960 C.ar   68  TYR68      -0.0200
     51  CD1       47.2230   38.6500   37.2960 C.ar   68  TYR68      -0.0009
     52  CD2       44.9580   38.9830   37.9890 C.ar   68  TYR68      -0.0009
     53  CE1       47.6720   39.0500   38.5540 C.ar   68  TYR68       0.0417
     54  CE2       45.3930   39.3810   39.2460 C.ar   68  TYR68       0.0417
     55  CZ        46.7470   39.4120   39.5230 C.ar   68  TYR68       0.1957
     56  OH        47.1620   39.7910   40.7800 O.3    68  TYR68      -0.2866
     57  N         43.1650   36.1170   36.2540 N.am   69  SER69      -0.1952
     58  CA        42.2220   35.4390   37.1420 C.3    69  SER69       0.1924
     59  C         42.3360   33.9300   36.9630 C.2    69  SER69       0.2314
     60  O         42.2040   33.1700   37.9200 O.2    69  SER69      -0.2863
     61  CB        40.7850   35.8550   36.8320 C.3    69  SER69       0.2116
     62  OG        40.4770   35.6110   35.4690 O.3    69  SER69      -0.2180
     63  N         37.0110   30.8180   28.4720 N.3    86  LEU86      -0.1231
     64  CA        36.5600   31.3050   27.1710 C.3    86  LEU86       0.1693
     65  C         36.9590   32.7510   26.8810 C.2    86  LEU86       0.2592
     66  O         36.7160   33.6500   27.6910 O.2    86  LEU86      -0.2718
     67  CB        35.0370   31.1600   27.0940 C.3    86  LEU86       0.0284
     68  CG        34.5130   29.8110   27.6040 C.3    86  LEU86       0.0019
     69  CD1       33.0040   29.7570   27.4480 C.3    86  LEU86       0.0001
     70  CD2       35.1690   28.6680   26.8470 C.3    86  LEU86       0.0001
     71  N         37.5490   32.9690   25.7070 N.am   87  GLU87      -0.1966
     72  CA        38.0040   34.2950   25.3030 C.3    87  GLU87       0.1733
     73  C         37.7010   34.5770   23.8300 C.2    87  GLU87       0.2616
     74  O         38.0730   33.8000   22.9490 O.2    87  GLU87      -0.2715
     75  CB        39.5070   34.4130   25.5690 C.3    87  GLU87       0.0429
     76  CG        40.1380   35.7140   25.1130 C.3    87  GLU87       0.1163
     77  CD        39.4190   36.9300   25.6600 C.2    87  GLU87       0.3649
     78  OE1       39.1670   36.9700   26.8860 O.co2  87  GLU87      -0.2457
     79  OE2       39.1120   37.8470   24.8670 O.co2  87  GLU87      -0.2457
     80  N         37.0370   35.6970   23.5680 N.am   88  ALA88      -0.1963
     81  CA        36.6640   36.0700   22.2060 C.3    88  ALA88       0.1728
     82  C         37.8090   36.6110   21.3530 C.2    88  ALA88       0.2616
     83  O         37.8550   36.3680   20.1480 O.2    88  ALA88      -0.2715
     84  CB        35.5350   37.0850   22.2450 C.3    88  ALA88       0.0334
     85  N         38.7250   37.3500   21.9680 N.am   89  SER89      -0.1950
     86  CA        39.8500   37.9260   21.2380 C.3    89  SER89       0.1924
     87  C         40.9790   36.9280   21.0160 C.2    89  SER89       0.2314
     88  O         41.5090   36.3550   21.9700 O.2    89  SER89      -0.2863
     89  CB        40.3880   39.1440   21.9930 C.3    89  SER89       0.2116
     90  OG        41.6360   39.5590   21.4670 O.3    89  SER89      -0.2180
     91  N         43.9880   38.2540   22.8420 N.3    92  HIS92      -0.1241
     92  CA        43.9090   38.0300   24.2850 C.3    92  HIS92       0.1621
     93  C         44.1600   36.5640   24.6110 C.2    92  HIS92       0.2264
     94  O         44.9390   36.2420   25.5080 O.2    92  HIS92      -0.2867
     95  CB        42.5300   38.4060   24.8400 C.3    92  HIS92       0.0745
     96  CG        42.2370   39.8710   24.8140 C.ar   92  HIS92       0.0817
     97  ND1       41.1380   40.4150   25.4430 N.ar   92  HIS92      -0.2268
     98  CD2       42.8790   40.9050   24.2190 C.ar   92  HIS92       0.1154
     99  CE1       41.1140   41.7200   25.2360 C.ar   92  HIS92       0.1986
    100  NE2       42.1600   42.0420   24.4960 N.ar   92  HIS92      -0.2212
    101  N         36.9950   32.2070   20.8980 N.3   114  GLY114     -0.1210
    102  CA        35.7070   32.3470   20.2450 C.3   114  GLY114      0.1956
    103  C         34.6780   33.0190   21.1280 C.2   114  GLY114      0.2612
    104  O         34.9160   33.2360   22.3180 O.2   114  GLY114     -0.2717
    105  N         33.5390   33.3750   20.5470 N.am  115  LEU115     -0.1965
    106  CA        32.4790   34.0010   21.3240 C.3   115  LEU115      0.1728
    107  C         32.0120   32.9640   22.3360 C.2   115  LEU115      0.2616
    108  O         31.7570   31.8090   21.9850 O.2   115  LEU115     -0.2715
    109  CB        31.3270   34.4240   20.4100 C.3   115  LEU115      0.0311
    110  CG        31.6770   35.4920   19.3680 C.3   115  LEU115      0.0022
    111  CD1       30.4790   35.7550   18.4690 C.3   115  LEU115      0.0001
    112  CD2       32.1060   36.7710   20.0720 C.3   115  LEU115      0.0001
    113  N         31.9180   33.3730   23.5980 N.am  116  ALA116     -0.1963
    114  CA        31.5130   32.4670   24.6640 C.3   116  ALA116      0.1728
    115  C         30.2520   31.6610   24.3650 C.2   116  ALA116      0.2616
    116  O         30.2140   30.4610   24.6130 O.2   116  ALA116     -0.2715
    117  CB        31.3470   33.2370   25.9720 C.3   116  ALA116      0.0334
    118  N         29.2250   32.3060   23.8220 N.am  117  LEU117     -0.1977
    119  CA        27.9940   31.5870   23.5240 C.3   117  LEU117      0.1596
    120  C         28.2220   30.4340   22.5480 C.2   117  LEU117      0.2287
    121  O         27.5840   29.3880   22.6660 O.2   117  LEU117     -0.2864
    122  CB        26.9270   32.5470   22.9910 C.3   117  LEU117      0.0297
    123  CG        26.3970   33.5590   24.0150 C.3   117  LEU117      0.0022
    124  CD1       25.3320   34.4230   23.3680 C.3   117  LEU117      0.0001
    125  CD2       25.8230   32.8310   25.2260 C.3   117  LEU117      0.0001
    126  N         33.0570   31.1400   36.8880 N.3   135  PHE135     -0.1241
    127  CA        33.3750   32.5560   37.0480 C.3   135  PHE135      0.1605
    128  C         32.9450   33.2950   35.7890 C.2   135  PHE135      0.2264
    129  O         33.4860   33.0590   34.7080 O.2   135  PHE135     -0.2867
    130  CB        34.8830   32.7280   37.2870 C.3   135  PHE135      0.0534
    131  CG        35.3150   34.1550   37.5220 C.ar  135  PHE135     -0.0203
    132  CD1       34.5920   34.9890   38.3700 C.ar  135  PHE135     -0.0042
    133  CD2       36.4650   34.6550   36.9180 C.ar  135  PHE135     -0.0042
    134  CE1       35.0110   36.3030   38.6120 C.ar  135  PHE135     -0.0003
    135  CE2       36.8890   35.9620   37.1550 C.ar  135  PHE135     -0.0003
    136  CZ        36.1600   36.7870   38.0040 C.ar  135  PHE135     -0.0000
    137  N         32.9660   36.5790   33.9130 N.3   137  ASP137     -0.1225
    138  CA        33.7010   37.8370   33.8860 C.3   137  ASP137      0.1805
    139  C         34.0730   38.2750   32.4700 C.2   137  ASP137      0.2598
    140  O         35.2290   38.6020   32.1970 O.2   137  ASP137     -0.2718
    141  CB        34.9650   37.6770   34.7400 C.3   137  ASP137      0.1424
    142  CG        35.6460   38.9910   35.0450 C.2   137  ASP137      0.3668
    143  OD1       34.9540   40.0220   35.1350 O.co2 137  ASP137     -0.2456
    144  OD2       36.8820   38.9860   35.2210 O.co2 137  ASP137     -0.2456
    145  N         33.0870   38.2940   31.5790 N.am  138  ALA138     -0.1966
    146  CA        33.3210   38.6940   30.1970 C.3   138  ALA138      0.1728
    147  C         32.5210   39.9540   29.8730 C.2   138  ALA138      0.2616
    148  O         32.6390   40.9630   30.5700 O.2   138  ALA138     -0.2715
    149  CB        32.9350   37.5500   29.2600 C.3   138  ALA138      0.0334
    150  N         31.7300   39.9070   28.8020 N.am  139  ASP139     -0.1957
    151  CA        30.9000   41.0470   28.4290 C.3   139  ASP139      0.1840
    152  C         29.6320   40.9220   29.2620 C.2   139  ASP139      0.2621
    153  O         28.8230   40.0230   29.0560 O.2   139  ASP139     -0.2715
    154  CB        30.6000   41.0360   26.9210 C.3   139  ASP139      0.1450
    155  CG        30.0570   39.7080   26.4280 C.2   139  ASP139      0.3671
    156  OD1       30.5510   38.6420   26.8580 O.co2 139  ASP139     -0.2456
    157  OD2       29.1400   39.7340   25.5770 O.co2 139  ASP139     -0.2456
    158  N         29.4840   41.8250   30.2240 N.am  140  LYS140     -0.1977
    159  CA        28.3560   41.7750   31.1360 C.3   140  LYS140      0.1596
    160  C         26.9840   41.9200   30.4880 C.2   140  LYS140      0.2287
    161  O         25.9790   41.5190   31.0760 O.2   140  LYS140     -0.2864
    162  CB        28.5560   42.8030   32.2550 C.3   140  LYS140      0.0298
    163  CG        29.9410   42.7220   32.9250 C.3   140  LYS140      0.0038
    164  CD        30.3250   41.2880   33.2900 C.3   140  LYS140      0.0206
    165  CE        31.6300   41.2010   34.0980 C.3   140  LYS140      0.1093
    166  NZ        32.8870   41.5590   33.3690 N.3   140  LYS140     -0.1314
    167  N         25.9180   40.1800   28.3330 N.3   142  ASN142     -0.1240
    168  CA        25.4830   38.8080   28.0850 C.3   142  ASN142      0.1653
    169  C         25.3540   37.9450   29.3370 C.2   142  ASN142      0.2266
    170  O         25.1760   36.7300   29.2380 O.2   142  ASN142     -0.2867
    171  CB        26.4290   38.1260   27.0920 C.3   142  ASN142      0.1155
    172  CG        25.9330   38.2150   25.6610 C.2   142  ASN142      0.2627
    173  OD1       26.7230   38.3580   24.7250 O.2   142  ASN142     -0.2716
    174  ND2       24.6200   38.1160   25.4830 N.am  142  ASN142     -0.0877
    175  N         24.8250   33.8700   29.8770 N.3   146  TYR146     -0.1241
    176  CA        25.8890   33.1090   30.5240 C.3   146  TYR146      0.1605
    177  C         25.3780   32.4310   31.7890 C.2   146  TYR146      0.2264
    178  O         25.8030   31.3270   32.1180 O.2   146  TYR146     -0.2867
    179  CB        27.0880   34.0090   30.8490 C.3   146  TYR146      0.0534
    180  CG        27.7430   34.6240   29.6250 C.ar  146  TYR146     -0.0201
    181  CD1       27.7800   33.9380   28.4060 C.ar  146  TYR146     -0.0009
    182  CD2       28.3250   35.8860   29.6860 C.ar  146  TYR146     -0.0009
    183  CE1       28.3730   34.4990   27.2850 C.ar  146  TYR146      0.0417
    184  CE2       28.9250   36.4550   28.5690 C.ar  146  TYR146      0.0417
    185  CZ        28.9420   35.7560   27.3700 C.ar  146  TYR146      0.1957
    186  OH        29.5070   36.3200   26.2510 O.3   146  TYR146     -0.2866
@<TRIPOS>BOND
     1   111   110    1
     2   110   112    1
     3   110   109    1
     4    83    82    2
     5   102   101    1
     6   102   103    1
     7   109   106    1
     8   105   103   am
     9   105   106    1
    10    87    86    1
    11    87    88    2
    12   103   104    2
    13    86    85    1
    14    86    89    1
    15   106   107    1
    16    82    85   am
    17    82    81    1
    18    90    89    1
    19   108   107    2
    20    81    84    1
    21    81    80    1
    22   107   113   am
    23   120   121    2
    24   120   119    1
    25    91    92    1
    26    74    73    2
    27   122   119    1
    28   122   123    1
    29   124   123    1
    30   119   118    1
    31    80    73   am
    32   113   114    1
    33   118   115   am
    34    73    72    1
    35   123   125    1
    36    98   100   ar
    37    98    96   ar
    38    92    93    1
    39    92    95    1
    40   115   116    2
    41   115   114    1
    42   100    99   ar
    43    93    94    2
    44   114   117    1
    45   173   172    2
    46    96    95    1
    47    96    97   ar
    48    79    77   ar
    49    76    75    1
    50    76    77    1
    51    99    97   ar
    52    72    75    1
    53    72    71    1
    54   174   172   am
    55   157   155   ar
    56    77    78   ar
    57   172   171    1
    58    71    65   am
    59   186   185    1
    60   155   156   ar
    61   155   154    1
    62    70    68    1
    63    65    64    1
    64    65    66    2
    65   154   151    1
    66   171   168    1
    67    67    64    1
    68    67    68    1
    69    64    63    1
    70   183   185   ar
    71   183   181   ar
    72   185   184   ar
    73    69    68    1
    74    40    39    2
    75   168   167    1
    76   168   169    1
    77   181   180   ar
    78   151   150    1
    79   151   152    1
    80   184   182   ar
    81    35    34    1
    82   150   147   am
    83    39    38    1
    84    43    42    1
    85    38    37    1
    86    38    41    1
    87   153   152    2
    88    34    36    1
    89    34    31    1
    90    37    32   am
    91   170   169    2
    92   149   146    1
    93   152   158   am
    94   180   182   ar
    95   180   179    1
    96    30    31    1
    97    30    28   am
    98   147   146    1
    99   147   148    2
   100   175   176    1
   101    27    26    1
   102    27    28    1
   103    31    32    1
   104    32    33    2
   105    42    41    1
   106    42    44    1
   107   146   145    1
   108   158   159    1
   109    10     8   ar
   110    10     9   ar
   111     8     6   ar
   112   160   161    2
   113   160   159    1
   114   176   179    1
   115   176   177    1
   116    28    29    2
   117   159   162    1
   118     9     7   ar
   119   145   139   am
   120     6     7   ar
   121     6     5    1
   122   177   178    2
   123   140   139    2
   124   162   163    1
   125     5     2    1
   126   139   138    1
   127   163   164    1
   128     1     2    1
   129   164   165    1
   130   166   165    1
   131     2     3    1
   132    18    16   ar
   133   138   137    1
   134   138   141    1
   135    45    46    1
   136    17    16   ar
   137     3    11   am
   138     3     4    2
   139    16    15    1
   140    11    12    1
   141   129   128    2
   142   141   142    1
   143   142   143   ar
   144   142   144   ar
   145    12    15    1
   146    12    13    1
   147    46    49    1
   148    46    47    1
   149    62    61    1
   150    49    50    1
   151   128   127    1
   152    57    47   am
   153    57    58    1
   154    47    48    2
   155    13    14    2
   156    13    19   am
   157    61    58    1
   158   126   127    1
   159   133   135   ar
   160   133   131   ar
   161    59    58    1
   162    59    60    2
   163    50    51   ar
   164    50    52   ar
   165   127   130    1
   166   135   136   ar
   167   130   131    1
   168    51    53   ar
   169    19    20    1
   170   131   132   ar
   171    52    54   ar
   172   136   134   ar
   173   132   134   ar
   174    53    55   ar
   175    24    23    1
   176    20    23    1
   177    20    21    1
   178    22    21    2
   179    54    55   ar
   180    25    23    1
   181    55    56    1
