@<TRIPOS>MOLECULE
tmp/3dv0C00.pdb
 154 147 0 0 0
SMALL
GASTEIGER

@<TRIPOS>ATOM
      1  N         29.0250  -22.0980   20.4000 N.3    78  GLN78      -0.1245
      2  CA        28.7640  -20.8010   19.7830 C.3    78  GLN78       0.1566
      3  C         30.0220  -20.0660   19.3600 C.2    78  GLN78       0.2260
      4  O         29.9640  -18.8760   19.0670 O.2    78  GLN78      -0.2867
      5  CB        27.9850  -19.8980   20.7420 C.3    78  GLN78       0.0367
      6  CG        26.5710  -20.3420   21.0510 C.3    78  GLN78       0.0905
      7  CD        25.8040  -19.2800   21.8250 C.2    78  GLN78       0.2608
      8  OE1       24.6530  -19.4780   22.1920 O.2    78  GLN78      -0.2717
      9  NE2       26.4470  -18.1440   22.0720 N.am   78  GLN78      -0.0878
     10  N         24.7690  -11.4030   29.0870 N.3    99  TYR99      -0.1227
     11  CA        25.3380  -12.2340   30.1490 C.3    99  TYR99       0.1736
     12  C         26.1480  -13.4360   29.6620 C.2    99  TYR99       0.2595
     13  O         26.8970  -14.0280   30.4310 O.2    99  TYR99      -0.2718
     14  CB        24.2170  -12.7220   31.0610 C.3    99  TYR99       0.0548
     15  CG        23.1380  -13.4480   30.3020 C.ar   99  TYR99      -0.0200
     16  CD1       23.2670  -14.8010   29.9780 C.ar   99  TYR99      -0.0009
     17  CD2       22.0010  -12.7680   29.8600 C.ar   99  TYR99      -0.0009
     18  CE1       22.2940  -15.4560   29.2310 C.ar   99  TYR99       0.0417
     19  CE2       21.0180  -13.4120   29.1120 C.ar   99  TYR99       0.0417
     20  CZ        21.1720  -14.7500   28.8020 C.ar   99  TYR99       0.1957
     21  OH        20.2040  -15.3740   28.0600 O.3    99  TYR99      -0.2866
     22  N         26.0000  -13.7870   28.3880 N.am  100  ARG100     -0.1980
     23  CA        26.7020  -14.9430   27.8210 C.3   100  ARG100      0.1597
     24  C         27.8480  -14.5650   26.8780 C.2   100  ARG100      0.2287
     25  O         28.5550  -15.4390   26.3760 O.2   100  ARG100     -0.2864
     26  CB        25.6990  -15.8290   27.0550 C.3   100  ARG100      0.0334
     27  CG        26.1410  -17.2780   26.8270 C.3   100  ARG100      0.0492
     28  CD        25.1180  -18.0760   26.0020 C.3   100  ARG100      0.2205
     29  NE        23.8640  -18.2900   26.7200 N.pl3 100  ARG100     -0.0865
     30  CZ        23.6870  -19.1880   27.6860 C.cat 100  ARG100      0.5346
     31  NH1       24.6870  -19.9770   28.0600 N.pl3 100  ARG100      0.1354
     32  NH2       22.5060  -19.2900   28.2880 N.pl3 100  ARG100      0.1354
     33  N         22.7570   -7.9110   32.1410 N.3   139  ILE139     -0.1231
     34  CA        21.8770   -8.9150   32.7120 C.3   139  ILE139      0.1692
     35  C         20.3990   -8.7220   32.3310 C.2   139  ILE139      0.2592
     36  O         19.6490   -9.6880   32.2140 O.2   139  ILE139     -0.2718
     37  CB        22.0290   -8.9380   34.2530 C.3   139  ILE139      0.0266
     38  CG1       21.5360  -10.2740   34.8070 C.3   139  ILE139      0.0019
     39  CG2       21.2650   -7.7830   34.8780 C.3   139  ILE139      0.0020
     40  CD1       22.3690  -11.4430   34.3720 C.3   139  ILE139      0.0001
     41  N         19.9770   -7.4810   32.1270 N.am  140  ILE140     -0.1966
     42  CA        18.5900   -7.2290   31.7500 C.3   140  ILE140      0.1727
     43  C         18.4270   -7.4480   30.2450 C.2   140  ILE140      0.2616
     44  O         18.7500   -6.5720   29.4360 O.2   140  ILE140     -0.2715
     45  CB        18.1570   -5.7890   32.1380 C.3   140  ILE140      0.0290
     46  CG1       18.1870   -5.6500   33.6630 C.3   140  ILE140      0.0022
     47  CG2       16.7600   -5.4700   31.5970 C.3   140  ILE140      0.0023
     48  CD1       17.4160   -6.7020   34.3990 C.3   140  ILE140      0.0001
     49  N         17.9250   -8.6290   29.8780 N.am  141  ILE141     -0.1977
     50  CA        17.7430   -8.9750   28.4770 C.3   141  ILE141      0.1596
     51  C         17.0290   -7.8870   27.6800 C.2   141  ILE141      0.2287
     52  O         15.8530   -7.5920   27.9110 O.2   141  ILE141     -0.2864
     53  CB        16.9620  -10.2960   28.3210 C.3   141  ILE141      0.0276
     54  CG1       17.7540  -11.4540   28.9320 C.3   141  ILE141      0.0022
     55  CG2       16.7080  -10.5690   26.8600 C.3   141  ILE141      0.0022
     56  CD1       17.0700  -12.7910   28.8600 C.3   141  ILE141      0.0001
     57  N         22.3010  -10.6030   21.6710 N.3   168  THR168     -0.1203
     58  CA        21.1790  -11.1000   22.4710 C.3   168  THR168      0.1994
     59  C         20.7690  -12.4630   21.8980 C.2   168  THR168      0.2618
     60  O         21.1730  -12.8260   20.7890 O.2   168  THR168     -0.2717
     61  CB        19.9540  -10.1650   22.4460 C.3   168  THR168      0.1784
     62  OG1       18.9590  -10.6730   23.3440 O.3   168  THR168     -0.2211
     63  CG2       19.3520  -10.0940   21.0520 C.3   168  THR168      0.0376
     64  N         19.9740  -13.2190   22.6500 N.am  169  GLY169     -0.1942
     65  CA        19.5510  -14.5310   22.1840 C.3   169  GLY169      0.2014
     66  C         18.2210  -14.5470   21.4550 C.2   169  GLY169      0.2639
     67  O         17.6440  -13.4970   21.1610 O.2   169  GLY169     -0.2714
     68  N         17.7270  -15.7430   21.1610 N.am  170  ASP170     -0.1957
     69  CA        16.4620  -15.8590   20.4680 C.3   170  ASP170      0.1840
     70  C         15.3090  -15.3490   21.3180 C.2   170  ASP170      0.2623
     71  O         14.4390  -14.6360   20.8240 O.2   170  ASP170     -0.2715
     72  CB        16.2070  -17.3060   20.0120 C.3   170  ASP170      0.1450
     73  CG        16.1390  -18.2990   21.1610 C.2   170  ASP170      0.3671
     74  OD1       16.3630  -17.8970   22.3270 O.co2 170  ASP170     -0.2456
     75  OD2       15.8740  -19.4950   20.8920 O.co2 170  ASP170     -0.2456
     76  N         15.3020  -15.6860   22.5970 N.am  171  GLY171     -0.1940
     77  CA        14.2200  -15.2160   23.4510 C.3   171  GLY171      0.2014
     78  C         14.2210  -13.6980   23.5990 C.2   171  GLY171      0.2639
     79  O         13.1620  -13.0600   23.7110 O.2   171  GLY171     -0.2714
     80  N         15.4170  -13.1160   23.5820 N.am  172  GLY172     -0.1954
     81  CA        15.5530  -11.6800   23.7250 C.3   172  GLY172      0.1869
     82  C         14.9030  -10.8850   22.6160 C.2   172  GLY172      0.2309
     83  O         14.6160   -9.7010   22.7750 O.2   172  GLY172     -0.2863
     84  N         11.5900   -8.9580   23.4280 N.3   175  GLN175     -0.1245
     85  CA        11.6010   -7.7850   24.2840 C.3   175  GLN175      0.1566
     86  C         11.3540   -6.4780   23.5420 C.2   175  GLN175      0.2260
     87  O         11.7730   -6.3120   22.3910 O.2   175  GLN175     -0.2867
     88  CB        12.9330   -7.7090   25.0290 C.3   175  GLN175      0.0367
     89  CG        12.9960   -8.6140   26.2330 C.3   175  GLN175      0.0905
     90  CD        12.1070   -8.1350   27.3570 C.2   175  GLN175      0.2608
     91  OE1       11.3860   -7.1590   27.2070 O.2   175  GLN175     -0.2717
     92  NE2       12.1590   -8.8170   28.4920 N.am  175  GLN175     -0.0878
     93  N         21.8360  -14.4140   18.4750 N.3   197  GLN197     -0.1245
     94  CA        22.3530  -15.7620   18.4470 C.3   197  GLN197      0.1566
     95  C         21.1950  -16.6790   18.8050 C.2   197  GLN197      0.2260
     96  O         20.7030  -16.6940   19.9310 O.2   197  GLN197     -0.2867
     97  CB        23.5070  -15.8870   19.4330 C.3   197  GLN197      0.0367
     98  CG        24.4390  -14.6900   19.3650 C.3   197  GLN197      0.0905
     99  CD        25.6700  -14.8550   20.2170 C.2   197  GLN197      0.2608
    100  OE1       26.5580  -15.6450   19.8960 O.2   197  GLN197     -0.2717
    101  NE2       25.7300  -14.1160   21.3180 N.am  197  GLN197     -0.0878
    102  N         19.9110  -20.1720   19.5210 N.3   199  ASN199     -0.1240
    103  CA        20.2890  -21.5140   19.9290 C.3   199  ASN199      0.1653
    104  C         19.0320  -22.3500   20.1320 C.2   199  ASN199      0.2266
    105  O         19.0750  -23.4220   20.7330 O.2   199  ASN199     -0.2867
    106  CB        21.1390  -21.4980   21.2070 C.3   199  ASN199      0.1155
    107  CG        20.3960  -20.9660   22.4130 C.2   199  ASN199      0.2627
    108  OD1       19.1800  -21.1610   22.5680 O.2   199  ASN199     -0.2716
    109  ND2       21.1410  -20.2950   23.3000 N.am  199  ASN199     -0.0877
    110  N         16.7020  -21.8950   22.0250 N.3   201  PHE201     -0.1227
    111  CA        16.1870  -21.8810   23.3870 C.3   201  PHE201      0.1736
    112  C         16.4460  -20.6380   24.2150 C.2   201  PHE201      0.2595
    113  O         17.4330  -19.9050   24.0090 O.2   201  PHE201     -0.2718
    114  CB        16.7340  -23.0840   24.1590 C.3   201  PHE201      0.0547
    115  CG        16.1540  -24.4020   23.7300 C.ar  201  PHE201     -0.0202
    116  CD1       14.8740  -24.7780   24.1320 C.ar  201  PHE201     -0.0042
    117  CD2       16.8840  -25.2660   22.9190 C.ar  201  PHE201     -0.0042
    118  CE1       14.3300  -25.9950   23.7340 C.ar  201  PHE201     -0.0003
    119  CE2       16.3500  -26.4860   22.5140 C.ar  201  PHE201     -0.0003
    120  CZ        15.0700  -26.8520   22.9230 C.ar  201  PHE201     -0.0000
    121  N         15.5200  -20.4370   25.1540 N.am  202  ALA202     -0.1966
    122  CA        15.5280  -19.3650   26.1420 C.3   202  ALA202      0.1728
    123  C         15.2700  -20.1630   27.4180 C.2   202  ALA202      0.2616
    124  O         14.1160  -20.3820   27.8170 O.2   202  ALA202     -0.2715
    125  CB        14.4010  -18.3850   25.8840 C.3   202  ALA202      0.0334
    126  N         16.3610  -20.5980   28.0440 N.am  203  ILE203     -0.1977
    127  CA        16.3130  -21.4400   29.2330 C.3   203  ILE203      0.1596
    128  C         15.4200  -22.4680   28.5450 C.2   203  ILE203      0.2287
    129  O         15.6620  -22.8040   27.3860 O.2   203  ILE203     -0.2864
    130  CB        15.5250  -20.8060   30.4090 C.3   203  ILE203      0.0276
    131  CG1       16.0800  -19.4140   30.7310 C.3   203  ILE203      0.0022
    132  CG2       15.6470  -21.7020   31.6510 C.3   203  ILE203      0.0022
    133  CD1       15.4620  -18.7600   31.9390 C.3   203  ILE203      0.0001
    134  N         24.1110  -24.1560   21.7100 N.3   264  ARG264     -0.1245
    135  CA        25.0690  -24.2820   22.7950 C.3   264  ARG264      0.1563
    136  C         24.9120  -25.7160   23.2820 C.2   264  ARG264      0.2260
    137  O         23.8000  -26.2370   23.3300 O.2   264  ARG264     -0.2867
    138  CB        24.7560  -23.2900   23.9240 C.3   264  ARG264      0.0307
    139  CG        23.3810  -23.4550   24.5520 C.3   264  ARG264      0.0489
    140  CD        23.2610  -22.6470   25.8390 C.3   264  ARG264      0.2205
    141  NE        21.9270  -22.7320   26.4360 N.pl3 264  ARG264     -0.0865
    142  CZ        21.3470  -23.8600   26.8400 C.cat 264  ARG264      0.5346
    143  NH1       21.9770  -25.0200   26.7150 N.pl3 264  ARG264      0.1354
    144  NH2       20.1300  -23.8290   27.3710 N.pl3 264  ARG264      0.1354
    145  N         22.0860  -24.0310   30.6590 N.3   268  HIS268     -0.1241
    146  CA        21.6960  -22.6240   30.5860 C.3   268  HIS268      0.1621
    147  C         22.7790  -21.7610   31.2350 C.2   268  HIS268      0.2264
    148  O         23.4440  -20.9720   30.5600 O.2   268  HIS268     -0.2867
    149  CB        20.3580  -22.3890   31.2970 C.3   268  HIS268      0.0745
    150  CG        20.0890  -20.9470   31.6030 C.ar  268  HIS268      0.0817
    151  ND1       19.9590  -19.9890   30.6200 N.ar  268  HIS268     -0.2268
    152  CD2       19.9870  -20.2900   32.7830 C.ar  268  HIS268      0.1154
    153  CE1       19.7930  -18.8040   31.1820 C.ar  268  HIS268      0.1986
    154  NE2       19.8070  -18.9590   32.4930 N.ar  268  HIS268     -0.2212
@<TRIPOS>BOND
     1    94    93    1
     2    94    95    1
     3    94    97    1
     4    95    96    2
     5     4     3    2
     6     3     2    1
     7    98    97    1
     8    98    99    1
     9   102   103    1
    10     2     1    1
    11     2     5    1
    12   100    99    2
    13   103   104    1
    14   103   106    1
    15    72    69    1
    16    72    73    1
    17   104   105    2
    18    99   101   am
    19    69    68    1
    20    69    70    1
    21     5     6    1
    22    60    59    2
    23    71    70    2
    24    75    73   ar
    25     6     7    1
    26    63    61    1
    27    73    74   ar
    28    68    66   am
    29    67    66    2
    30   106   107    1
    31    70    76   am
    32    66    65    1
    33    57    58    1
    34   134   135    1
    35     7     9   am
    36     7     8    2
    37    59    58    1
    38    59    64   am
    39   110   111    1
    40    65    64    1
    41    87    86    2
    42   107   108    2
    43   107   109   am
    44    61    58    1
    45    61    62    1
    46   119   117   ar
    47   119   120   ar
    48    76    77    1
    49    82    83    2
    50    82    81    1
    51   135   136    1
    52   135   138    1
    53   117   115   ar
    54   120   118   ar
    55   136   137    2
    56   111   114    1
    57   111   112    1
    58    84    85    1
    59    77    78    1
    60    86    85    1
    61    80    78   am
    62    80    81    1
    63    78    79    2
    64   115   116   ar
    65   115   114    1
    66   118   116   ar
    67   138   139    1
    68   113   112    2
    69   112   121   am
    70    85    88    1
    71   139   140    1
    72    88    89    1
    73   121   122    1
    74   140   141    1
    75   125   122    1
    76    28    29    1
    77    28    27    1
    78   122   123    1
    79    89    90    1
    80    25    24    2
    81   141   142    2
    82   143   142    1
    83    29    30    2
    84    27    26    1
    85   142   144    1
    86    55    53    1
    87    24    23    1
    88    26    23    1
    89    91    90    2
    90    90    92   am
    91   129   128    2
    92   123   124    2
    93   123   126   am
    94    51    52    2
    95    51    50    1
    96    30    31    1
    97    30    32    1
    98    23    22    1
    99   126   127    1
   100    21    20    1
   101    53    50    1
   102    53    54    1
   103    22    12   am
   104    50    49    1
   105   128   127    1
   106    20    19   ar
   107    20    18   ar
   108    56    54    1
   109    10    11    1
   110    19    17   ar
   111    18    16   ar
   112   127   130    1
   113    44    43    2
   114    12    11    1
   115    12    13    2
   116    17    15   ar
   117    49    43   am
   118    16    15   ar
   119    11    14    1
   120    43    42    1
   121    15    14    1
   122   130   131    1
   123   130   132    1
   124   148   147    2
   125   146   145    1
   126   146   147    1
   127   146   149    1
   128   151   153   ar
   129   151   150   ar
   130   131   133    1
   131   153   154   ar
   132   149   150    1
   133    47    45    1
   134   150   152   ar
   135    42    41    1
   136    42    45    1
   137    41    35   am
   138    45    46    1
   139    33    34    1
   140    36    35    2
   141    35    34    1
   142   154   152   ar
   143    34    37    1
   144    46    48    1
   145    37    38    1
   146    37    39    1
   147    40    38    1
