@<TRIPOS>MOLECULE
tmp/3dv1B00.pdb
 225 213 0 0 0
SMALL
GASTEIGER

@<TRIPOS>ATOM
      1  N         23.2430   -0.5220  -12.1500 N.3    14  GLY14      -0.1210
      2  CA        22.3940   -0.6380  -13.3210 C.3    14  GLY14       0.1956
      3  C         20.9420   -0.2640  -13.0870 C.2    14  GLY14       0.2612
      4  O         20.1220   -0.4110  -13.9840 O.2    14  GLY14      -0.2717
      5  N         20.6100    0.2150  -11.8920 N.am   15  GLN15      -0.1965
      6  CA        19.2310    0.5950  -11.6120 C.3    15  GLN15       0.1733
      7  C         19.0670    2.0680  -11.2300 C.2    15  GLN15       0.2616
      8  O         18.0250    2.4670  -10.7120 O.2    15  GLN15      -0.2715
      9  CB        18.6410   -0.3160  -10.5270 C.3    15  GLN15       0.0408
     10  CG        18.6900   -1.7960  -10.9060 C.3    15  GLN15       0.0908
     11  CD        17.9010   -2.6850   -9.9610 C.2    15  GLN15       0.2608
     12  OE1       18.0200   -2.5820   -8.7410 O.2    15  GLN15      -0.2717
     13  NE2       17.0980   -3.5750  -10.5260 N.am   15  GLN15      -0.0878
     14  N         20.1040    2.8630  -11.4860 N.am   16  GLY16      -0.1955
     15  CA        20.0520    4.2920  -11.2130 C.3    16  GLY16       0.1869
     16  C         20.3020    4.7790   -9.7980 C.2    16  GLY16       0.2309
     17  O         20.0800    4.0610   -8.8260 O.2    16  GLY16      -0.2863
     18  N         14.9500    9.1850   -8.4060 N.3    33  LEU33      -0.1245
     19  CA        16.0870    8.9360   -9.2740 C.3    33  LEU33       0.1561
     20  C         16.5830   10.2540   -9.8670 C.2    33  LEU33       0.2260
     21  O         15.7890   11.0750  -10.3230 O.2    33  LEU33      -0.2867
     22  CB        15.7020    7.9710  -10.3940 C.3    33  LEU33       0.0270
     23  CG        16.8830    7.6080  -11.2950 C.3    33  LEU33       0.0019
     24  CD1       17.0430    6.1000  -11.3590 C.3    33  LEU33       0.0001
     25  CD2       16.6790    8.2030  -12.6720 C.3    33  LEU33       0.0001
     26  N         18.0810   12.2530  -12.6830 N.3    35  ASP35      -0.1239
     27  CA        18.1920   12.1300  -14.1380 C.3    35  ASP35       0.1674
     28  C         18.5330   13.4150  -14.9050 C.2    35  ASP35       0.2266
     29  O         17.6390   14.1880  -15.2540 O.2    35  ASP35      -0.2867
     30  CB        16.8700   11.5640  -14.6750 C.3    35  ASP35       0.1410
     31  CG        16.9680   11.1040  -16.1140 C.2    35  ASP35       0.3668
     32  OD1       17.8940   10.3290  -16.4310 O.co2  35  ASP35      -0.2456
     33  OD2       16.1070   11.4980  -16.9260 O.co2  35  ASP35      -0.2456
     34  N         19.1980   13.5770  -17.8110 N.3    37  GLY37      -0.1210
     35  CA        18.7810   13.3910  -19.1940 C.3    37  GLY37       0.1956
     36  C         17.3360   13.7790  -19.5090 C.2    37  GLY37       0.2612
     37  O         16.8640   13.6020  -20.6360 O.2    37  GLY37      -0.2717
     38  N         16.6160   14.2950  -18.5220 N.am   38  SER38      -0.1952
     39  CA        15.2340   14.7050  -18.7450 C.3    38  SER38       0.1924
     40  C         14.9340   15.9060  -17.8760 C.2    38  SER38       0.2314
     41  O         15.7800   16.3390  -17.0830 O.2    38  SER38      -0.2863
     42  CB        14.2580   13.5590  -18.4410 C.3    38  SER38       0.2116
     43  OG        14.3120   13.1860  -17.0810 O.3    38  SER38      -0.2180
     44  N         11.4610   16.4830  -16.3460 N.3    40  ASN40      -0.1240
     45  CA        10.2280   16.3880  -15.5730 C.3    40  ASN40       0.1653
     46  C         10.4580   15.7510  -14.2090 C.2    40  ASN40       0.2266
     47  O         11.2160   14.7850  -14.0790 O.2    40  ASN40      -0.2867
     48  CB         9.1740   15.5530  -16.3080 C.3    40  ASN40       0.1155
     49  CG         8.5100   16.3120  -17.4470 C.2    40  ASN40       0.2627
     50  OD1        9.0580   16.4250  -18.5420 O.2    40  ASN40      -0.2716
     51  ND2        7.3220   16.8400  -17.1850 N.am   40  ASN40      -0.0877
     52  N          5.5570   11.1860  -20.8960 N.3    72  VAL72      -0.1231
     53  CA         6.9940   11.2760  -21.1130 C.3    72  VAL72       0.1678
     54  C          7.6060    9.9530  -21.5470 C.2    72  VAL72       0.2434
     55  O          7.5400    8.9610  -20.8270 O.2    72  VAL72      -0.2733
     56  CB         7.7370   11.7420  -19.8370 C.3    72  VAL72       0.0265
     57  CG1        9.2530   11.7260  -20.0860 C.3    72  VAL72       0.0020
     58  CG2        7.2740   13.1440  -19.4430 C.3    72  VAL72       0.0020
     59  N          8.1820    9.9140  -22.7520 N.am   73  PRO73      -0.2718
     60  CA         8.8080    8.6870  -23.2410 C.3    73  PRO73       0.1535
     61  C         10.3270    8.8470  -23.0940 C.2    73  PRO73       0.2599
     62  O         10.8670    9.9270  -23.3490 O.2    73  PRO73      -0.2715
     63  CB         8.3660    8.6450  -24.7010 C.3    73  PRO73       0.0310
     64  CG         8.4440   10.0670  -25.0870 C.3    73  PRO73       0.0237
     65  CD         7.8820   10.8240  -23.8740 C.3    73  PRO73       0.0939
     66  N         11.0030    7.7890  -22.6610 N.am   74  TYR74      -0.1960
     67  CA        12.4570    7.8090  -22.4910 C.3    74  TYR74       0.1771
     68  C         13.0370    6.7760  -23.4560 C.2    74  TYR74       0.2620
     69  O         12.2890    6.0500  -24.1040 O.2    74  TYR74      -0.2715
     70  CB        12.8330    7.4080  -21.0610 C.3    74  TYR74       0.0574
     71  CG        12.2450    8.2730  -19.9710 C.ar   74  TYR74      -0.0198
     72  CD1       12.8580    9.4640  -19.5920 C.ar   74  TYR74      -0.0009
     73  CD2       11.0920    7.8830  -19.3000 C.ar   74  TYR74      -0.0009
     74  CE1       12.3420   10.2360  -18.5710 C.ar   74  TYR74       0.0417
     75  CE2       10.5650    8.6490  -18.2790 C.ar   74  TYR74       0.0417
     76  CZ        11.1910    9.8210  -17.9160 C.ar   74  TYR74       0.1957
     77  OH        10.6750   10.5740  -16.8900 O.3    74  TYR74      -0.2866
     78  N         14.3630    6.7070  -23.5510 N.am   75  THR75      -0.1937
     79  CA        15.0080    5.7310  -24.4260 C.3    75  THR75       0.2028
     80  C         14.4050    4.3600  -24.1130 C.2    75  THR75       0.2642
     81  O         14.1110    3.5770  -25.0090 O.2    75  THR75      -0.2714
     82  CB        16.5230    5.6970  -24.1860 C.3    75  THR75       0.1808
     83  OG1       17.0710    6.9830  -24.4880 O.3    75  THR75      -0.2208
     84  CG2       17.1880    4.6400  -25.0690 C.3    75  THR75       0.0379
     85  N         14.2330    4.0810  -22.8290 N.am   76  GLN76      -0.1976
     86  CA        13.6170    2.8380  -22.3720 C.3    76  GLN76       0.1601
     87  C         12.7110    3.1970  -21.2050 C.2    76  GLN76       0.2287
     88  O         13.1750    3.7000  -20.1850 O.2    76  GLN76      -0.2864
     89  CB        14.6660    1.8240  -21.9160 C.3    76  GLN76       0.0394
     90  CG        15.3780    1.1070  -23.0500 C.3    76  GLN76       0.0908
     91  CD        16.3050    0.0150  -22.5500 C.2    76  GLN76       0.2608
     92  OE1       15.8850   -0.8850  -21.8170 O.2    76  GLN76      -0.2717
     93  NE2       17.5740    0.0850  -22.9440 N.am   76  GLN76      -0.0878
     94  N          9.2410    1.4310  -16.8340 N.3   111  PHE111     -0.1241
     95  CA         9.8370    2.5970  -16.1990 C.3   111  PHE111      0.1605
     96  C         10.3440    2.2210  -14.8080 C.2   111  PHE111      0.2264
     97  O         11.5390    2.2930  -14.5350 O.2   111  PHE111     -0.2867
     98  CB         8.7970    3.7110  -16.0900 C.3   111  PHE111      0.0534
     99  CG         9.2860    4.9360  -15.3770 C.ar  111  PHE111     -0.0203
    100  CD1       10.3060    5.7080  -15.9120 C.ar  111  PHE111     -0.0042
    101  CD2        8.7070    5.3320  -14.1800 C.ar  111  PHE111     -0.0042
    102  CE1       10.7390    6.8560  -15.2690 C.ar  111  PHE111     -0.0003
    103  CE2        9.1340    6.4800  -13.5300 C.ar  111  PHE111     -0.0003
    104  CZ        10.1550    7.2440  -14.0790 C.ar  111  PHE111     -0.0000
    105  N         11.5240   -0.0880  -11.7290 N.3   113  ILE113     -0.1245
    106  CA        12.3210   -1.3040  -11.7000 C.3   113  ILE113      0.1561
    107  C         12.0770   -2.0570  -10.4000 C.2   113  ILE113      0.2260
    108  O         12.0390   -1.4660   -9.3210 O.2   113  ILE113     -0.2867
    109  CB        13.8190   -0.9800  -11.8300 C.3   113  ILE113      0.0252
    110  CG1       14.0800   -0.2920  -13.1710 C.3   113  ILE113      0.0019
    111  CG2       14.6390   -2.2540  -11.7240 C.3   113  ILE113      0.0019
    112  CD1       15.5110    0.1630  -13.3570 C.3   113  ILE113      0.0001
    113  N         13.4540    3.1600   -5.6380 N.3   118  TRP118     -0.1241
    114  CA        13.0520    4.5350   -5.9340 C.3   118  TRP118      0.1605
    115  C         11.6340    4.5450   -6.4900 C.2   118  TRP118      0.2264
    116  O         11.2250    3.6170   -7.1740 O.2   118  TRP118     -0.2867
    117  CB        14.0190    5.2370   -6.9000 C.3   118  TRP118      0.0550
    118  CG        14.3640    4.5200   -8.1620 C.ar  118  TRP118      0.0003
    119  CD1       15.4560    3.7400   -8.3810 C.ar  118  TRP118      0.0946
    120  CD2       13.6520    4.5720   -9.4050 C.ar  118  TRP118      0.0152
    121  NE1       15.4760    3.3060   -9.6810 N.ar  118  TRP118     -0.2442
    122  CE2       14.3770    3.8020  -10.3310 C.ar  118  TRP118      0.0810
    123  CE3       12.4730    5.1960   -9.8230 C.ar  118  TRP118      0.0012
    124  CZ2       13.9660    3.6370  -11.6510 C.ar  118  TRP118      0.0191
    125  CZ3       12.0650    5.0320  -11.1330 C.ar  118  TRP118      0.0001
    126  CH2       12.8100    4.2590  -12.0320 C.ar  118  TRP118      0.0015
    127  N         11.2340   10.2710  -10.2620 N.3   121  ILE121     -0.1245
    128  CA        12.3640   10.7290  -11.0620 C.3   121  ILE121      0.1561
    129  C         12.4680   12.2520  -11.0430 C.2   121  ILE121      0.2260
    130  O         11.4630   12.9530  -11.0730 O.2   121  ILE121     -0.2867
    131  CB        12.2380   10.2280  -12.5270 C.3   121  ILE121      0.0252
    132  CG1       13.4770   10.6180  -13.3340 C.3   121  ILE121      0.0019
    133  CG2       10.9800   10.8090  -13.1780 C.3   121  ILE121      0.0019
    134  CD1       13.5790    9.8850  -14.6690 C.3   121  ILE121      0.0001
    135  N         13.1180   20.5860  -23.0900 N.3   129  ILE129     -0.1245
    136  CA        12.7280   19.1970  -23.3130 C.3   129  ILE129      0.1561
    137  C         11.7020   18.6800  -22.3060 C.2   129  ILE129      0.2260
    138  O         11.4830   17.4770  -22.1820 O.2   129  ILE129     -0.2867
    139  CB        13.9530   18.2470  -23.3340 C.3   129  ILE129      0.0252
    140  CG1       14.6750   18.2640  -21.9850 C.3   129  ILE129      0.0019
    141  CG2       14.8950   18.6540  -24.4590 C.3   129  ILE129      0.0019
    142  CD1       15.8860   17.3300  -21.9410 C.3   129  ILE129      0.0001
    143  N          7.9470   17.9850  -20.8530 N.3   131  ARG131     -0.1245
    144  CA         6.6460   17.6670  -21.4370 C.3   131  ARG131      0.1563
    145  C          5.6320   18.2280  -20.4480 C.2   131  ARG131      0.2260
    146  O          5.8990   18.2690  -19.2420 O.2   131  ARG131     -0.2867
    147  CB         6.4240   16.1490  -21.5670 C.3   131  ARG131      0.0307
    148  CG         7.3080   15.4240  -22.5930 C.3   131  ARG131      0.0489
    149  CD         7.2910   16.1060  -23.9550 C.3   131  ARG131      0.2205
    150  NE         8.1040   15.3870  -24.9370 N.pl3 131  ARG131     -0.0865
    151  CZ         7.7000   14.3110  -25.6080 C.cat 131  ARG131      0.5346
    152  NH1        6.4820   13.8190  -25.4140 N.pl3 131  ARG131      0.1354
    153  NH2        8.5190   13.7210  -26.4690 N.pl3 131  ARG131      0.1354
    154  N         19.0380   19.4130  -23.4970 N.3   190  TYR190     -0.1241
    155  CA        19.6160   18.2790  -22.7970 C.3   190  TYR190      0.1605
    156  C         20.9110   18.9720  -22.3520 C.2   190  TYR190      0.2264
    157  O         21.1400   20.1430  -22.7020 O.2   190  TYR190     -0.2867
    158  CB        20.0020   17.1640  -23.7690 C.3   190  TYR190      0.0534
    159  CG        18.8640   16.2910  -24.2240 C.ar  190  TYR190     -0.0201
    160  CD1       18.4180   15.2460  -23.4320 C.ar  190  TYR190     -0.0009
    161  CD2       18.2490   16.4960  -25.4580 C.ar  190  TYR190     -0.0009
    162  CE1       17.4000   14.4190  -23.8500 C.ar  190  TYR190      0.0417
    163  CE2       17.2200   15.6720  -25.8860 C.ar  190  TYR190      0.0417
    164  CZ        16.8070   14.6350  -25.0760 C.ar  190  TYR190      0.1957
    165  OH        15.8200   13.7820  -25.4890 O.3   190  TYR190     -0.2866
    166  N         25.0300   13.9460  -25.1500 N.3   218  ILE218     -0.1245
    167  CA        24.5200   14.4310  -23.8840 C.3   218  ILE218      0.1561
    168  C         25.1210   13.7110  -22.6820 C.2   218  ILE218      0.2260
    169  O         25.6460   12.6040  -22.8020 O.2   218  ILE218     -0.2867
    170  CB        22.9800   14.2580  -23.8160 C.3   218  ILE218      0.0252
    171  CG1       22.6290   12.7720  -23.7390 C.3   218  ILE218      0.0019
    172  CG2       22.3170   14.8300  -25.0690 C.3   218  ILE218      0.0019
    173  CD1       21.1690   12.5220  -23.4640 C.3   218  ILE218      0.0001
    174  N         24.1250   12.0400  -19.2780 N.3   220  ASP220     -0.1239
    175  CA        22.9170   11.5560  -18.6140 C.3   220  ASP220      0.1674
    176  C         23.1580   10.5860  -17.4580 C.2   220  ASP220      0.2266
    177  O         23.4730    9.4130  -17.6640 O.2   220  ASP220     -0.2867
    178  CB        22.0030   10.9130  -19.6670 C.3   220  ASP220      0.1410
    179  CG        20.7160   10.3880  -19.0850 C.2   220  ASP220      0.3668
    180  OD1       20.3820   10.7570  -17.9410 O.co2 220  ASP220     -0.2456
    181  OD2       20.0270    9.6130  -19.7860 O.co2 220  ASP220     -0.2456
    182  N         21.0730    9.3000  -15.7580 N.3   222  GLY222     -0.1210
    183  CA        20.0140    8.3070  -15.7360 C.3   222  GLY222      0.1956
    184  C         20.1960    7.1740  -16.7290 C.2   222  GLY222      0.2613
    185  O         19.3020    6.3510  -16.9260 O.2   222  GLY222     -0.2717
    186  N         21.3440    7.1390  -17.3870 N.am  223  THR223     -0.1938
    187  CA        21.6160    6.0730  -18.3320 C.3   223  THR223      0.2028
    188  C         22.8220    5.3140  -17.8100 C.2   223  THR223      0.2643
    189  O         23.8030    5.9150  -17.3590 O.2   223  THR223     -0.2714
    190  CB        21.9010    6.6140  -19.7480 C.3   223  THR223      0.1808
    191  OG1       20.7060    7.1830  -20.2870 O.3   223  THR223     -0.2208
    192  CG2       22.3680    5.4920  -20.6650 C.3   223  THR223      0.0379
    193  N         22.7410    3.9890  -17.8570 N.am  224  THR224     -0.1936
    194  CA        23.8250    3.1530  -17.3640 C.3   224  THR224      0.2028
    195  C         25.0290    3.0910  -18.2930 C.2   224  THR224      0.2642
    196  O         26.1650    3.3150  -17.8730 O.2   224  THR224     -0.2714
    197  CB        23.3390    1.7130  -17.1180 C.3   224  THR224      0.1808
    198  OG1       22.2670    1.7300  -16.1710 O.3   224  THR224     -0.2208
    199  CG2       24.4720    0.8510  -16.5660 C.3   224  THR224      0.0379
    200  N         24.7780    2.8060  -19.5620 N.am  225  ASN225     -0.1971
    201  CA        25.8540    2.6560  -20.5300 C.3   225  ASN225      0.1688
    202  C         26.3790    3.9110  -21.2110 C.2   225  ASN225      0.2292
    203  O         25.8450    5.0130  -21.0560 O.2   225  ASN225     -0.2864
    204  CB        25.4280    1.6890  -21.6420 C.3   225  ASN225      0.1181
    205  CG        25.0590    0.3150  -21.1230 C.2   225  ASN225      0.2629
    206  OD1       25.3330   -0.0260  -19.9740 O.2   225  ASN225     -0.2716
    207  ND2       24.4430   -0.4890  -21.9810 N.am  225  ASN225     -0.0877
    208  N         26.3610    5.1110  -24.4990 N.3   227  ARG227     -0.1245
    209  CA        25.6650    4.7870  -25.7340 C.3   227  ARG227      0.1563
    210  C         26.2830    5.6040  -26.8650 C.2   227  ARG227      0.2260
    211  O         26.4440    6.8190  -26.7520 O.2   227  ARG227     -0.2867
    212  CB        24.1640    5.0610  -25.5690 C.3   227  ARG227      0.0307
    213  CG        23.5660    4.3020  -24.3700 C.3   227  ARG227      0.0489
    214  CD        22.0460    4.4160  -24.2660 C.3   227  ARG227      0.2205
    215  NE        21.3780    3.8040  -25.4100 N.pl3 227  ARG227     -0.0865
    216  CZ        20.7820    4.4860  -26.3800 C.cat 227  ARG227      0.5346
    217  NH1       20.2090    3.8420  -27.3890 N.pl3 227  ARG227      0.1354
    218  NH2       20.7370    5.8120  -26.3340 N.pl3 227  ARG227      0.1354
    219  N         25.3470    9.1170  -25.6460 N.3   324  VAL324     -0.1245
    220  CA        24.8400    9.3590  -24.3100 C.3   324  VAL324      0.1561
    221  C         25.9590    8.9860  -23.3480 C.2   324  VAL324      0.2260
    222  O         26.3850    7.8300  -23.2870 O.2   324  VAL324     -0.2867
    223  CB        23.5950    8.5190  -23.9780 C.3   324  VAL324      0.0252
    224  CG1       23.1470    8.8240  -22.5600 C.3   324  VAL324      0.0019
    225  CG2       22.4710    8.8270  -24.9620 C.3   324  VAL324      0.0019
@<TRIPOS>BOND
     1   217   216    1
     2   210   211    2
     3   210   209    1
     4   153   151    1
     5   216   218    1
     6   216   215    2
     7   163   161   ar
     8   163   164   ar
     9   209   212    1
    10   209   208    1
    11   219   220    1
    12   151   152    1
    13   151   150    2
    14   212   213    1
    15   165   164    1
    16   161   159   ar
    17   215   214    1
    18   166   167    1
    19    64    63    1
    20    64    65    1
    21   164   162   ar
    22   172   170    1
    23    84    82    1
    24    81    80    2
    25   225   223    1
    26   150   149    1
    27    63    60    1
    28    83    82    1
    29   141   139    1
    30    79    82    1
    31    79    80    1
    32    79    78    1
    33   213   214    1
    34   220   223    1
    35   220   221    1
    36   159   158    1
    37   159   160   ar
    38    80    85   am
    39    69    68    2
    40   223   224    1
    41   149   148    1
    42   167   170    1
    43   167   168    1
    44    65    59    1
    45   162   160   ar
    46   170   171    1
    47   158   155    1
    48   171   173    1
    49    78    68   am
    50   154   155    1
    51    68    67    1
    52    62    61    2
    53   221   222    2
    54   139   136    1
    55   139   140    1
    56   136   135    1
    57   136   137    1
    58    60    61    1
    59    60    59    1
    60    61    66   am
    61    90    91    1
    62    90    89    1
    63    93    91   am
    64    85    86    1
    65   169   168    2
    66   155   156    1
    67    59    54   am
    68   157   156    2
    69    66    67    1
    70   148   147    1
    71    91    92    2
    72    67    70    1
    73    86    89    1
    74    86    87    1
    75   137   138    2
    76   140   142    1
    77   207   205   am
    78   204   205    1
    79   204   201    1
    80   147   144    1
    81    54    53    1
    82    54    55    2
    83   144   143    1
    84   144   145    1
    85   202   203    2
    86   202   201    1
    87    87    88    2
    88   205   206    2
    89    53    52    1
    90    53    56    1
    91    70    71    1
    92   192   190    1
    93    37    36    2
    94   201   200    1
    95   145   146    2
    96   191   190    1
    97    57    56    1
    98    71    72   ar
    99    71    73   ar
   100    56    58    1
   101   181   179   ar
   102   190   187    1
   103   178   179    1
   104   178   175    1
   105    72    74   ar
   106   200   195   am
   107    36    35    1
   108    36    38   am
   109    73    75   ar
   110   174   175    1
   111    35    34    1
   112   179   180   ar
   113    39    38    1
   114    39    42    1
   115    39    40    1
   116   175   176    1
   117    74    76   ar
   118    50    49    2
   119    42    43    1
   120   187   188    1
   121   187   186    1
   122   195   196    2
   123   195   194    1
   124    75    76   ar
   125    76    77    1
   126    40    41    2
   127   193   188   am
   128   193   194    1
   129   188   189    2
   130   177   176    2
   131    49    51   am
   132    49    48    1
   133   186   184   am
   134   194   197    1
   135   197   199    1
   136   197   198    1
   137   185   184    2
   138    33    31   ar
   139    94    95    1
   140   184   183    1
   141    32    31   ar
   142    44    45    1
   143    48    45    1
   144    95    98    1
   145    95    96    1
   146    31    30    1
   147    98    99    1
   148   100    99   ar
   149   100   102   ar
   150   182   183    1
   151    45    46    1
   152    99   101   ar
   153   102   104   ar
   154    29    28    2
   155    28    27    1
   156    96    97    2
   157    30    27    1
   158   134   132    1
   159    46    47    2
   160   101   103   ar
   161    27    26    1
   162   104   103   ar
   163     4     3    2
   164   112   110    1
   165   132   131    1
   166     2     3    1
   167     2     1    1
   168   133   131    1
   169   110   109    1
   170     3     5   am
   171    25    23    1
   172   131   128    1
   173   126   124   ar
   174   126   125   ar
   175     5     6    1
   176   109   111    1
   177   109   106    1
   178   105   106    1
   179   106   107    1
   180   124   122   ar
   181     6     7    1
   182     6     9    1
   183    14     7   am
   184    14    15    1
   185    24    23    1
   186    23    22    1
   187     7     8    2
   188    15    16    1
   189   125   123   ar
   190   130   129    2
   191   128   129    1
   192   128   127    1
   193    10     9    1
   194    10    11    1
   195    13    11   am
   196   107   108    2
   197    22    19    1
   198   122   121   ar
   199   122   120   ar
   200    21    20    2
   201    11    12    2
   202    20    19    1
   203   123   120   ar
   204    16    17    2
   205   121   119   ar
   206   120   118   ar
   207    19    18    1
   208   119   118   ar
   209   118   117    1
   210   116   115    2
   211   117   114    1
   212   115   114    1
   213   114   113    1
