@<TRIPOS>MOLECULE
tmp/3dv3A01.pdb
 212 199 0 0 0
SMALL
GASTEIGER

@<TRIPOS>ATOM
      1  N         45.7610   -4.3550    2.2290 N.3    17  GLY17      -0.1210
      2  CA        45.5670   -4.1630    0.7950 C.3    17  GLY17       0.1956
      3  C         44.2820   -3.3820    0.5900 C.2    17  GLY17       0.2612
      4  O         43.9590   -2.4660    1.3740 O.2    17  GLY17      -0.2717
      5  N         43.5360   -3.7580   -0.4450 N.am   18  ASN18      -0.1960
      6  CA        42.2830   -3.0980   -0.8000 C.3    18  ASN18       0.1819
      7  C         41.0480   -3.7650   -0.1830 C.2    18  ASN18       0.2622
      8  O         40.4600   -4.6870   -0.7530 O.2    18  ASN18      -0.2715
      9  CB        42.1670   -2.9720   -2.3290 C.3    18  ASN18       0.1195
     10  CG        43.0170   -1.8410   -2.8610 C.2    18  ASN18       0.2630
     11  OD1       44.1370   -1.6300   -2.4170 O.2    18  ASN18      -0.2716
     12  ND2       42.4710   -1.0760   -3.7640 N.am   18  ASN18      -0.0877
     13  N         40.6830   -3.3100    1.0150 N.am   19  GLY19      -0.1940
     14  CA        39.4740   -3.7860    1.6780 C.3    19  GLY19       0.2014
     15  C         39.7680   -4.7060    2.8510 C.2    19  GLY19       0.2639
     16  O         38.8300   -5.2250    3.4930 O.2    19  GLY19      -0.2714
     17  N         41.0590   -4.9130    3.1280 N.am   20  GLY20      -0.1954
     18  CA        41.4860   -5.7710    4.2320 C.3    20  GLY20       0.1869
     19  C         42.7510   -5.3290    4.9610 C.2    20  GLY20       0.2309
     20  O         43.6810   -4.8180    4.3410 O.2    20  GLY20      -0.2863
     21  N         42.6470  -11.6230    9.3950 N.3    37  LYS37      -0.1245
     22  CA        42.2660  -10.6750    8.3630 C.3    37  LYS37       0.1561
     23  C         40.9080  -10.0770    8.7130 C.2    37  LYS37       0.2260
     24  O         39.9680  -10.8130    9.0200 O.2    37  LYS37      -0.2867
     25  CB        42.2800  -11.3200    6.9740 C.3    37  LYS37       0.0271
     26  CG        41.3630  -10.5870    5.9580 C.3    37  LYS37       0.0035
     27  CD        42.0100  -10.2210    4.6240 C.3    37  LYS37       0.0206
     28  CE        42.6530  -11.3890    3.9930 C.3    37  LYS37       0.1093
     29  NZ        43.1600  -11.0570    2.6270 N.3    37  LYS37      -0.1314
     30  N         37.9660   -7.6790    7.2670 N.3    39  ILE39      -0.1245
     31  CA        37.3290   -7.0380    6.1180 C.3    39  ILE39       0.1561
     32  C         36.1710   -6.1620    6.5680 C.2    39  ILE39       0.2260
     33  O         35.1790   -6.6590    7.1290 O.2    39  ILE39      -0.2867
     34  CB        36.8330   -8.0670    5.0840 C.3    39  ILE39       0.0252
     35  CG1       37.9990   -8.9440    4.5850 C.3    39  ILE39       0.0019
     36  CG2       36.1390   -7.3530    3.8980 C.3    39  ILE39       0.0019
     37  CD1       37.5580  -10.1820    3.8290 C.3    39  ILE39       0.0001
     38  N         31.9740  -18.9150    4.4650 N.3    55  LEU55      -0.1245
     39  CA        33.4030  -19.0620    4.8240 C.3    55  LEU55       0.1561
     40  C         33.6360  -20.3110    5.6410 C.2    55  LEU55       0.2260
     41  O         34.7610  -20.7390    5.7620 O.2    55  LEU55      -0.2867
     42  CB        33.9230  -17.8470    5.5990 C.3    55  LEU55       0.0270
     43  CG        33.9080  -16.5260    4.8350 C.3    55  LEU55       0.0019
     44  CD1       33.9600  -15.3180    5.7540 C.3    55  LEU55       0.0001
     45  CD2       35.0580  -16.5290    3.7250 C.3    55  LEU55       0.0001
     46  N         35.8320  -23.1630    4.2840 N.3    58  LEU58      -0.1245
     47  CA        37.2870  -23.1470    4.5490 C.3    58  LEU58       0.1561
     48  C         37.7700  -24.1740    5.5700 C.2    58  LEU58       0.2260
     49  O         38.9330  -24.5940    5.5130 O.2    58  LEU58      -0.2867
     50  CB        37.8110  -21.7400    4.8820 C.3    58  LEU58       0.0270
     51  CG        37.7590  -20.7070    3.7420 C.3    58  LEU58       0.0019
     52  CD1       38.1010  -19.2830    4.2060 C.3    58  LEU58       0.0001
     53  CD2       38.6760  -21.1070    2.6310 C.3    58  LEU58       0.0001
     54  N         47.3600  -24.9230    0.3790 N.3    66  ILE66      -0.1231
     55  CA        46.2960  -23.9710    0.7600 C.3    66  ILE66       0.1692
     56  C         46.5470  -23.5340    2.2050 C.2    66  ILE66       0.2592
     57  O         46.6640  -24.3750    3.1000 O.2    66  ILE66      -0.2718
     58  CB        44.8570  -24.6390    0.6580 C.3    66  ILE66       0.0266
     59  CG1       44.5340  -25.0740   -0.7780 C.3    66  ILE66       0.0019
     60  CG2       43.7150  -23.7350    1.1990 C.3    66  ILE66       0.0020
     61  CD1       44.4870  -23.9460   -1.8580 C.3    66  ILE66       0.0001
     62  N         46.5960  -22.2270    2.4380 N.am   67  VAL67      -0.1966
     63  CA        46.7110  -21.6550    3.7920 C.3    67  VAL67       0.1727
     64  C         45.6240  -22.1870    4.7550 C.2    67  VAL67       0.2617
     65  O         44.4420  -22.1750    4.4190 O.2    67  VAL67      -0.2715
     66  CB        46.7490  -20.1050    3.6900 C.3    67  VAL67       0.0290
     67  CG1       46.7530  -19.4230    5.0770 C.3    67  VAL67       0.0023
     68  CG2       47.9410  -19.6710    2.7970 C.3    67  VAL67       0.0023
     69  N         46.0720  -22.8160    5.8620 N.am   68  GLY68      -0.1940
     70  CA        45.1920  -23.3070    6.9160 C.3    68  GLY68       0.2014
     71  C         44.1870  -22.2560    7.4100 C.2    68  GLY68       0.2638
     72  O         44.4800  -21.0580    7.4450 O.2    68  GLY68      -0.2714
     73  N         42.9910  -22.7130    7.7830 N.am   69  PHE69      -0.1973
     74  CA        41.9390  -21.8280    8.2100 C.3    69  PHE69       0.1639
     75  C         41.5390  -22.2600    9.5800 C.2    69  PHE69       0.2290
     76  O         41.4690  -23.4660    9.8590 O.2    69  PHE69      -0.2864
     77  CB        40.7740  -21.9010    7.2330 C.3    69  PHE69       0.0560
     78  CG        39.4790  -21.2590    7.7100 C.ar   69  PHE69      -0.0200
     79  CD1       38.4420  -22.0510    8.2280 C.ar   69  PHE69      -0.0042
     80  CD2       39.2690  -19.8950    7.5710 C.ar   69  PHE69      -0.0042
     81  CE1       37.2130  -21.5010    8.5530 C.ar   69  PHE69      -0.0003
     82  CE2       38.0140  -19.3350    7.9330 C.ar   69  PHE69      -0.0003
     83  CZ        37.0000  -20.1450    8.4050 C.ar   69  PHE69      -0.0000
     84  N         38.6670  -13.2140    9.2620 N.3    81  ILE81      -0.1245
     85  CA        39.1200  -14.5100    8.8250 C.3    81  ILE81       0.1561
     86  C         40.4720  -14.8090    9.4650 C.2    81  ILE81       0.2260
     87  O         41.4700  -14.0630    9.3050 O.2    81  ILE81      -0.2867
     88  CB        39.1770  -14.6640    7.2440 C.3    81  ILE81       0.0252
     89  CG1       37.8460  -14.2620    6.5740 C.3    81  ILE81       0.0019
     90  CG2       39.6040  -16.0580    6.8890 C.3    81  ILE81       0.0019
     91  CD1       37.9400  -14.0130    5.0200 C.3    81  ILE81       0.0001
     92  N         43.5690  -17.2560   10.0300 N.3    83  MET83      -0.1245
     93  CA        44.2540  -18.2640    9.2550 C.3    83  MET83       0.1570
     94  C         45.6310  -18.5410    9.8880 C.2    83  MET83       0.2261
     95  O         46.0950  -17.8350   10.8160 O.2    83  MET83      -0.2867
     96  CB        44.3030  -17.8460    7.7730 C.3    83  MET83       0.0387
     97  CG        45.2490  -16.7120    7.3890 C.3    83  MET83       0.0595
     98  SD        44.7630  -15.9770    5.7580 S.3    83  MET83      -0.1393
     99  CE        44.0150  -14.4450    6.3720 C.3    83  MET83       0.0692
    100  N         40.3870  -16.9260   -8.5610 N.3   129  ARG129     -0.1231
    101  CA        39.9280  -15.5750   -8.9160 C.3   129  ARG129      0.1694
    102  C         40.8960  -14.4730   -8.5650 C.2   129  ARG129      0.2592
    103  O         40.6450  -13.3490   -8.9270 O.2   129  ARG129     -0.2718
    104  CB        38.5770  -15.2440   -8.2980 C.3   129  ARG129      0.0321
    105  CG        37.4450  -15.7620   -9.0540 C.3   129  ARG129      0.0489
    106  CD        36.1890  -15.7060   -8.2420 C.3   129  ARG129      0.2205
    107  NE        35.1410  -15.3000   -9.1500 N.pl3 129  ARG129     -0.0865
    108  CZ        34.2420  -16.1440   -9.6650 C.cat 129  ARG129      0.5346
    109  NH1       34.1960  -17.4370   -9.3220 N.pl3 129  ARG129      0.1354
    110  NH2       33.3430  -15.6730  -10.4670 N.pl3 129  ARG129      0.1354
    111  N         41.9540  -14.7680   -7.7990 N.am  130  ASP130     -0.1974
    112  CA        42.8530  -13.6910   -7.3820 C.3   130  ASP130      0.1709
    113  C         44.3180  -14.1400   -7.1840 C.2   130  ASP130      0.2293
    114  O         44.9750  -13.8360   -6.1950 O.2   130  ASP130     -0.2864
    115  CB        42.2650  -12.9500   -6.1590 C.3   130  ASP130      0.1436
    116  CG        42.8760  -11.5430   -5.9440 C.2   130  ASP130      0.3671
    117  OD1       42.7610  -11.0020   -4.8240 O.co2 130  ASP130     -0.2456
    118  OD2       43.4760  -11.0000   -6.8920 O.co2 130  ASP130     -0.2456
    119  N         48.0900  -13.9370   -7.6820 N.3   132  LYS132     -0.1245
    120  CA        49.0900  -12.8890   -7.8410 C.3   132  LYS132      0.1561
    121  C         50.0580  -13.0970   -6.6900 C.2   132  LYS132      0.2260
    122  O         49.6990  -13.7840   -5.7570 O.2   132  LYS132     -0.2867
    123  CB        48.4660  -11.4770   -7.8500 C.3   132  LYS132      0.0271
    124  CG        47.6940  -11.1290   -6.5840 C.3   132  LYS132      0.0035
    125  CD        47.0320   -9.7410   -6.6730 C.3   132  LYS132      0.0206
    126  CE        46.0430   -9.6560   -5.5200 C.3   132  LYS132      0.1093
    127  NZ        45.8080   -8.2980   -4.9610 N.3   132  LYS132     -0.1314
    128  N         49.0980  -13.1960   -2.9280 N.3   135  ASN135     -0.1240
    129  CA        48.2000  -14.2630   -2.5020 C.3   135  ASN135      0.1653
    130  C         48.8740  -15.6150   -2.5080 C.2   135  ASN135      0.2266
    131  O         48.2190  -16.6140   -2.3840 O.2   135  ASN135     -0.2867
    132  CB        46.8900  -14.2380   -3.3030 C.3   135  ASN135      0.1155
    133  CG        46.0730  -12.9760   -2.9800 C.2   135  ASN135      0.2627
    134  OD1       46.2940  -12.3790   -1.9400 O.2   135  ASN135     -0.2716
    135  ND2       45.2050  -12.5430   -3.8650 N.am  135  ASN135     -0.0877
    136  N         46.1280  -18.2760   -0.7230 N.3   147  CYS147     -0.1221
    137  CA        45.0610  -17.7450    0.1240 C.3   147  CYS147      0.1808
    138  C         44.2110  -16.8420   -0.7490 C.2   147  CYS147      0.2601
    139  O         44.4460  -16.7120   -1.9870 O.2   147  CYS147     -0.2717
    140  CB        45.6370  -16.9690    1.3240 C.3   147  CYS147      0.0970
    141  SG        46.6300  -15.5840    0.7140 S.3   147  CYS147     -0.0800
    142  N         43.2140  -16.2340   -0.1400 N.am  148  ASP148     -0.1959
    143  CA        42.4270  -15.1750   -0.7970 C.3   148  ASP148      0.1840
    144  C         41.6880  -15.6160   -2.0810 C.2   148  ASP148      0.2622
    145  O         41.4870  -14.8110   -2.9940 O.2   148  ASP148     -0.2715
    146  CB        43.2730  -13.8870   -1.0080 C.3   148  ASP148      0.1450
    147  CG        43.7680  -13.3170    0.2910 C.2   148  ASP148      0.3671
    148  OD1       43.4030  -13.8990    1.3430 O.co2 148  ASP148     -0.2456
    149  OD2       44.5250  -12.2910    0.2710 O.co2 148  ASP148     -0.2456
    150  N         41.2480  -16.8880   -2.1060 N.am  149  PHE149     -0.1960
    151  CA        40.4320  -17.3920   -3.1970 C.3   149  PHE149      0.1771
    152  C         38.9230  -17.1930   -2.9490 C.2   149  PHE149      0.2620
    153  O         38.4730  -17.0630   -1.7990 O.2   149  PHE149     -0.2715
    154  CB        40.7670  -18.8760   -3.5170 C.3   149  PHE149      0.0574
    155  CG        40.8780  -19.7300   -2.3050 C.ar  149  PHE149     -0.0200
    156  CD1       39.7700  -20.3940   -1.8200 C.ar  149  PHE149     -0.0042
    157  CD2       42.1180  -19.8770   -1.6560 C.ar  149  PHE149     -0.0042
    158  CE1       39.8870  -21.1860   -0.6800 C.ar  149  PHE149     -0.0003
    159  CE2       42.2480  -20.6460   -0.5190 C.ar  149  PHE149     -0.0003
    160  CZ        41.1220  -21.3170   -0.0320 C.ar  149  PHE149     -0.0000
    161  N         38.1630  -17.2670   -4.0430 N.am  150  GLY150     -0.1940
    162  CA        36.7180  -17.0620   -4.0530 C.3   150  GLY150      0.2014
    163  C         35.8850  -18.1900   -3.4440 C.2   150  GLY150      0.2639
    164  O         35.1340  -18.8270   -4.1630 O.2   150  GLY150     -0.2714
    165  N         35.9880  -18.4250   -2.1250 N.am  151  VAL151     -0.1963
    166  CA        35.2140  -19.5220   -1.5020 C.3   151  VAL151      0.1727
    167  C         33.7700  -19.1200   -1.3140 C.2   151  VAL151      0.2616
    168  O         32.9000  -20.0020   -1.1850 O.2   151  VAL151     -0.2715
    169  CB        35.5650  -19.9280   -0.0050 C.3   151  VAL151      0.0290
    170  CG1       35.8570  -21.4340    0.1410 C.3   151  VAL151      0.0023
    171  CG2       36.4640  -19.0000    0.7050 C.3   151  VAL151      0.0023
    172  N         33.5310  -17.8110   -1.1860 N.am  152  SER152     -0.1950
    173  CA        32.2040  -17.3530   -0.8060 C.3   152  SER152      0.1924
    174  C         31.6250  -16.5220   -1.9470 C.2   152  SER152      0.2314
    175  O         32.2090  -15.5060   -2.3100 O.2   152  SER152     -0.2863
    176  CB        32.2110  -16.5640    0.5240 C.3   152  SER152      0.2116
    177  OG        30.9600  -15.8720    0.7200 O.3   152  SER152     -0.2180
    178  N         30.6340  -13.0930   -0.6840 N.3   155  LEU155     -0.1231
    179  CA        31.8020  -12.2420   -0.4330 C.3   155  LEU155      0.1693
    180  C         32.3860  -11.7640   -1.7740 C.2   155  LEU155      0.2591
    181  O         32.7830  -10.5940   -1.9020 O.2   155  LEU155     -0.2718
    182  CB        32.8650  -12.9840    0.3820 C.3   155  LEU155      0.0284
    183  CG        34.0390  -12.1820    0.9490 C.3   155  LEU155      0.0019
    184  CD1       33.4570  -10.9180    1.6590 C.3   155  LEU155      0.0001
    185  CD2       34.9300  -13.0780    1.8820 C.3   155  LEU155      0.0001
    186  N         32.4100  -12.6500   -2.7780 N.am  156  ILE156     -0.1980
    187  CA        32.8110  -12.2400   -4.1390 C.3   156  ILE156      0.1595
    188  C         31.9490  -11.0210   -4.5590 C.2   156  ILE156      0.2287
    189  O         32.4780   -9.9720   -4.9660 O.2   156  ILE156     -0.2864
    190  CB        32.6490  -13.3840   -5.1840 C.3   156  ILE156      0.0276
    191  CG1       33.5590  -14.5920   -4.8620 C.3   156  ILE156      0.0022
    192  CG2       32.8500  -12.8450   -6.6720 C.3   156  ILE156      0.0022
    193  CD1       33.3250  -15.8250   -5.6870 C.3   156  ILE156      0.0001
    194  N         32.5580   -7.7940   -2.4500 N.3   159  MET159     -0.1245
    195  CA        33.8640   -7.1620   -2.6510 C.3   159  MET159      0.1570
    196  C         33.9240   -6.4290   -3.9860 C.2   159  MET159      0.2261
    197  O         34.7220   -5.5070   -4.1290 O.2   159  MET159     -0.2867
    198  CB        35.0400   -8.1560   -2.5910 C.3   159  MET159      0.0387
    199  CG        35.1550   -9.0460   -1.3550 C.3   159  MET159      0.0595
    200  SD        35.9680   -8.3880    0.0670 S.3   159  MET159     -0.1393
    201  CE        37.6590   -8.1380   -0.4710 C.3   159  MET159      0.0692
    202  N         38.5890  -11.8360  -18.8760 N.3   171  ARG171     -0.1245
    203  CA        38.0030  -11.2500  -17.6810 C.3   171  ARG171      0.1563
    204  C         37.9760   -9.7040  -17.6940 C.2   171  ARG171      0.2260
    205  O         36.9960   -9.0850  -17.2020 O.2   171  ARG171     -0.2867
    206  CB        38.6820  -11.7810  -16.4320 C.3   171  ARG171      0.0307
    207  CG        38.0740  -11.1330  -15.1430 C.3   171  ARG171      0.0489
    208  CD        38.7030  -11.6090  -13.8570 C.3   171  ARG171      0.2205
    209  NE        37.9210  -11.1210  -12.6970 N.pl3 171  ARG171     -0.0865
    210  CZ        38.1960  -11.3970  -11.4150 C.cat 171  ARG171      0.5346
    211  NH1       39.2520  -12.1460  -11.0860 N.pl3 171  ARG171      0.1354
    212  NH2       37.4400  -10.8900  -10.4470 N.pl3 171  ARG171      0.1354
@<TRIPOS>BOND
     1   202   203    1
     2   204   203    1
     3   204   205    2
     4   203   206    1
     5   206   207    1
     6   207   208    1
     7   208   209    1
     8   209   210    2
     9   210   211    1
    10   210   212    1
    11   110   108    1
    12   108   109    1
    13   108   107    2
    14   107   106    1
    15   105   104    1
    16   105   106    1
    17   103   102    2
    18   101   102    1
    19   101   100    1
    20   101   104    1
    21   102   111   am
    22   123   120    1
    23   123   124    1
    24   120   119    1
    25   120   121    1
    26   111   112    1
    27   112   113    1
    28   112   115    1
    29   113   114    2
    30   118   116   ar
    31   121   122    2
    32   125   124    1
    33   125   126    1
    34   192   190    1
    35   115   116    1
    36   116   117   ar
    37   193   191    1
    38   126   127    1
    39   190   191    1
    40   190   187    1
    41   189   188    2
    42   188   187    1
    43   164   163    2
    44   187   186    1
    45   197   196    2
    46   162   161    1
    47   162   163    1
    48   161   152   am
    49   196   195    1
    50   135   133   am
    51    12    10   am
    52   154   151    1
    53   154   155    1
    54   163   165   am
    55   132   133    1
    56   132   129    1
    57   151   152    1
    58   151   150    1
    59   145   144    2
    60   133   134    2
    61   152   153    2
    62   128   129    1
    63    10    11    2
    64    10     9    1
    65   186   180   am
    66   195   198    1
    67   195   194    1
    68   198   199    1
    69   130   129    1
    70   130   131    2
    71     9     6    1
    72   175   174    2
    73   155   156   ar
    74   155   157   ar
    75   165   166    1
    76   150   144   am
    77   144   143    1
    78   139   138    2
    79   174   173    1
    80   181   180    2
    81    61    59    1
    82   156   158   ar
    83   180   179    1
    84   157   159   ar
    85   166   167    1
    86   166   169    1
    87   199   200    1
    88   167   172   am
    89   167   168    2
    90   172   173    1
    91   146   143    1
    92   146   147    1
    93   173   176    1
    94     6     5    1
    95     6     7    1
    96   143   142    1
    97    59    58    1
    98     8     7    2
    99   138   142   am
   100   138   137    1
   101   136   137    1
   102   178   179    1
   103   158   160   ar
   104   159   160   ar
   105   201   200    1
   106     5     3   am
   107   179   182    1
   108     7    13   am
   109   169   170    1
   110   169   171    1
   111   137   140    1
   112   149   147   ar
   113   147   148   ar
   114    54    55    1
   115   182   183    1
   116   176   177    1
   117     3     2    1
   118     3     4    2
   119    58    55    1
   120    58    60    1
   121   141   140    1
   122    55    56    1
   123     2     1    1
   124   183   184    1
   125   183   185    1
   126    13    14    1
   127    14    15    1
   128    56    62   am
   129    56    57    2
   130    62    63    1
   131    29    28    1
   132    53    51    1
   133    68    66    1
   134    15    17   am
   135    15    16    2
   136    17    18    1
   137    66    63    1
   138    66    67    1
   139    45    43    1
   140    51    52    1
   141    51    50    1
   142    63    64    1
   143    37    35    1
   144    36    34    1
   145    28    27    1
   146    18    19    1
   147    46    47    1
   148    20    19    2
   149    65    64    2
   150    38    39    1
   151    47    50    1
   152    47    48    1
   153    35    34    1
   154    27    26    1
   155    64    69   am
   156    39    42    1
   157    39    40    1
   158    43    42    1
   159    43    44    1
   160    91    89    1
   161    34    31    1
   162    49    48    2
   163    40    41    2
   164    98    99    1
   165    98    97    1
   166    69    70    1
   167    26    25    1
   168    31    32    1
   169    31    30    1
   170    32    33    2
   171    89    88    1
   172    90    88    1
   173    70    71    1
   174    25    22    1
   175    77    78    1
   176    77    74    1
   177    88    85    1
   178    97    96    1
   179    71    72    2
   180    71    73   am
   181    80    78   ar
   182    80    82   ar
   183    78    79   ar
   184    96    93    1
   185    73    74    1
   186    82    83   ar
   187    74    75    1
   188    79    81   ar
   189    22    23    1
   190    22    21    1
   191    83    81   ar
   192    23    24    2
   193    85    84    1
   194    85    86    1
   195    93    94    1
   196    93    92    1
   197    87    86    2
   198    75    76    2
   199    94    95    2
