@<TRIPOS>MOLECULE
tmp/3dvpA00.pdb
 171 170 0 0 0
SMALL
GASTEIGER

@<TRIPOS>ATOM
      1  N          8.8640   13.5950    5.7880 N.3     5  LYS5       -0.1231
      2  CA        10.1780   14.0580    6.0110 C.3     5  LYS5        0.1693
      3  C         10.7300   14.7120    4.7410 C.2     5  LYS5        0.2592
      4  O         11.0310   15.9010    4.7500 O.2     5  LYS5       -0.2718
      5  CB        11.0630   12.8720    6.4510 C.3     5  LYS5        0.0285
      6  CG        10.9280   12.4350    7.8960 C.3     5  LYS5        0.0035
      7  CD        11.7860   13.3390    8.8100 C.3     5  LYS5        0.0206
      8  CE        11.0670   13.5380   10.2200 C.3     5  LYS5        0.1093
      9  NZ        12.0230   13.6850   11.4020 N.3     5  LYS5       -0.1314
     10  N         10.7710   13.9240    3.6410 N.am    6  ASN6       -0.1974
     11  CA        11.3000   14.2120    2.3380 C.3     6  ASN6        0.1688
     12  C         10.4370   13.6000    1.2450 C.2     6  ASN6        0.2292
     13  O          9.7590   12.6170    1.4660 O.2     6  ASN6       -0.2864
     14  CB        12.7090   13.6640    2.1920 C.3     6  ASN6        0.1181
     15  CG        13.5440   14.3760    1.0590 C.2     6  ASN6        0.2629
     16  OD1       13.0450   15.2440    0.3670 O.2     6  ASN6       -0.2716
     17  ND2       14.8070   14.0270    0.9420 N.am    6  ASN6       -0.0877
     18  N          9.8440   13.7350   -3.4120 N.3     8  ASP8       -0.1239
     19  CA         9.8670   14.2350   -4.7220 C.3     8  ASP8        0.1674
     20  C          8.6980   13.4800   -5.4350 C.2     8  ASP8        0.2266
     21  O          8.8570   12.4190   -6.0870 O.2     8  ASP8       -0.2867
     22  CB        11.2420   14.0340   -5.3360 C.3     8  ASP8        0.1410
     23  CG        11.2590   14.1870   -6.8510 C.2     8  ASP8        0.3668
     24  OD1       10.5850   15.1060   -7.4130 O.co2   8  ASP8       -0.2456
     25  OD2       11.9630   13.3780   -7.4910 O.co2   8  ASP8       -0.2456
     26  N         11.1530    0.9740   12.1620 N.3    56  ARG56      -0.1231
     27  CA        11.3290    1.9410   13.2340 C.3    56  ARG56       0.1694
     28  C         12.7470    2.5040   13.3300 C.2    56  ARG56       0.2592
     29  O         12.9990    3.4030   14.1190 O.2    56  ARG56      -0.2718
     30  CB        10.9660    1.3190   14.6120 C.3    56  ARG56       0.0321
     31  CG         9.4980    0.8540   14.6810 C.3    56  ARG56       0.0489
     32  CD         9.1250    0.0600   16.0060 C.3    56  ARG56       0.2205
     33  NE         7.6690    0.0160   16.0680 N.pl3  56  ARG56      -0.0865
     34  CZ         6.9150   -0.6650   15.1940 C.cat  56  ARG56       0.5346
     35  NH1        7.4890   -1.4440   14.2650 N.pl3  56  ARG56       0.1354
     36  NH2        5.5910   -0.5970   15.2550 N.pl3  56  ARG56       0.1354
     37  N         13.6710    1.9160   12.6060 N.am   57  ASN57      -0.1960
     38  CA        15.0240    2.4540   12.5770 C.3    57  ASN57       0.1819
     39  C         15.8630    1.9320   11.3920 C.2    57  ASN57       0.2621
     40  O         16.4370    0.8270   11.4550 O.2    57  ASN57      -0.2715
     41  CB        15.8130    2.1410   13.8250 C.3    57  ASN57       0.1195
     42  CG        17.2250    2.6740   13.6990 C.2    57  ASN57       0.2630
     43  OD1       18.1000    1.9960   13.2010 O.2    57  ASN57      -0.2716
     44  ND2       17.4210    3.9070   14.0340 N.am   57  ASN57      -0.0877
     45  N         15.9690    2.7570   10.3450 N.am   58  PHE58      -0.1960
     46  CA        16.8510    2.4280    9.2500 C.3    58  PHE58       0.1771
     47  C         17.2930    3.7020    8.5850 C.2    58  PHE58       0.2620
     48  O         16.6220    4.7750    8.7240 O.2    58  PHE58      -0.2715
     49  CB        16.1430    1.4690    8.2580 C.3    58  PHE58       0.0574
     50  CG        14.9400    2.0870    7.5550 C.ar   58  PHE58      -0.0200
     51  CD1       15.1110    2.7870    6.3980 C.ar   58  PHE58      -0.0042
     52  CD2       13.6270    1.9780    8.1000 C.ar   58  PHE58      -0.0042
     53  CE1       14.0300    3.3940    5.7520 C.ar   58  PHE58      -0.0003
     54  CE2       12.5300    2.5220    7.4560 C.ar   58  PHE58      -0.0003
     55  CZ        12.7160    3.2580    6.2530 C.ar   58  PHE58      -0.0000
     56  N         18.4290    3.6040    7.8820 N.am   59  GLY59      -0.1940
     57  CA        18.8080    4.6830    6.9940 C.3    59  GLY59       0.2014
     58  C         18.8480    4.1160    5.6010 C.2    59  GLY59       0.2640
     59  O         18.7850    2.8860    5.4310 O.2    59  GLY59      -0.2714
     60  N         18.9420    4.9790    4.5920 N.am   60  SER60      -0.1935
     61  CA        19.0860    4.4470    3.1980 C.3    60  SER60       0.2055
     62  C         19.7710    5.4340    2.2390 C.2    60  SER60       0.2643
     63  O         19.9120    6.6550    2.4560 O.2    60  SER60      -0.2714
     64  CB        17.7200    3.9880    2.6230 C.3    60  SER60       0.2130
     65  OG        17.0870    5.0690    2.0480 O.3    60  SER60      -0.2179
     66  N         20.2850    4.8580    1.1970 N.am   61  TYR61      -0.1959
     67  CA        20.7080    5.6260    0.0260 C.3    61  TYR61       0.1771
     68  C         20.2220    4.9660   -1.2200 C.2    61  TYR61       0.2619
     69  O         20.7340    3.8420   -1.5440 O.2    61  TYR61      -0.2715
     70  CB        22.1900    5.6870   -0.0540 C.3    61  TYR61       0.0574
     71  CG        22.5820    6.8140   -0.9790 C.ar   61  TYR61      -0.0198
     72  CD1       22.4580    8.1600   -0.5820 C.ar   61  TYR61      -0.0009
     73  CD2       23.0500    6.5200   -2.2800 C.ar   61  TYR61      -0.0009
     74  CE1       22.8090    9.1880   -1.4230 C.ar   61  TYR61       0.0417
     75  CE2       23.4040    7.5220   -3.1280 C.ar   61  TYR61       0.0417
     76  CZ        23.2680    8.8700   -2.7020 C.ar   61  TYR61       0.1957
     77  OH        23.6720    9.8960   -3.5320 O.3    61  TYR61      -0.2866
     78  N         19.2150    5.5910   -1.8630 N.am   62  VAL62      -0.1963
     79  CA        18.6230    4.9750   -3.0520 C.3    62  VAL62       0.1727
     80  C         18.5880    5.9450   -4.2350 C.2    62  VAL62       0.2617
     81  O         18.7390    7.1660   -4.0610 O.2    62  VAL62      -0.2715
     82  CB        17.1900    4.4440   -2.7750 C.3    62  VAL62       0.0290
     83  CG1       17.1670    3.5840   -1.4970 C.3    62  VAL62       0.0023
     84  CG2       16.2650    5.5990   -2.6800 C.3    62  VAL62       0.0023
     85  N         18.3250    5.3800   -5.4080 N.am   63  THR63      -0.1937
     86  CA        18.0900    6.0610   -6.6270 C.3    63  THR63       0.2028
     87  C         16.6110    5.8380   -7.1000 C.2    63  THR63       0.2642
     88  O         16.1110    4.6890   -7.1780 O.2    63  THR63      -0.2714
     89  CB        19.0750    5.5800   -7.6920 C.3    63  THR63       0.1808
     90  OG1       20.4590    5.8790   -7.2990 O.3    63  THR63      -0.2208
     91  CG2       18.7350    6.2160   -9.0740 C.3    63  THR63       0.0379
     92  N         15.9000    6.9200   -7.4100 N.am   64  HIS64      -0.1959
     93  CA        14.5380    6.7890   -7.7840 C.3    64  HIS64       0.1787
     94  C         14.2460    7.6160   -9.0790 C.2    64  HIS64       0.2620
     95  O         14.9090    8.6250   -9.4010 O.2    64  HIS64      -0.2715
     96  CB        13.6350    7.2120   -6.6030 C.3    64  HIS64       0.0785
     97  CG        13.7080    8.6870   -6.2930 C.ar   64  HIS64       0.0821
     98  ND1       12.9070    9.6170   -6.9270 N.ar   64  HIS64      -0.2267
     99  CD2       14.5760    9.4100   -5.5200 C.ar   64  HIS64       0.1154
    100  CE1       13.2630   10.8350   -6.5480 C.ar   64  HIS64       0.1986
    101  NE2       14.2470   10.7310   -5.6680 N.ar   64  HIS64      -0.2212
    102  N         13.2800    7.1530   -9.8460 N.am   65  GLU65      -0.1963
    103  CA        12.7390    7.9030  -10.9600 C.3    65  GLU65       0.1733
    104  C         12.3680    9.2670  -10.4430 C.2    65  GLU65       0.2617
    105  O         11.8220    9.3800   -9.3350 O.2    65  GLU65      -0.2715
    106  CB        11.5570    7.1340  -11.5700 C.3    65  GLU65       0.0429
    107  CG        10.7140    7.8270  -12.6510 C.3    65  GLU65       0.1163
    108  CD         9.5540    6.9280  -13.0920 C.2    65  GLU65       0.3649
    109  OE1        9.7750    5.6750  -13.0820 O.co2  65  GLU65      -0.2457
    110  OE2        8.4410    7.4560  -13.4020 O.co2  65  GLU65      -0.2457
    111  N         12.6580   10.3100  -11.2180 N.am   66  THR66      -0.1937
    112  CA        12.3300   11.6780  -10.8380 C.3    66  THR66       0.2028
    113  C         10.8370   11.7760  -10.5220 C.2    66  THR66       0.2642
    114  O         10.0420   11.2200  -11.2630 O.2    66  THR66      -0.2714
    115  CB        12.7940   12.6570  -11.9600 C.3    66  THR66       0.1808
    116  OG1       12.6400   14.0360  -11.5690 O.3    66  THR66      -0.2208
    117  CG2       11.9950   12.4180  -13.2480 C.3    66  THR66       0.0379
    118  N         10.4570   12.4310   -9.4160 N.am   67  ARG67      -0.1977
    119  CA         9.0330   12.7010   -9.0440 C.3    67  ARG67       0.1597
    120  C          8.3420   11.4570   -8.3840 C.2    67  ARG67       0.2287
    121  O          7.1460   11.4410   -8.0730 O.2    67  ARG67      -0.2864
    122  CB         8.2040   13.2580  -10.2430 C.3    67  ARG67       0.0334
    123  CG         8.5320   14.7220  -10.6650 C.3    67  ARG67       0.0492
    124  CD         8.0050   15.7500   -9.6150 C.3    67  ARG67       0.2205
    125  NE         6.5520   15.9320   -9.6870 N.pl3  67  ARG67      -0.0865
    126  CZ         5.8040   16.4210   -8.7060 C.cat  67  ARG67       0.5346
    127  NH1        6.3700   16.7600   -7.5480 N.pl3  67  ARG67       0.1354
    128  NH2        4.5000   16.6200   -8.8850 N.pl3  67  ARG67       0.1354
    129  N          9.2080    9.5100   -5.1970 N.3    69  PHE69      -0.1241
    130  CA         9.8620    9.1300   -3.9110 C.3    69  PHE69       0.1605
    131  C          9.1340    9.8210   -2.8330 C.2    69  PHE69       0.2264
    132  O          8.6520   10.9620   -3.0030 O.2    69  PHE69      -0.2867
    133  CB        11.3230    9.4930   -3.9740 C.3    69  PHE69       0.0534
    134  CG        11.9450    9.9460   -2.7170 C.ar   69  PHE69      -0.0203
    135  CD1       12.1170   11.3240   -2.4540 C.ar   69  PHE69      -0.0042
    136  CD2       12.5260    9.0520   -1.8590 C.ar   69  PHE69      -0.0042
    137  CE1       12.8220   11.7430   -1.3100 C.ar   69  PHE69      -0.0003
    138  CE2       13.1570    9.5200   -0.6610 C.ar   69  PHE69      -0.0003
    139  CZ        13.3170   10.8490   -0.4130 C.ar   69  PHE69      -0.0000
    140  N          9.3660    9.6720    1.5680 N.3    71  TYR71      -0.1241
    141  CA         9.7970    9.1830    2.8710 C.3    71  TYR71       0.1605
    142  C          9.0090    9.8470    3.9970 C.2    71  TYR71       0.2264
    143  O          9.0640   11.0490    4.1680 O.2    71  TYR71      -0.2867
    144  CB        11.2950    9.4210    3.0660 C.3    71  TYR71       0.0534
    145  CG        11.8230    8.9420    4.4000 C.ar   71  TYR71      -0.0201
    146  CD1       11.7550    7.6000    4.7540 C.ar   71  TYR71      -0.0009
    147  CD2       12.3890    9.8310    5.3030 C.ar   71  TYR71      -0.0009
    148  CE1       12.2360    7.1580    5.9720 C.ar   71  TYR71       0.0417
    149  CE2       12.8730    9.3980    6.5240 C.ar   71  TYR71       0.0417
    150  CZ        12.7950    8.0620    6.8520 C.ar   71  TYR71       0.1957
    151  OH        13.2730    7.6250    8.0660 O.3    71  TYR71      -0.2866
    152  N          6.7410    9.4190    8.1280 N.3    73  TYR73      -0.1241
    153  CA         6.4370    8.7970    9.4230 C.3    73  TYR73       0.1605
    154  C          4.9550    8.6160    9.5570 C.2    73  TYR73       0.2264
    155  O          4.1540    9.5230    9.2450 O.2    73  TYR73      -0.2867
    156  CB         7.0260    9.6340   10.5990 C.3    73  TYR73       0.0534
    157  CG         8.3780    9.1240   10.9700 C.ar   73  TYR73      -0.0201
    158  CD1        9.5440    9.6020   10.3530 C.ar   73  TYR73      -0.0009
    159  CD2        8.5100    8.0900   11.9170 C.ar   73  TYR73      -0.0009
    160  CE1       10.8450    9.0380   10.6720 C.ar   73  TYR73       0.0417
    161  CE2        9.7480    7.5310   12.2560 C.ar   73  TYR73       0.0417
    162  CZ        10.9400    7.9910   11.6440 C.ar   73  TYR73       0.1957
    163  OH        12.1640    7.3830   12.0610 O.3    73  TYR73      -0.2866
    164  N          9.5450    4.2930    3.5460 N.3    80  LEU80      -0.1245
    165  CA        10.1940    4.7100    2.3000 C.3    80  LEU80       0.1561
    166  C          9.5870    3.9930    1.1050 C.2    80  LEU80       0.2260
    167  O          9.4790    2.7770    1.0750 O.2    80  LEU80      -0.2867
    168  CB        11.6950    4.4520    2.3630 C.3    80  LEU80       0.0270
    169  CG        12.4810    4.6850    1.0660 C.3    80  LEU80       0.0019
    170  CD1       12.4350    6.1850    0.6050 C.3    80  LEU80       0.0001
    171  CD2       13.8910    4.1730    1.2420 C.3    80  LEU80       0.0001
@<TRIPOS>BOND
     1   110   108   ar
     2   117   115    1
     3   108   109   ar
     4   108   107    1
     5   107   106    1
     6   115   116    1
     7   115   112    1
     8   106   103    1
     9   114   113    2
    10   111   112    1
    11   111   104   am
    12   103   104    1
    13   103   102    1
    14   112   113    1
    15   123   122    1
    16   123   124    1
    17   113   118   am
    18   104   105    2
    19   122   119    1
    20   102    94   am
    21   125   124    1
    22   125   126    2
    23   118   119    1
    24    95    94    2
    25    94    93    1
    26    91    89    1
    27   119   120    1
    28   128   126    1
    29   126   127    1
    30   120   121    2
    31    93    92    1
    32    93    96    1
    33    89    90    1
    34    89    86    1
    35    25    23   ar
    36    24    23   ar
    37    92    87   am
    38    88    87    2
    39    87    86    1
    40    98   100   ar
    41    98    97   ar
    42    23    22    1
    43    86    85    1
    44    96    97    1
    45   100   101   ar
    46    97    99   ar
    47    21    20    2
    48   101    99   ar
    49    20    19    1
    50    85    80   am
    51    22    19    1
    52   129   130    1
    53    19    18    1
    54    80    81    2
    55    80    79    1
    56   133   130    1
    57   133   134    1
    58   130   131    1
    59    77    76    1
    60    75    76   ar
    61    75    73   ar
    62    79    82    1
    63    79    78    1
    64   132   131    2
    65    82    84    1
    66    82    83    1
    67   134   135   ar
    68   134   136   ar
    69    76    74   ar
    70   135   137   ar
    71    73    71   ar
    72    78    68   am
    73   136   138   ar
    74    69    68    2
    75    74    72   ar
    76   137   139   ar
    77    68    67    1
    78    71    72   ar
    79    71    70    1
    80   138   139   ar
    81    70    67    1
    82    67    66    1
    83    16    15    2
    84   170   169    1
    85    17    15   am
    86    15    14    1
    87   169   171    1
    88   169   168    1
    89   167   166    2
    90   166   165    1
    91    66    62   am
    92    12    13    2
    93    12    11    1
    94   140   141    1
    95    65    64    1
    96    14    11    1
    97    62    63    2
    98    62    61    1
    99   165   168    1
   100   165   164    1
   101    11    10    1
   102    64    61    1
   103   141   144    1
   104   141   142    1
   105   144   145    1
   106    61    60    1
   107    10     3   am
   108   142   143    2
   109   145   146   ar
   110   145   147   ar
   111    60    58   am
   112     3     4    2
   113     3     2    1
   114   146   148   ar
   115   147   149   ar
   116    59    58    2
   117    58    57    1
   118    53    55   ar
   119    53    51   ar
   120     1     2    1
   121   148   150   ar
   122     2     5    1
   123    55    54   ar
   124    51    50   ar
   125     5     6    1
   126   149   150   ar
   127   150   151    1
   128    57    56    1
   129    54    52   ar
   130    50    52   ar
   131    50    49    1
   132    56    47   am
   133     6     7    1
   134   152   153    1
   135    49    46    1
   136    47    48    2
   137    47    46    1
   138     7     8    1
   139   155   154    2
   140    46    45    1
   141   153   154    1
   142   153   156    1
   143     8     9    1
   144    45    39   am
   145   158   160   ar
   146   158   157   ar
   147   156   157    1
   148   160   162   ar
   149   157   159   ar
   150    39    40    2
   151    39    38    1
   152   162   163    1
   153   162   161   ar
   154   159   161   ar
   155    26    27    1
   156    38    37    1
   157    38    41    1
   158    37    28   am
   159    43    42    2
   160    27    28    1
   161    27    30    1
   162    28    29    2
   163    42    41    1
   164    42    44   am
   165    35    34    1
   166    30    31    1
   167    31    32    1
   168    34    36    1
   169    34    33    2
   170    32    33    1
