@<TRIPOS>MOLECULE
tmp/3dvpB01.pdb
 160 159 0 0 0
SMALL
GASTEIGER

@<TRIPOS>ATOM
      1  N         21.4470  -13.8130    5.8180 N.3     5  LYS5       -0.1231
      2  CA        20.0790  -14.3210    5.9510 C.3     5  LYS5        0.1693
      3  C         19.5250  -14.8020    4.6440 C.2     5  LYS5        0.2592
      4  O         19.2550  -15.9300    4.5090 O.2     5  LYS5       -0.2718
      5  CB        19.1790  -13.2220    6.4660 C.3     5  LYS5        0.0285
      6  CG        19.3880  -12.7450    7.8810 C.3     5  LYS5        0.0035
      7  CD        18.1500  -13.1910    8.7050 C.3     5  LYS5        0.0206
      8  CE        18.5180  -13.5790   10.1620 C.3     5  LYS5        0.1093
      9  NZ        17.6230  -12.8700   11.1390 N.3     5  LYS5       -0.1314
     10  N         19.4030  -13.9140    3.6670 N.am    6  ASN6       -0.1974
     11  CA        18.8580  -14.2170    2.3840 C.3     6  ASN6        0.1688
     12  C         19.6750  -13.5690    1.3420 C.2     6  ASN6        0.2292
     13  O         20.2230  -12.4680    1.5130 O.2     6  ASN6       -0.2864
     14  CB        17.4340  -13.6820    2.2150 C.3     6  ASN6        0.1181
     15  CG        16.6320  -14.3740    1.0580 C.2     6  ASN6        0.2629
     16  OD1       17.1300  -15.2560    0.3400 O.2     6  ASN6       -0.2716
     17  ND2       15.3690  -13.9960    0.9320 N.am    6  ASN6       -0.0877
     18  N         20.2670  -13.5980   -3.2510 N.3     8  ASP8       -0.1239
     19  CA        20.1630  -14.0940   -4.6420 C.3     8  ASP8        0.1674
     20  C         21.3190  -13.4680   -5.4490 C.2     8  ASP8        0.2266
     21  O         21.1370  -12.5020   -6.1900 O.2     8  ASP8       -0.2867
     22  CB        18.8080  -13.8030   -5.2310 C.3     8  ASP8        0.1410
     23  CG        18.7440  -14.0710   -6.6900 C.2     8  ASP8        0.3668
     24  OD1       19.4560  -14.9670   -7.1640 O.co2   8  ASP8       -0.2456
     25  OD2       17.9770  -13.3890   -7.4000 O.co2   8  ASP8       -0.2456
     26  N         18.7180   -0.9850   12.0820 N.3    56  ARG56      -0.1231
     27  CA        18.7020   -1.8620   13.2480 C.3    56  ARG56       0.1694
     28  C         17.3080   -2.4200   13.3760 C.2    56  ARG56       0.2592
     29  O         17.1100   -3.4820   13.9670 O.2    56  ARG56      -0.2718
     30  CB        19.0810   -1.1630   14.5450 C.3    56  ARG56       0.0321
     31  CG        20.3860   -0.5880   14.3860 C.3    56  ARG56       0.0489
     32  CD        20.8460    0.1030   15.6590 C.3    56  ARG56       0.2205
     33  NE        22.3050    0.1800   15.7370 N.pl3  56  ARG56      -0.0865
     34  CZ        23.0100    1.0150   15.0020 C.cat  56  ARG56       0.5346
     35  NH1       22.3610    1.8010   14.1770 N.pl3  56  ARG56       0.1354
     36  NH2       24.3350    1.1000   15.1290 N.pl3  56  ARG56       0.1354
     37  N         16.3410   -1.6760   12.8620 N.am   57  ASN57      -0.1960
     38  CA        14.9960   -2.2210   12.8030 C.3    57  ASN57       0.1819
     39  C         14.1400   -1.8310   11.5650 C.2    57  ASN57       0.2621
     40  O         13.3670   -0.8360   11.5960 O.2    57  ASN57      -0.2715
     41  CB        14.1590   -1.8090   14.0210 C.3    57  ASN57       0.1195
     42  CG        12.7360   -2.4280   13.9200 C.2    57  ASN57       0.2630
     43  OD1       11.8940   -1.9350   13.2040 O.2    57  ASN57      -0.2716
     44  ND2       12.5320   -3.5440   14.5030 N.am   57  ASN57      -0.0877
     45  N         14.1960   -2.6770   10.5400 N.am   58  PHE58      -0.1960
     46  CA        13.3010   -2.4380    9.4190 C.3    58  PHE58       0.1771
     47  C         12.8360   -3.7480    8.7100 C.2    58  PHE58       0.2620
     48  O         13.3170   -4.8760    8.9490 O.2    58  PHE58      -0.2715
     49  CB        13.9760   -1.4560    8.4210 C.3    58  PHE58       0.0574
     50  CG        15.1480   -2.0260    7.7200 C.ar   58  PHE58      -0.0200
     51  CD1       15.0300   -2.5010    6.4410 C.ar   58  PHE58      -0.0042
     52  CD2       16.3820   -2.1450    8.3530 C.ar   58  PHE58      -0.0042
     53  CE1       16.1800   -3.1140    5.7970 C.ar   58  PHE58      -0.0003
     54  CE2       17.5100   -2.7050    7.7020 C.ar   58  PHE58      -0.0003
     55  CZ        17.4170   -3.1890    6.4540 C.ar   58  PHE58      -0.0000
     56  N         11.8310   -3.5750    7.8870 N.am   59  GLY59      -0.1940
     57  CA        11.5120   -4.5780    6.9150 C.3    59  GLY59       0.2014
     58  C         11.2640   -3.9520    5.5580 C.2    59  GLY59       0.2640
     59  O         11.1780   -2.7490    5.4280 O.2    59  GLY59      -0.2714
     60  N         11.0840   -4.8050    4.5680 N.am   60  SER60      -0.1935
     61  CA        10.9500   -4.3190    3.2140 C.3    60  SER60       0.2055
     62  C         10.3550   -5.3650    2.2470 C.2    60  SER60       0.2643
     63  O         10.3870   -6.5920    2.4450 O.2    60  SER60      -0.2714
     64  CB        12.3270   -3.8540    2.7130 C.3    60  SER60       0.2130
     65  OG        13.0540   -4.9900    2.3260 O.3    60  SER60      -0.2179
     66  N          9.7740   -4.8080    1.1970 N.am   61  TYR61      -0.1959
     67  CA         9.3510   -5.5850    0.0370 C.3    61  TYR61       0.1771
     68  C          9.8440   -4.9110   -1.2590 C.2    61  TYR61       0.2619
     69  O          9.3460   -3.8400   -1.6310 O.2    61  TYR61      -0.2715
     70  CB         7.8420   -5.7580    0.0600 C.3    61  TYR61       0.0574
     71  CG         7.3850   -6.8540   -0.8750 C.ar   61  TYR61      -0.0198
     72  CD1        7.4960   -8.2150   -0.5250 C.ar   61  TYR61      -0.0009
     73  CD2        6.8820   -6.5120   -2.1430 C.ar   61  TYR61      -0.0009
     74  CE1        7.1220   -9.2030   -1.4060 C.ar   61  TYR61       0.0417
     75  CE2        6.4920   -7.4570   -3.0130 C.ar   61  TYR61       0.0417
     76  CZ         6.6000   -8.8080   -2.6510 C.ar   61  TYR61       0.1957
     77  OH         6.0910   -9.6890   -3.5470 O.3    61  TYR61      -0.2866
     78  N         10.8850   -5.4950   -1.8660 N.am   62  VAL62      -0.1963
     79  CA        11.4660   -4.8730   -3.0770 C.3    62  VAL62       0.1727
     80  C         11.5470   -5.8500   -4.2480 C.2    62  VAL62       0.2617
     81  O         11.3320   -7.0810   -4.0530 O.2    62  VAL62      -0.2715
     82  CB        12.8700   -4.3020   -2.8060 C.3    62  VAL62       0.0290
     83  CG1       12.8180   -3.4570   -1.5850 C.3    62  VAL62       0.0023
     84  CG2       13.8020   -5.4100   -2.5740 C.3    62  VAL62       0.0023
     85  N         11.8000   -5.2840   -5.4260 N.am   63  THR63      -0.1937
     86  CA        12.0120   -6.0120   -6.6600 C.3    63  THR63       0.2028
     87  C         13.4780   -5.8570   -7.1340 C.2    63  THR63       0.2642
     88  O         14.0890   -4.7630   -7.1230 O.2    63  THR63      -0.2714
     89  CB        11.0190   -5.5840   -7.7950 C.3    63  THR63       0.1808
     90  OG1        9.6490   -5.7400   -7.3690 O.3    63  THR63      -0.2208
     91  CG2       11.2940   -6.3810   -9.1290 C.3    63  THR63       0.0379
     92  N         14.0870   -6.9290   -7.5580 N.am   64  HIS64      -0.1959
     93  CA        15.4460   -6.7640   -7.8780 C.3    64  HIS64       0.1787
     94  C         15.7450   -7.5980   -9.1140 C.2    64  HIS64       0.2620
     95  O         15.0850   -8.6200   -9.3910 O.2    64  HIS64      -0.2715
     96  CB        16.3580   -7.1720   -6.6720 C.3    64  HIS64       0.0785
     97  CG        16.2550   -8.6280   -6.3160 C.ar   64  HIS64       0.0821
     98  ND1       17.0470   -9.5920   -6.9120 N.ar   64  HIS64      -0.2267
     99  CD2       15.3840   -9.3000   -5.5070 C.ar   64  HIS64       0.1154
    100  CE1       16.7110  -10.7840   -6.4430 C.ar   64  HIS64       0.1986
    101  NE2       15.7110  -10.6330   -5.5880 N.ar   64  HIS64      -0.2212
    102  N         16.7860   -7.1950   -9.8270 N.am   65  GLU65      -0.1963
    103  CA        17.2750   -7.9970  -10.8980 C.3    65  GLU65       0.1733
    104  C         17.6340   -9.3240  -10.3450 C.2    65  GLU65       0.2617
    105  O         18.1640   -9.4010   -9.2160 O.2    65  GLU65      -0.2715
    106  CB        18.5000   -7.3430  -11.4720 C.3    65  GLU65       0.0429
    107  CG        18.9370   -7.8850  -12.8160 C.3    65  GLU65       0.1163
    108  CD        20.1210   -7.1180  -13.3060 C.2    65  GLU65       0.3649
    109  OE1       20.9870   -7.6480  -13.9700 O.co2  65  GLU65      -0.2457
    110  OE2       20.2110   -5.9470  -13.0190 O.co2  65  GLU65      -0.2457
    111  N         17.2870  -10.3820  -11.0680 N.am   66  THR66      -0.1951
    112  CA        17.6730  -11.7490  -10.6700 C.3    66  THR66       0.1897
    113  C         19.1690  -11.7480  -10.4040 C.2    66  THR66       0.2313
    114  O         19.8650  -10.9850  -11.0480 O.2    66  THR66      -0.2863
    115  CB        17.2380  -12.7620  -11.7390 C.3    66  THR66       0.1794
    116  OG1       17.5790  -14.1190  -11.3810 O.3    66  THR66      -0.2208
    117  CG2       17.9410  -12.4320  -13.0370 C.3    66  THR66       0.0378
    118  N         20.7920   -9.5010   -5.2850 N.3    69  PHE69      -0.1241
    119  CA        20.1850   -9.0590   -4.0520 C.3    69  PHE69       0.1605
    120  C         20.7680   -9.7770   -2.9320 C.2    69  PHE69       0.2264
    121  O         20.9870  -10.9980   -3.0410 O.2    69  PHE69      -0.2867
    122  CB        18.7130   -9.3990   -4.0620 C.3    69  PHE69       0.0534
    123  CG        18.1460   -9.8740   -2.7150 C.ar   69  PHE69      -0.0203
    124  CD1       18.1110  -11.2200   -2.3820 C.ar   69  PHE69      -0.0042
    125  CD2       17.5870   -8.9720   -1.8210 C.ar   69  PHE69      -0.0042
    126  CE1       17.5230  -11.6460   -1.2050 C.ar   69  PHE69      -0.0003
    127  CE2       17.0250   -9.4190   -0.6120 C.ar   69  PHE69      -0.0003
    128  CZ        16.9940  -10.7280   -0.3010 C.ar   69  PHE69      -0.0000
    129  N         20.6520   -9.6340    1.6310 N.3    71  TYR71      -0.1241
    130  CA        20.3270   -9.0540    2.9270 C.3    71  TYR71       0.1605
    131  C         21.0360   -9.8070    4.0470 C.2    71  TYR71       0.2264
    132  O         20.9970  -11.0360    4.1090 O.2    71  TYR71      -0.2867
    133  CB        18.8150   -9.0700    3.1560 C.3    71  TYR71       0.0534
    134  CG        18.4050   -8.7090    4.5660 C.ar   71  TYR71      -0.0201
    135  CD1       18.5140   -7.4040    5.0290 C.ar   71  TYR71      -0.0009
    136  CD2       17.9090   -9.6720    5.4340 C.ar   71  TYR71      -0.0009
    137  CE1       18.1400   -7.0690    6.3160 C.ar   71  TYR71       0.0417
    138  CE2       17.5330   -9.3460    6.7240 C.ar   71  TYR71       0.0417
    139  CZ        17.6510   -8.0440    7.1590 C.ar   71  TYR71       0.1957
    140  OH        17.2770   -7.7150    8.4420 O.3    71  TYR71      -0.2866
    141  N         23.4350   -9.2500    8.1790 N.3    73  TYR73      -0.1241
    142  CA        23.7120   -8.5010    9.3990 C.3    73  TYR73       0.1605
    143  C         25.1470   -8.4050    9.5270 C.2    73  TYR73       0.2264
    144  O         25.8110   -9.4190    9.3550 O.2    73  TYR73      -0.2867
    145  CB        23.2050   -9.2030   10.6560 C.3    73  TYR73       0.0534
    146  CG        21.7280   -9.3090   10.7250 C.ar   73  TYR73      -0.0201
    147  CD1       20.9550   -8.2440   11.2060 C.ar   73  TYR73      -0.0009
    148  CD2       21.0880  -10.4700   10.3670 C.ar   73  TYR73      -0.0009
    149  CE1       19.5610   -8.3260   11.2820 C.ar   73  TYR73       0.0417
    150  CE2       19.6810  -10.5790   10.4500 C.ar   73  TYR73       0.0417
    151  CZ        18.9270   -9.5080   10.9000 C.ar   73  TYR73       0.1957
    152  OH        17.5470   -9.6370   10.9920 O.3    73  TYR73      -0.2866
    153  N         20.6580   -4.1820    3.4070 N.3    80  LEU80      -0.1245
    154  CA        19.9770   -4.6640    2.2300 C.3    80  LEU80       0.1561
    155  C         20.5610   -4.0110    1.0100 C.2    80  LEU80       0.2260
    156  O         20.5950   -2.8000    0.8880 O.2    80  LEU80      -0.2867
    157  CB        18.4800   -4.3610    2.3060 C.3    80  LEU80       0.0270
    158  CG        17.6300   -4.6280    1.0550 C.3    80  LEU80       0.0019
    159  CD1       17.6670   -6.0880    0.5580 C.3    80  LEU80       0.0001
    160  CD2       16.1210   -4.1680    1.2590 C.3    80  LEU80       0.0001
@<TRIPOS>BOND
     1   109   108   ar
     2   108   110   ar
     3   108   107    1
     4   117   115    1
     5   107   106    1
     6   115   116    1
     7   115   112    1
     8   106   103    1
     9   111   112    1
    10   111   104   am
    11   114   113    2
    12   103   104    1
    13   103   102    1
    14   112   113    1
    15   104   105    2
    16   102    94   am
    17    95    94    2
    18    91    89    1
    19    94    93    1
    20    93    92    1
    21    93    96    1
    22    89    90    1
    23    89    86    1
    24    92    87   am
    25    25    23   ar
    26    24    23   ar
    27    87    88    2
    28    87    86    1
    29    98   100   ar
    30    98    97   ar
    31    23    22    1
    32    96    97    1
    33    86    85    1
    34   100   101   ar
    35    97    99   ar
    36    21    20    2
    37   101    99   ar
    38    20    19    1
    39    85    80   am
    40   118   119    1
    41    22    19    1
    42    19    18    1
    43    80    81    2
    44    80    79    1
    45   122   119    1
    46   122   123    1
    47   119   120    1
    48    77    76    1
    49    79    82    1
    50    79    78    1
    51   121   120    2
    52    75    76   ar
    53    75    73   ar
    54    82    84    1
    55    82    83    1
    56   123   124   ar
    57   123   125   ar
    58    76    74   ar
    59   124   126   ar
    60    73    71   ar
    61    78    68   am
    62   125   127   ar
    63    69    68    2
    64    74    72   ar
    65    68    67    1
    66   126   128   ar
    67    71    72   ar
    68    71    70    1
    69   127   128   ar
    70    67    70    1
    71    67    66    1
    72    16    15    2
    73   159   158    1
    74   156   155    2
    75    17    15   am
    76   155   154    1
    77   158   160    1
    78   158   157    1
    79    15    14    1
    80    66    62   am
    81    12    13    2
    82    12    11    1
    83   129   130    1
    84    14    11    1
    85   154   157    1
    86   154   153    1
    87    62    63    2
    88    62    61    1
    89    65    64    1
    90    11    10    1
    91    64    61    1
    92   130   133    1
    93   130   131    1
    94   133   134    1
    95    61    60    1
    96    10     3   am
    97   131   132    2
    98     4     3    2
    99   134   135   ar
   100   134   136   ar
   101    60    58   am
   102     3     2    1
   103   135   137   ar
   104    59    58    2
   105   136   138   ar
   106    58    57    1
   107    53    51   ar
   108    53    55   ar
   109     1     2    1
   110     2     5    1
   111   137   139   ar
   112    51    50   ar
   113    55    54   ar
   114     5     6    1
   115   138   139   ar
   116    57    56    1
   117   139   140    1
   118    54    52   ar
   119    50    52   ar
   120    50    49    1
   121     6     7    1
   122    56    47   am
   123   141   142    1
   124    49    46    1
   125     7     8    1
   126    47    48    2
   127    47    46    1
   128   144   143    2
   129   142   143    1
   130   142   145    1
   131    46    45    1
   132     8     9    1
   133   148   150   ar
   134   148   146   ar
   135   150   151   ar
   136    45    39   am
   137   145   146    1
   138   146   147   ar
   139   151   152    1
   140   151   149   ar
   141   147   149   ar
   142    39    40    2
   143    39    38    1
   144    26    27    1
   145    38    37    1
   146    38    41    1
   147    37    28   am
   148    43    42    2
   149    27    28    1
   150    27    30    1
   151    28    29    2
   152    42    41    1
   153    42    44   am
   154    35    34    1
   155    31    30    1
   156    31    32    1
   157    34    36    1
   158    34    33    2
   159    32    33    1
