@<TRIPOS>MOLECULE
tmp/3dwbA01.pdb
 234 230 0 0 0
SMALL
GASTEIGER

@<TRIPOS>ATOM
      1  N         96.4950   35.2040   49.3700 N.3    45  ARG45      -0.1245
      2  CA        95.8160   35.7570   48.2240 C.3    45  ARG45       0.1563
      3  C         94.5970   36.4540   48.8240 C.2    45  ARG45       0.2260
      4  O         93.7860   35.8220   49.5080 O.2    45  ARG45      -0.2867
      5  CB        95.4380   34.6390   47.2290 C.3    45  ARG45       0.0307
      6  CG        94.5890   33.5030   47.8420 C.3    45  ARG45       0.0489
      7  CD        95.0240   32.0950   47.4370 C.3    45  ARG45       0.2205
      8  NE        94.0920   31.1110   48.0060 N.pl3  45  ARG45      -0.0865
      9  CZ        92.8950   30.7920   47.4950 C.cat  45  ARG45       0.5346
     10  NH1       92.4500   31.3500   46.3630 N.pl3  45  ARG45       0.1354
     11  NH2       92.1270   29.8960   48.1190 N.pl3  45  ARG45       0.1354
     12  N         86.6930   38.7700   48.0520 N.3    49  PHE49      -0.1227
     13  CA        86.1170   37.4910   48.4610 C.3    49  PHE49       0.1736
     14  C         86.7030   37.0780   49.8060 C.2    49  PHE49       0.2596
     15  O         85.9660   36.7730   50.7350 O.2    49  PHE49      -0.2718
     16  CB        86.3450   36.4240   47.3670 C.3    49  PHE49       0.0547
     17  CG        85.7860   36.8180   46.0170 C.ar   49  PHE49      -0.0202
     18  CD1       86.6230   37.0630   44.9480 C.ar   49  PHE49      -0.0042
     19  CD2       84.4210   36.9880   45.8400 C.ar   49  PHE49      -0.0042
     20  CE1       86.1100   37.4520   43.7140 C.ar   49  PHE49      -0.0003
     21  CE2       83.8960   37.3700   44.6080 C.ar   49  PHE49      -0.0003
     22  CZ        84.7440   37.6040   43.5420 C.ar   49  PHE49      -0.0000
     23  N         88.0320   37.1080   49.9020 N.am   50  SER50      -0.1952
     24  CA        88.7240   36.9810   51.1890 C.3    50  SER50       0.1924
     25  C         88.0930   37.8640   52.2590 C.2    50  SER50       0.2314
     26  O         87.7830   37.3990   53.3570 O.2    50  SER50      -0.2863
     27  CB        90.1890   37.3840   51.0480 C.3    50  SER50       0.2116
     28  OG        90.9280   36.4100   50.3420 O.3    50  SER50      -0.2180
     29  N         84.1760   37.0330   53.2770 N.3    53  TRP53      -0.1241
     30  CA        84.1140   35.7380   53.9380 C.3    53  TRP53       0.1605
     31  C         84.3840   35.8860   55.4390 C.2    53  TRP53       0.2264
     32  O         83.6380   35.3590   56.2590 O.2    53  TRP53      -0.2867
     33  CB        85.1200   34.7750   53.2920 C.3    53  TRP53       0.0550
     34  CG        85.2410   33.4530   53.9820 C.ar   53  TRP53       0.0003
     35  CD1       86.3840   32.8850   54.4860 C.ar   53  TRP53       0.0946
     36  CD2       84.1810   32.5280   54.2520 C.ar   53  TRP53       0.0152
     37  NE1       86.0980   31.6640   55.0510 N.ar   53  TRP53      -0.2442
     38  CE2       84.7530   31.4200   54.9210 C.ar   53  TRP53       0.0810
     39  CE3       82.8020   32.5200   53.9820 C.ar   53  TRP53       0.0012
     40  CZ2       83.9880   30.3150   55.3310 C.ar   53  TRP53       0.0191
     41  CZ3       82.0470   31.4260   54.3860 C.ar   53  TRP53       0.0001
     42  CH2       82.6430   30.3410   55.0530 C.ar   53  TRP53       0.0015
     43  N         88.4190   18.9880   30.0440 N.3   225  ARG225     -0.1245
     44  CA        87.4810   20.0900   29.9220 C.3   225  ARG225      0.1563
     45  C         86.1700   19.5910   29.3530 C.2   225  ARG225      0.2260
     46  O         85.1150   19.8180   29.9330 O.2   225  ARG225     -0.2867
     47  CB        88.0400   21.2040   29.0230 C.3   225  ARG225      0.0307
     48  CG        87.5180   22.5930   29.4110 C.3   225  ARG225      0.0489
     49  CD        88.3010   23.1440   30.6220 C.3   225  ARG225      0.2205
     50  NE        87.4930   23.9720   31.5200 N.pl3 225  ARG225     -0.0865
     51  CZ        87.0540   25.1980   31.2320 C.cat 225  ARG225      0.5346
     52  NH1       87.3130   25.7600   30.0470 N.pl3 225  ARG225      0.1354
     53  NH2       86.3380   25.8690   32.1310 N.pl3 225  ARG225      0.1354
     54  N         76.3480   24.5570   47.3700 N.3   450  MET450     -0.1196
     55  CA        76.9230   25.7030   48.0800 C.3   450  MET450      0.1786
     56  C         75.9420   26.0620   49.2020 C.2   450  MET450      0.2306
     57  O         74.7080   26.0980   49.0000 O.2   450  MET450     -0.2863
     58  CB        77.1030   26.9410   47.1500 C.2   450  MET450      0.0070
     59  CG        78.5000   27.0690   46.4250 C.2   450  MET450      0.0282
     60  SD        78.7850   28.6620   45.5090 S.3   450  MET450     -0.1125
     61  CE        80.1860   28.2260   44.5140 C.3   450  MET450      0.0742
     62  N         80.5470   33.0570   49.9220 N.3   455  VAL455     -0.1231
     63  CA        80.7800   34.2710   49.0830 C.3   455  VAL455      0.1692
     64  C         81.2120   33.8660   47.6810 C.2   455  VAL455      0.2592
     65  O         82.3990   33.9460   47.2940 O.2   455  VAL455     -0.2718
     66  CB        81.8170   35.2460   49.7270 C.3   455  VAL455      0.0266
     67  CG1       81.7770   36.6100   49.0250 C.3   455  VAL455      0.0020
     68  CG2       81.5060   35.4120   51.2230 C.3   455  VAL455      0.0020
     69  N         80.2260   33.3980   46.9270 N.am  456  ASN456     -0.1960
     70  CA        80.5010   32.7600   45.6360 C.3   456  ASN456      0.1819
     71  C         79.1980   32.5140   44.9020 C.2   456  ASN456      0.2621
     72  O         78.1440   32.9000   45.3920 O.2   456  ASN456     -0.2715
     73  CB        81.3220   31.4600   45.8100 C.3   456  ASN456      0.1195
     74  CG        82.1670   31.1560   44.6020 C.2   456  ASN456      0.2630
     75  OD1       81.8100   31.5550   43.4890 O.2   456  ASN456     -0.2716
     76  ND2       83.2660   30.4310   44.7870 N.am  456  ASN456     -0.0877
     77  N         79.2730   31.9140   43.7170 N.am  457  ALA457     -0.1963
     78  CA        78.0500   31.6660   42.9290 C.3   457  ALA457      0.1728
     79  C         78.3330   30.6580   41.8530 C.2   457  ALA457      0.2616
     80  O         79.4970   30.4100   41.4950 O.2   457  ALA457     -0.2715
     81  CB        77.4800   32.9820   42.3180 C.3   457  ALA457      0.0334
     82  N         77.2780   30.0670   41.3050 N.am  458  TYR458     -0.1960
     83  CA        77.5230   28.9930   40.3300 C.3   458  TYR458      0.1771
     84  C         76.3920   28.7340   39.3490 C.2   458  TYR458      0.2619
     85  O         75.2780   29.2500   39.4580 O.2   458  TYR458     -0.2715
     86  CB        78.0080   27.6960   41.0580 C.3   458  TYR458      0.0574
     87  CG        76.9180   26.9750   41.7980 C.ar  458  TYR458     -0.0198
     88  CD1       76.4820   27.4100   43.0500 C.ar  458  TYR458     -0.0009
     89  CD2       76.2830   25.8810   41.2290 C.ar  458  TYR458     -0.0009
     90  CE1       75.4440   26.7610   43.7260 C.ar  458  TYR458      0.0417
     91  CE2       75.2460   25.2360   41.8840 C.ar  458  TYR458      0.0417
     92  CZ        74.8460   25.6630   43.1330 C.ar  458  TYR458      0.1957
     93  OH        73.8160   25.0110   43.7490 O.3   458  TYR458     -0.2866
     94  N         76.7230   27.9540   38.3270 N.am  459  TYR459     -0.1974
     95  CA        75.6920   27.4720   37.3880 C.3   459  TYR459      0.1639
     96  C         75.7830   25.9800   37.3530 C.2   459  TYR459      0.2290
     97  O         76.8760   25.4670   37.2640 O.2   459  TYR459     -0.2864
     98  CB        75.9230   28.0150   35.9620 C.3   459  TYR459      0.0560
     99  CG        75.0690   27.3460   34.9010 C.ar  459  TYR459     -0.0198
    100  CD1       73.7230   27.5520   34.8500 C.ar  459  TYR459     -0.0009
    101  CD2       75.6110   26.4870   33.9930 C.ar  459  TYR459     -0.0009
    102  CE1       72.9430   26.9620   33.9140 C.ar  459  TYR459      0.0417
    103  CE2       74.8300   25.8910   33.0330 C.ar  459  TYR459      0.0417
    104  CZ        73.5010   26.1400   32.9990 C.ar  459  TYR459      0.1957
    105  OH        72.7120   25.5240   32.0600 O.3   459  TYR459     -0.2866
    106  N         76.9350   36.3770   49.1280 N.3   472  ILE472     -0.1245
    107  CA        77.5430   37.2500   48.1080 C.3   472  ILE472      0.1561
    108  C         76.5870   38.3490   47.7500 C.2   472  ILE472      0.2260
    109  O         76.9620   39.2870   47.0630 O.2   472  ILE472     -0.2867
    110  CB        77.9410   36.5100   46.8040 C.3   472  ILE472      0.0252
    111  CG1       79.0520   37.2630   46.0880 C.3   472  ILE472      0.0019
    112  CG2       76.7340   36.3030   45.8660 C.3   472  ILE472      0.0019
    113  CD1       79.6380   36.5240   44.9380 C.3   472  ILE472      0.0001
    114  N         79.1160   43.7270   46.0300 N.3   477  PHE477     -0.1241
    115  CA        78.1760   43.2220   45.0170 C.3   477  PHE477      0.1605
    116  C         76.8110   43.8630   45.1120 C.2   477  PHE477      0.2264
    117  O         76.3090   44.4120   44.1350 O.2   477  PHE477     -0.2867
    118  CB        78.0550   41.7120   45.1060 C.3   477  PHE477      0.0534
    119  CG        79.3720   41.0370   45.1820 C.ar  477  PHE477     -0.0203
    120  CD1       80.0530   40.7260   44.0430 C.ar  477  PHE477     -0.0042
    121  CD2       79.9630   40.7690   46.4120 C.ar  477  PHE477     -0.0042
    122  CE1       81.2680   40.1420   44.1190 C.ar  477  PHE477     -0.0003
    123  CE2       81.1930   40.2120   46.4850 C.ar  477  PHE477     -0.0003
    124  CZ        81.8410   39.8820   45.3440 C.ar  477  PHE477     -0.0000
    125  N         76.7700   41.9060   37.2700 N.3   493  VAL493     -0.1231
    126  CA        77.8360   41.2230   36.5530 C.3   493  VAL493      0.1692
    127  C         78.0260   39.7780   37.0110 C.2   493  VAL493      0.2591
    128  O         78.3580   38.8790   36.2040 O.2   493  VAL493     -0.2718
    129  CB        79.1910   41.9950   36.7310 C.3   493  VAL493      0.0266
    130  CG1       80.3430   41.2310   36.1070 C.3   493  VAL493      0.0020
    131  CG2       79.1200   43.3880   36.1080 C.3   493  VAL493      0.0020
    132  N         77.8640   39.5490   38.3130 N.am  494  VAL494     -0.1980
    133  CA        77.9090   38.2030   38.8410 C.3   494  VAL494      0.1595
    134  C         76.7600   37.3770   38.2390 C.2   494  VAL494      0.2287
    135  O         76.9740   36.2690   37.7880 O.2   494  VAL494     -0.2864
    136  CB        77.9160   38.2060   40.4240 C.3   494  VAL494      0.0276
    137  CG1       77.8730   36.7470   40.9860 C.3   494  VAL494      0.0022
    138  CG2       79.1520   38.9450   40.9390 C.3   494  VAL494      0.0022
    139  N         77.3850   36.6750   34.4620 N.3   497  HIS497     -0.1226
    140  CA        78.4440   35.6630   34.4700 C.3   497  HIS497      0.1752
    141  C         77.8890   34.2200   34.5750 C.2   497  HIS497      0.2595
    142  O         78.3210   33.3500   33.8130 O.2   497  HIS497     -0.2718
    143  CB        79.4730   35.9910   35.5830 C.3   497  HIS497      0.0759
    144  CG        80.4950   34.9170   35.8320 C.ar  497  HIS497      0.0818
    145  ND1       81.7110   34.8800   35.1880 N.ar  497  HIS497     -0.2268
    146  CD2       80.4610   33.8200   36.6340 C.ar  497  HIS497      0.1154
    147  CE1       82.3850   33.8130   35.5800 C.ar  497  HIS497      0.1986
    148  NE2       81.6510   33.1530   36.4630 N.ar  497  HIS497     -0.2212
    149  N         76.8970   34.0220   35.4660 N.am  498  GLU498     -0.1979
    150  CA        76.2560   32.7320   35.7010 C.3   498  GLU498      0.1602
    151  C         75.3340   32.3400   34.5540 C.2   498  GLU498      0.2287
    152  O         75.3960   31.2170   34.1000 O.2   498  GLU498     -0.2864
    153  CB        75.4850   32.6970   37.0630 C.3   498  GLU498      0.0415
    154  CG        76.3820   32.6590   38.4000 C.3   498  GLU498      0.1163
    155  CD        77.6610   31.8130   38.2810 C.2   498  GLU498      0.3649
    156  OE1       77.7140   30.8380   37.4980 O.co2 498  GLU498     -0.2457
    157  OE2       78.6460   32.1270   38.9620 O.co2 498  GLU498     -0.2457
    158  N         77.2410   31.1210   31.6360 N.3   501  HIS501     -0.1241
    159  CA        77.7860   29.7500   31.8120 C.3   501  HIS501      0.1621
    160  C         76.8620   28.6980   31.1920 C.2   501  HIS501      0.2264
    161  O         77.2930   27.6550   30.8330 O.2   501  HIS501     -0.2867
    162  CB        78.0140   29.4580   33.3100 C.3   501  HIS501      0.0745
    163  CG        79.4210   29.7080   33.7850 C.ar  501  HIS501      0.0817
    164  ND1       80.5340   29.3920   33.0340 N.ar  501  HIS501     -0.2268
    165  CD2       79.8860   30.2310   34.9440 C.ar  501  HIS501      0.1154
    166  CE1       81.6240   29.7240   33.7050 C.ar  501  HIS501      0.1986
    167  NE2       81.2600   30.2260   34.8700 N.ar  501  HIS501     -0.2212
    168  N         85.5820   30.6350   31.6470 N.3   557  GLU557     -0.1245
    169  CA        85.3270   31.6650   32.6570 C.3   557  GLU557      0.1567
    170  C         85.5380   33.0550   32.0270 C.2   557  GLU557      0.2260
    171  O         84.9020   34.0000   32.4060 O.2   557  GLU557     -0.2867
    172  CB        86.1780   31.4570   33.9290 C.3   557  GLU557      0.0388
    173  CG        85.9310   30.1180   34.7410 C.3   557  GLU557      0.1160
    174  CD        84.5760   30.0350   35.4750 C.2   557  GLU557      0.3649
    175  OE1       83.8370   31.0300   35.5810 O.co2 557  GLU557     -0.2457
    176  OE2       84.2130   28.9190   35.9300 O.co2 557  GLU557     -0.2457
    177  N         82.7210   35.9250   31.8630 N.3   561  ASP561     -0.1239
    178  CA        83.1040   37.3070   32.2390 C.3   561  ASP561      0.1674
    179  C         82.6560   38.3130   31.1750 C.2   561  ASP561      0.2266
    180  O         82.0940   39.3520   31.4590 O.2   561  ASP561     -0.2867
    181  CB        84.6280   37.3760   32.4080 C.3   561  ASP561      0.1410
    182  CG        85.0790   36.9150   33.7840 C.2   561  ASP561      0.3668
    183  OD1       86.2680   36.6910   33.9510 O.co2 561  ASP561     -0.2456
    184  OD2       84.2400   36.7320   34.6800 O.co2 561  ASP561     -0.2456
    185  N         87.2540   43.2010   41.7260 N.3   604  TRP604     -0.1241
    186  CA        88.4080   42.3570   41.4540 C.3   604  TRP604      0.1605
    187  C         89.7670   42.8820   41.9280 C.2   604  TRP604      0.2264
    188  O         90.8160   42.3310   41.5550 O.2   604  TRP604     -0.2867
    189  CB        88.4520   42.1030   39.9570 C.3   604  TRP604      0.0550
    190  CG        87.2460   41.3310   39.5510 C.ar  604  TRP604      0.0003
    191  CD1       86.1260   41.8100   38.9430 C.ar  604  TRP604      0.0946
    192  CD2       87.0170   39.9450   39.7880 C.ar  604  TRP604      0.0152
    193  NE1       85.2170   40.8010   38.7670 N.ar  604  TRP604     -0.2442
    194  CE2       85.7370   39.6420   39.2770 C.ar  604  TRP604      0.0810
    195  CE3       87.7740   38.9210   40.3780 C.ar  604  TRP604      0.0012
    196  CZ2       85.1910   38.3510   39.3360 C.ar  604  TRP604      0.0191
    197  CZ3       87.2270   37.6420   40.4430 C.ar  604  TRP604      0.0001
    198  CH2       85.9530   37.3680   39.9160 C.ar  604  TRP604      0.0015
    199  N         94.0460   27.5370   37.9360 N.3   620  ASP620     -0.1225
    200  CA        92.7440   28.2310   38.1060 C.3   620  ASP620      0.1790
    201  C         92.1060   28.3470   36.7350 C.2   620  ASP620      0.2440
    202  O         92.7910   28.7770   35.7970 O.2   620  ASP620     -0.2733
    203  CB        92.9380   29.6380   38.7210 C.3   620  ASP620      0.1423
    204  CG        91.7370   30.1110   39.5470 C.2   620  ASP620      0.3668
    205  OD1       90.7360   29.3900   39.6020 O.co2 620  ASP620     -0.2456
    206  OD2       91.7970   31.2120   40.1560 O.co2 620  ASP620     -0.2456
    207  N         90.8210   27.9450   36.5950 N.am  621  PRO621     -0.2718
    208  CA        90.1750   28.1130   35.2820 C.3   621  PRO621      0.1535
    209  C         89.7730   29.5700   35.0790 C.2   621  PRO621      0.2598
    210  O         89.5850   30.0070   33.9610 O.2   621  PRO621     -0.2715
    211  CB        88.9460   27.2060   35.3750 C.3   621  PRO621      0.0310
    212  CG        88.5840   27.2340   36.8370 C.3   621  PRO621      0.0237
    213  CD        89.9010   27.3440   37.5770 C.3   621  PRO621      0.0939
    214  N         89.6470   30.2920   36.1870 N.am  622  HIS622     -0.1974
    215  CA        89.4570   31.7310   36.1870 C.3   622  HIS622      0.1656
    216  C         90.7550   32.4240   35.8330 C.2   622  HIS622      0.2291
    217  O         91.8270   31.9520   36.1870 O.2   622  HIS622     -0.2864
    218  CB        89.0070   32.1840   37.5580 C.3   622  HIS622      0.0771
    219  CG        87.8230   31.4400   38.0540 C.ar  622  HIS622      0.0820
    220  ND1       87.9310   30.2330   38.7030 N.ar  622  HIS622     -0.2267
    221  CD2       86.4990   31.7120   37.9780 C.ar  622  HIS622      0.1154
    222  CE1       86.7230   29.8000   39.0230 C.ar  622  HIS622      0.1986
    223  NE2       85.8340   30.6800   38.5970 N.ar  622  HIS622     -0.2212
    224  N         90.8320   39.6550   34.3150 N.3   628  ARG628     -0.1245
    225  CA        89.3730   39.5380   34.2790 C.3   628  ARG628      0.1563
    226  C         88.7540   40.9060   33.9360 C.2   628  ARG628      0.2260
    227  O         87.8780   41.0020   33.1050 O.2   628  ARG628     -0.2867
    228  CB        88.8260   38.9980   35.6040 C.3   628  ARG628      0.0307
    229  CG        89.2670   37.5740   35.8570 C.3   628  ARG628      0.0489
    230  CD        88.5650   36.9640   37.0460 C.3   628  ARG628      0.2205
    231  NE        87.2840   36.3920   36.6710 N.pl3 628  ARG628     -0.0865
    232  CZ        86.6320   35.4850   37.3870 C.cat 628  ARG628      0.5346
    233  NH1       85.4710   35.0360   36.9600 N.pl3 628  ARG628      0.1354
    234  NH2       87.1260   35.0230   38.5250 N.pl3 628  ARG628      0.1354
@<TRIPOS>BOND
     1    47    48    1
     2    47    44    1
     3    45    44    1
     4    45    46    2
     5    48    49    1
     6    44    43    1
     7    52    51    1
     8    49    50    1
     9   161   160    2
    10   179   180    2
    11   179   178    1
    12   160   159    1
    13    51    50    2
    14    51    53    1
    15   158   159    1
    16   168   169    1
    17   159   162    1
    18   177   178    1
    19   170   171    2
    20   170   169    1
    21   105   104    1
    22   178   181    1
    23   181   182    1
    24   169   172    1
    25   104   103   ar
    26   104   102   ar
    27   103   101   ar
    28   164   166   ar
    29   164   163   ar
    30   227   226    2
    31   162   163    1
    32   166   167   ar
    33   182   183   ar
    34   182   184   ar
    35   163   165   ar
    36   142   141    2
    37   102   100   ar
    38   172   173    1
    39   226   225    1
    40   210   209    2
    41   101    99   ar
    42   152   151    2
    43   225   224    1
    44   225   228    1
    45   139   140    1
    46   140   141    1
    47   140   143    1
    48   151   150    1
    49   141   149   am
    50   173   174    1
    51   100    99   ar
    52   167   165   ar
    53    99    98    1
    54   209   208    1
    55   209   214   am
    56   145   147   ar
    57   145   144   ar
    58   208   211    1
    59   208   207    1
    60   211   212    1
    61   149   150    1
    62   174   175   ar
    63   174   176   ar
    64   147   148   ar
    65   143   144    1
    66   228   229    1
    67   150   153    1
    68   202   201    2
    69   144   146   ar
    70   216   217    2
    71   216   215    1
    72   229   230    1
    73    98    95    1
    74   130   129    1
    75   131   129    1
    76   215   214    1
    77   215   218    1
    78   128   127    2
    79   148   146   ar
    80   126   129    1
    81   126   127    1
    82   126   125    1
    83   207   201   am
    84   207   213    1
    85   231   230    1
    86   231   232    2
    87   201   200    1
    88   212   213    1
    89   233   232    1
    90   127   132   am
    91   153   154    1
    92    97    96    2
    93    96    95    1
    94   232   234    1
    95    95    94    1
    96   156   155   ar
    97   218   219    1
    98   135   134    2
    99   199   200    1
   100   221   219   ar
   101   221   223   ar
   102   219   220   ar
   103   200   203    1
   104   134   133    1
   105   155   154    1
   106   155   157   ar
   107   132   133    1
   108    94    84   am
   109   223   222   ar
   110   220   222   ar
   111   203   204    1
   112   193   191   ar
   113   193   194   ar
   114   133   136    1
   115   191   190   ar
   116   194   196   ar
   117   194   192   ar
   118   196   198   ar
   119    84    85    2
   120    84    83    1
   121   204   205   ar
   122   204   206   ar
   123   190   192   ar
   124   190   189    1
   125   192   195   ar
   126   198   197   ar
   127   189   186    1
   128    83    86    1
   129    83    82    1
   130   195   197   ar
   131   136   138    1
   132   136   137    1
   133    86    87    1
   134    89    87   ar
   135    89    91   ar
   136    82    79   am
   137   186   185    1
   138   186   187    1
   139    80    79    2
   140   188   187    2
   141    87    88   ar
   142    79    78    1
   143    91    92   ar
   144    81    78    1
   145    78    77    1
   146    88    90   ar
   147    92    90   ar
   148    92    93    1
   149    75    74    2
   150    22    20   ar
   151    22    21   ar
   152    20    18   ar
   153    77    71   am
   154   120   122   ar
   155   120   119   ar
   156   122   124   ar
   157   117   116    2
   158    61    60    1
   159    74    76   am
   160    74    73    1
   161    21    19   ar
   162    71    72    2
   163    71    70    1
   164   113   111    1
   165    18    17   ar
   166   115   118    1
   167   115   116    1
   168   115   114    1
   169   118   119    1
   170   119   121   ar
   171   124   123   ar
   172    60    59    1
   173    70    73    1
   174    70    69    1
   175    19    17   ar
   176   112   110    1
   177    17    16    1
   178   111   110    1
   179    10     9    1
   180   121   123   ar
   181    59    58    2
   182   110   107    1
   183    69    64   am
   184   109   108    2
   185    58    55    1
   186     5     6    1
   187     5     2    1
   188    65    64    2
   189    16    13    1
   190    54    55    1
   191     7     6    1
   192     7     8    1
   193     9     8    2
   194     9    11    1
   195    64    63    1
   196   108   107    1
   197    12    13    1
   198    55    56    1
   199   107   106    1
   200     2     3    1
   201     2     1    1
   202    13    14    1
   203     3     4    2
   204    57    56    2
   205    67    66    1
   206    63    66    1
   207    63    62    1
   208    66    68    1
   209    14    23   am
   210    14    15    2
   211    23    24    1
   212    28    27    1
   213    27    24    1
   214    24    25    1
   215    25    26    2
   216    29    30    1
   217    33    30    1
   218    33    34    1
   219    30    31    1
   220    39    36   ar
   221    39    41   ar
   222    34    36   ar
   223    34    35   ar
   224    36    38   ar
   225    41    42   ar
   226    35    37   ar
   227    38    37   ar
   228    38    40   ar
   229    42    40   ar
   230    31    32    2
