@<TRIPOS>MOLECULE
tmp/3dwbA00.pdb
 138 135 0 0 0
SMALL
GASTEIGER

@<TRIPOS>ATOM
      1  N         80.8050   21.8210   57.1070 N.3   332  ASN332     -0.1240
      2  CA        80.0480   20.5820   57.2390 C.3   332  ASN332      0.1653
      3  C         78.5520   20.7820   57.4790 C.2   332  ASN332      0.2266
      4  O         77.7130   20.0420   56.9320 O.2   332  ASN332     -0.2867
      5  CB        80.6610   19.7570   58.3530 C.3   332  ASN332      0.1155
      6  CG        82.0760   19.3270   58.0390 C.2   332  ASN332      0.2627
      7  OD1       82.9020   19.1710   58.9450 O.2   332  ASN332     -0.2716
      8  ND2       82.3660   19.1090   56.7670 N.am  332  ASN332     -0.0877
      9  N         74.2920   24.1790   55.8820 N.3   335  PHE335     -0.1241
     10  CA        72.8520   24.2850   55.7220 C.3   335  PHE335      0.1605
     11  C         72.1810   24.2990   57.0980 C.2   335  PHE335      0.2264
     12  O         71.1040   24.8840   57.2690 O.2   335  PHE335     -0.2867
     13  CB        72.2930   23.1570   54.8710 C.3   335  PHE335      0.0534
     14  CG        72.7730   23.1540   53.4460 C.ar  335  PHE335     -0.0203
     15  CD1       72.4260   24.1890   52.5720 C.ar  335  PHE335     -0.0042
     16  CD2       73.5250   22.0900   52.9560 C.ar  335  PHE335     -0.0042
     17  CE1       72.8410   24.1690   51.2470 C.ar  335  PHE335     -0.0003
     18  CE2       73.9360   22.0580   51.6280 C.ar  335  PHE335     -0.0003
     19  CZ        73.6110   23.0960   50.7760 C.ar  335  PHE335     -0.0000
     20  N         64.0090   24.5290   51.4710 N.3   399  PHE399     -0.1241
     21  CA        63.7790   23.5180   52.4910 C.3   399  PHE399      0.1605
     22  C         64.4060   23.9120   53.8210 C.2   399  PHE399      0.2264
     23  O         63.9690   23.4460   54.8320 O.2   399  PHE399     -0.2867
     24  CB        64.2880   22.1310   52.0500 C.3   399  PHE399      0.0534
     25  CG        65.7760   21.9410   52.2190 C.ar  399  PHE399     -0.0203
     26  CD1       66.6560   22.2670   51.1790 C.ar  399  PHE399     -0.0042
     27  CD2       66.2910   21.4270   53.4130 C.ar  399  PHE399     -0.0042
     28  CE1       68.0230   22.0970   51.3370 C.ar  399  PHE399     -0.0003
     29  CE2       67.6490   21.2440   53.5980 C.ar  399  PHE399     -0.0003
     30  CZ        68.5240   21.5740   52.5810 C.ar  399  PHE399     -0.0000
     31  N         66.4810   16.3770   57.1720 N.3   409  VAL409     -0.1231
     32  CA        67.7610   16.2130   56.5120 C.3   409  VAL409      0.1692
     33  C         68.8930   15.9240   57.4870 C.2   409  VAL409      0.2592
     34  O         69.7770   15.1380   57.1780 O.2   409  VAL409     -0.2718
     35  CB        68.1090   17.4430   55.6150 C.3   409  VAL409      0.0266
     36  CG1       69.6240   17.5700   55.3190 C.3   409  VAL409      0.0020
     37  CG2       67.3730   17.3280   54.3200 C.3   409  VAL409      0.0020
     38  N         68.8800   16.5560   58.6510 N.am  410  PHE410     -0.1976
     39  CA        69.9800   16.3920   59.6060 C.3   410  PHE410      0.1639
     40  C         69.7130   15.4230   60.7640 C.2   410  PHE410      0.2290
     41  O         70.5790   15.2440   61.6170 O.2   410  PHE410     -0.2864
     42  CB        70.4240   17.7610   60.1200 C.3   410  PHE410      0.0560
     43  CG        71.2980   18.4910   59.1560 C.ar  410  PHE410     -0.0200
     44  CD1       72.6010   18.0630   58.9280 C.ar  410  PHE410     -0.0042
     45  CD2       70.8290   19.5970   58.4640 C.ar  410  PHE410     -0.0042
     46  CE1       73.4220   18.7270   58.0350 C.ar  410  PHE410     -0.0003
     47  CE2       71.6460   20.2650   57.5620 C.ar  410  PHE410     -0.0003
     48  CZ        72.9400   19.8260   57.3510 C.ar  410  PHE410     -0.0000
     49  N         80.0140   12.8890   61.2590 N.3   427  PHE427     -0.1241
     50  CA        79.5610   13.6830   60.1420 C.3   427  PHE427      0.1605
     51  C         80.0220   13.0790   58.8180 C.2   427  PHE427      0.2264
     52  O         79.2510   13.0710   57.8540 O.2   427  PHE427     -0.2867
     53  CB        80.0030   15.1490   60.2010 C.3   427  PHE427      0.0534
     54  CG        79.5750   15.9080   58.9810 C.ar  427  PHE427     -0.0203
     55  CD1       80.3270   15.8430   57.8020 C.ar  427  PHE427     -0.0042
     56  CD2       78.3650   16.5770   58.9580 C.ar  427  PHE427     -0.0042
     57  CE1       79.8830   16.4690   56.6470 C.ar  427  PHE427     -0.0003
     58  CE2       77.9330   17.1980   57.8170 C.ar  427  PHE427     -0.0003
     59  CZ        78.6830   17.1470   56.6660 C.ar  427  PHE427     -0.0000
     60  N         77.8430   10.2660   57.9950 N.3   430  PHE430     -0.1227
     61  CA        76.5180   10.8220   57.6820 C.3   430  PHE430      0.1736
     62  C         76.4790   11.3910   56.2690 C.2   430  PHE430      0.2596
     63  O         75.5050   11.2330   55.5340 O.2   430  PHE430     -0.2718
     64  CB        76.1740   11.8930   58.7210 C.3   430  PHE430      0.0547
     65  CG        75.1100   12.8800   58.2890 C.ar  430  PHE430     -0.0202
     66  CD1       75.4660   14.1350   57.8080 C.ar  430  PHE430     -0.0042
     67  CD2       73.7490   12.5770   58.4300 C.ar  430  PHE430     -0.0042
     68  CE1       74.4980   15.0430   57.4330 C.ar  430  PHE430     -0.0003
     69  CE2       72.7670   13.4860   58.0530 C.ar  430  PHE430     -0.0003
     70  CZ        73.1380   14.7120   57.5590 C.ar  430  PHE430     -0.0000
     71  N         77.5710   12.0340   55.8900 N.am  431  SER431     -0.1952
     72  CA        77.6520   12.7800   54.6430 C.3   431  SER431      0.1924
     73  C         77.7310   11.8230   53.4710 C.2   431  SER431      0.2314
     74  O         77.1380   12.0600   52.4080 O.2   431  SER431     -0.2863
     75  CB        78.8870   13.6830   54.6630 C.3   431  SER431      0.2116
     76  OG        79.5050   13.7430   53.3990 O.3   431  SER431     -0.2180
     77  N         74.2520   10.4330   52.8620 N.3   434  VAL434     -0.1231
     78  CA        73.3450   11.3500   52.1710 C.3   434  VAL434      0.1692
     79  C         73.5200   11.2120   50.6630 C.2   434  VAL434      0.2592
     80  O         72.5460   11.2840   49.8990 O.2   434  VAL434     -0.2718
     81  CB        73.6160   12.8290   52.5520 C.3   434  VAL434      0.0266
     82  CG1       73.0290   13.7870   51.4990 C.3   434  VAL434      0.0020
     83  CG2       73.0820   13.1530   53.9250 C.3   434  VAL434      0.0020
     84  N         74.7680   11.0400   50.2320 N.am  435  THR435     -0.1953
     85  CA        75.0720   10.9180   48.8150 C.3   435  THR435      0.1897
     86  C         74.6320    9.5480   48.3310 C.2   435  THR435      0.2313
     87  O         73.9150    9.4340   47.3440 O.2   435  THR435     -0.2863
     88  CB        76.5640   11.1840   48.5230 C.3   435  THR435      0.1794
     89  OG1       77.3680   10.2760   49.2640 O.3   435  THR435     -0.2208
     90  CG2       76.9320   12.5680   48.9600 C.3   435  THR435      0.0378
     91  N         70.9580    9.1550   47.5460 N.3   438  GLN438     -0.1245
     92  CA        70.4590    9.8210   46.3650 C.3   438  GLN438      0.1566
     93  C         70.4650    8.9340   45.1200 C.2   438  GLN438      0.2260
     94  O         69.8560    9.2800   44.1170 O.2   438  GLN438     -0.2867
     95  CB        71.2600   11.1000   46.1000 C.3   438  GLN438      0.0367
     96  CG        71.0380   12.2490   47.1220 C.3   438  GLN438      0.0905
     97  CD        69.5630   12.5190   47.4360 C.2   438  GLN438      0.2608
     98  OE1       68.7710   12.8260   46.5420 O.2   438  GLN438     -0.2717
     99  NE2       69.1860   12.3830   48.7250 N.am  438  GLN438     -0.0878
    100  N         67.0010   17.3190   42.3530 N.3   444  ASN444     -0.1240
    101  CA        66.1910   18.5040   42.2070 C.3   444  ASN444      0.1653
    102  C         66.9770   19.7930   42.4290 C.2   444  ASN444      0.2266
    103  O         68.1180   19.8120   42.8960 O.2   444  ASN444     -0.2867
    104  CB        64.8920   18.4230   43.0320 C.3   444  ASN444      0.1155
    105  CG        65.0990   18.7940   44.4690 C.2   444  ASN444      0.2627
    106  OD1       65.8330   18.1270   45.1650 O.2   444  ASN444     -0.2716
    107  ND2       64.4650   19.8600   44.9130 N.am  444  ASN444     -0.0877
    108  N         66.2170   22.3540   44.2830 N.3   446  ASP446     -0.1225
    109  CA        66.2870   22.8630   45.6460 C.3   446  ASP446      0.1805
    110  C         67.4570   22.3380   46.4130 C.2   446  ASP446      0.2598
    111  O         67.5980   22.6450   47.5730 O.2   446  ASP446     -0.2718
    112  CB        64.9850   22.6110   46.4280 C.3   446  ASP446      0.1424
    113  CG        64.8210   23.5590   47.6260 C.2   446  ASP446      0.3668
    114  OD1       64.0380   23.2300   48.5390 O.co2 446  ASP446     -0.2456
    115  OD2       65.4580   24.6320   47.6430 O.co2 446  ASP446     -0.2456
    116  N         68.3140   21.5560   45.7710 N.am  447  GLN447     -0.1965
    117  CA        69.5020   21.0270   46.4190 C.3   447  GLN447      0.1733
    118  C         70.7210   21.7510   45.8860 C.2   447  GLN447      0.2616
    119  O         70.9640   21.7210   44.6740 O.2   447  GLN447     -0.2715
    120  CB        69.6200   19.5120   46.1440 C.3   447  GLN447      0.0408
    121  CG        68.4570   18.6900   46.7110 C.3   447  GLN447      0.0908
    122  CD        68.4790   17.1950   46.3020 C.2   447  GLN447      0.2608
    123  OE1       68.4560   16.8490   45.1130 O.2   447  GLN447     -0.2717
    124  NE2       68.5040   16.3130   47.3050 N.am  447  GLN447     -0.0878
    125  N         71.5100   22.3600   46.7750 N.am  448  TRP448     -0.1974
    126  CA        72.6190   23.2460   46.3760 C.3   448  TRP448      0.1640
    127  C         73.9110   22.5840   46.6230 C.2   448  TRP448      0.2290
    128  O         74.0390   21.8540   47.5960 O.2   448  TRP448     -0.2864
    129  CB        72.6390   24.5500   47.2020 C.3   448  TRP448      0.0576
    130  CG        71.5010   25.4940   46.9260 C.ar  448  TRP448      0.0006
    131  CD1       70.3040   25.1920   46.3540 C.ar  448  TRP448      0.0946
    132  CD2       71.4520   26.9000   47.2550 C.ar  448  TRP448      0.0152
    133  NE1       69.5210   26.3160   46.3000 N.ar  448  TRP448     -0.2442
    134  CE2       70.2030   27.3730   46.8570 C.ar  448  TRP448      0.0810
    135  CE3       72.3440   27.7860   47.8690 C.ar  448  TRP448      0.0012
    136  CZ2       69.8280   28.7100   47.0190 C.ar  448  TRP448      0.0191
    137  CZ3       71.9830   29.0960   48.0230 C.ar  448  TRP448      0.0001
    138  CH2       70.7450   29.5550   47.5880 C.ar  448  TRP448      0.0015
@<TRIPOS>BOND
     1   101   100    1
     2   101   102    1
     3   101   104    1
     4   102   103    2
     5   104   105    1
     6    94    93    2
     7   108   109    1
     8   105   107   am
     9   105   106    2
    10   119   118    2
    11   123   122    2
    12    93    92    1
    13   109   110    1
    14   109   112    1
    15   116   110   am
    16   116   117    1
    17   118   117    1
    18   118   125   am
    19    95    92    1
    20    95    96    1
    21   120   117    1
    22   120   121    1
    23   133   131   ar
    24   133   134   ar
    25   122   121    1
    26   122   124   am
    27   131   130   ar
    28    92    91    1
    29   126   127    1
    30   126   125    1
    31   126   129    1
    32   110   111    2
    33   112   113    1
    34    98    97    2
    35   127   128    2
    36   134   136   ar
    37   134   132   ar
    38   130   129    1
    39   130   132   ar
    40   136   138   ar
    41    96    97    1
    42   132   135   ar
    43    87    86    2
    44    97    99   am
    45   138   137   ar
    46   113   115   ar
    47   113   114   ar
    48   135   137   ar
    49    86    85    1
    50    88    85    1
    51    88    90    1
    52    88    89    1
    53    85    84    1
    54    80    79    2
    55    84    79   am
    56    79    78    1
    57    19    17   ar
    58    19    18   ar
    59    26    28   ar
    60    26    25   ar
    61    17    15   ar
    62    28    30   ar
    63    20    21    1
    64    82    81    1
    65    18    16   ar
    66    24    25    1
    67    24    21    1
    68    78    81    1
    69    78    77    1
    70    25    27   ar
    71    74    73    2
    72    21    22    1
    73    81    83    1
    74    15    14   ar
    75    30    29   ar
    76    16    14   ar
    77    76    75    1
    78    27    29   ar
    79    14    13    1
    80    73    72    1
    81    22    23    2
    82    37    35    1
    83    72    75    1
    84    72    71    1
    85    13    10    1
    86    36    35    1
    87    63    62    2
    88    35    32    1
    89    10     9    1
    90    10    11    1
    91    71    62   am
    92    62    61    1
    93    32    31    1
    94    32    33    1
    95    57    59   ar
    96    57    55   ar
    97    59    58   ar
    98     8     6   am
    99     4     3    2
   100    11    12    2
   101     1     2    1
   102    34    33    2
   103     2     3    1
   104     2     5    1
   105    48    47   ar
   106    48    46   ar
   107    68    70   ar
   108    68    66   ar
   109    33    38   am
   110    70    69   ar
   111    47    45   ar
   112    61    60    1
   113    61    64    1
   114    55    54   ar
   115    66    65   ar
   116    58    56   ar
   117    52    51    2
   118    46    44   ar
   119     6     5    1
   120     6     7    2
   121    69    67   ar
   122    65    67   ar
   123    65    64    1
   124    45    43   ar
   125    38    39    1
   126    51    50    1
   127    44    43   ar
   128    56    54   ar
   129    54    53    1
   130    43    42    1
   131    39    42    1
   132    39    40    1
   133    50    53    1
   134    50    49    1
   135    40    41    2
