@<TRIPOS>MOLECULE
tmp/3dwgA00.pdb
 126 118 0 0 0
SMALL
GASTEIGER

@<TRIPOS>ATOM
      1  N         35.8190    5.8650   21.1400 N.3    52  ILE52      -0.1231
      2  CA        35.4290    5.6220   22.5530 C.3    52  ILE52       0.1692
      3  C         33.9310    5.8450   22.7080 C.2    52  ILE52       0.2591
      4  O         33.3550    5.3750   23.6770 O.2    52  ILE52      -0.2718
      5  CB        36.2190    6.5290   23.5040 C.3    52  ILE52       0.0266
      6  CG1       36.0760    5.9740   24.9670 C.3    52  ILE52       0.0019
      7  CG2       35.7850    7.9880   23.3740 C.3    52  ILE52       0.0020
      8  CD1       37.0060    6.7280   25.9050 C.3    52  ILE52       0.0001
      9  N         33.3210    6.6220   21.8100 N.am   53  LYS53      -0.1980
     10  CA        31.9110    7.0070   22.0220 C.3    53  LYS53       0.1596
     11  C         30.9700    5.8530   21.8750 C.2    53  LYS53       0.2287
     12  O         29.7760    5.9720   22.2330 O.2    53  LYS53      -0.2864
     13  CB        31.5370    8.1470   21.0650 C.3    53  LYS53       0.0298
     14  CG        32.3620    9.3970   21.3410 C.3    53  LYS53       0.0038
     15  CD        32.0630    9.9410   22.8060 C.3    53  LYS53       0.0206
     16  CE        32.1910   11.4390   22.8980 C.3    53  LYS53       0.1093
     17  NZ        33.5350   11.8630   22.3270 N.3    53  LYS53      -0.1314
     18  N         29.6610   16.3820   18.1730 N.3    81  SER81      -0.1217
     19  CA        30.7290   16.8670   17.3180 C.3    81  SER81       0.1889
     20  C         31.2050   15.7780   16.3410 C.2    81  SER81       0.2288
     21  O         32.1930   15.9890   15.5970 O.2    81  SER81      -0.2866
     22  CB        31.8810   17.3390   18.1870 C.3    81  SER81       0.2089
     23  OG        32.4460   16.2670   18.8680 O.3    81  SER81      -0.2183
     24  N         31.6920   11.9740   16.7870 N.3    83  ASN83      -0.1240
     25  CA        31.8650   10.6020   17.2270 C.3    83  ASN83       0.1653
     26  C         30.6200    9.9750   17.8730 C.2    83  ASN83       0.2266
     27  O         30.3250    8.9010   17.6210 O.2    83  ASN83      -0.2867
     28  CB        33.1080   10.4170   18.1090 C.3    83  ASN83       0.1155
     29  CG        34.3630   10.2440   17.2990 C.2    83  ASN83       0.2627
     30  OD1       34.3330    9.7480   16.2480 O.2    83  ASN83      -0.2716
     31  ND2       35.4340   10.6520   17.8300 N.am   83  ASN83      -0.0877
     32  N         26.2550    8.2130   30.2490 N.3   159  ASN159     -0.1240
     33  CA        27.5790    8.4840   29.6560 C.3   159  ASN159      0.1653
     34  C         28.7050    8.1800   30.6740 C.2   159  ASN159      0.2266
     35  O         29.5180    7.2810   30.5040 O.2   159  ASN159     -0.2867
     36  CB        27.5560    9.9310   29.1740 C.3   159  ASN159      0.1155
     37  CG        28.8860   10.3950   28.5910 C.2   159  ASN159      0.2627
     38  OD1       29.8880    9.6840   28.6410 O.2   159  ASN159     -0.2716
     39  ND2       28.8910   11.6300   28.1230 N.am  159  ASN159     -0.0877
     40  N         31.8180    4.5560   31.4670 N.3   163  HIS163     -0.1241
     41  CA        33.2370    4.6470   31.7890 C.3   163  HIS163      0.1621
     42  C         33.4840    4.1260   33.2290 C.2   163  HIS163      0.2264
     43  O         34.5280    3.4450   33.4370 O.2   163  HIS163     -0.2867
     44  CB        33.7340    6.0710   31.6400 C.3   163  HIS163      0.0745
     45  CG        33.6400    6.5540   30.2260 C.ar  163  HIS163      0.0817
     46  ND1       34.4290    6.0180   29.2240 N.ar  163  HIS163     -0.2268
     47  CD2       32.8420    7.4750   29.6570 C.ar  163  HIS163      0.1154
     48  CE1       34.1380    6.6320   28.0770 C.ar  163  HIS163      0.1986
     49  NE2       33.1680    7.5030   28.3020 N.ar  163  HIS163     -0.2212
     50  N         40.8640   13.2140   27.0720 N.3   184  GLY184     -0.1210
     51  CA        40.2890   14.4490   26.5610 C.3   184  GLY184      0.1956
     52  C         39.1280   14.9000   27.4020 C.2   184  GLY184      0.2612
     53  O         38.7350   14.2230   28.3580 O.2   184  GLY184     -0.2717
     54  N         38.5890   16.0330   27.0340 N.am  185  LEU185     -0.1965
     55  CA        37.5420   16.6610   27.8230 C.3   185  LEU185      0.1728
     56  C         36.5540   17.3230   26.8630 C.2   185  LEU185      0.2617
     57  O         36.8660   18.3410   26.2020 O.2   185  LEU185     -0.2715
     58  CB        38.1820   17.7130   28.7620 C.3   185  LEU185      0.0311
     59  CG        37.1650   18.2820   29.7370 C.3   185  LEU185      0.0022
     60  CD1       36.8970   17.3770   30.9530 C.3   185  LEU185      0.0001
     61  CD2       37.7320   19.5770   30.2960 C.3   185  LEU185      0.0001
     62  N         35.4160   16.6560   26.6780 N.am  186  GLY186     -0.1940
     63  CA        34.3530   17.1030   25.7300 C.3   186  GLY186      0.2014
     64  C         33.0320   17.1260   26.4920 C.2   186  GLY186      0.2640
     65  O         32.6910   18.1550   27.0700 O.2   186  GLY186     -0.2714
     66  N         32.3410   15.9900   26.5540 N.am  187  THR187     -0.1936
     67  CA        31.1420   15.8560   27.4010 C.3   187  THR187      0.2028
     68  C         31.5970   15.7740   28.8850 C.2   187  THR187      0.2643
     69  O         30.7770   16.0280   29.7620 O.2   187  THR187     -0.2714
     70  CB        30.3790   14.5810   27.1440 C.3   187  THR187      0.1808
     71  OG1       31.2120   13.4320   27.4290 O.3   187  THR187     -0.2208
     72  CG2       29.9800   14.5310   25.6500 C.3   187  THR187      0.0379
     73  N         32.8840   15.4530   29.0700 N.am  188  THR188     -0.1936
     74  CA        33.4840   15.1280   30.4000 C.3   188  THR188      0.2028
     75  C         33.1760   13.7320   30.8810 C.2   188  THR188      0.2643
     76  O         33.7830   13.3050   31.8900 O.2   188  THR188     -0.2714
     77  CB        33.2220   16.1720   31.5280 C.3   188  THR188      0.1808
     78  OG1       31.9440   15.9580   32.1340 O.3   188  THR188     -0.2208
     79  CG2       33.4110   17.6270   30.9810 C.3   188  THR188      0.0379
     80  N         32.3930   12.9550   30.1340 N.am  189  GLY189     -0.1939
     81  CA        32.1170   11.5760   30.5610 C.3   189  GLY189      0.2014
     82  C         33.3020   10.6800   30.8010 C.2   189  GLY189      0.2639
     83  O         33.3310    9.9320   31.8320 O.2   189  GLY189     -0.2714
     84  N         34.3010   10.7320   29.9460 N.am  190  THR190     -0.1950
     85  CA        35.4270    9.8020   30.0710 C.3   190  THR190      0.1897
     86  C         36.1210   10.1040   31.4080 C.2   190  THR190      0.2313
     87  O         36.4110    9.1660   32.2100 O.2   190  THR190     -0.2863
     88  CB        36.4100    9.9970   28.9290 C.3   190  THR190      0.1794
     89  OG1       35.8020    9.5880   27.6730 O.3   190  THR190     -0.2208
     90  CG2       37.5930    9.1010   29.1310 C.3   190  THR190      0.0378
     91  N         42.8290   14.5750   18.8550 N.3   267  SER267     -0.1217
     92  CA        42.6130   14.7940   20.3460 C.3   267  SER267      0.1889
     93  C         43.6660   13.9430   21.0850 C.2   267  SER267      0.2288
     94  O         44.0100   14.2430   22.2590 O.2   267  SER267     -0.2866
     95  CB        41.1630   14.4050   20.7820 C.3   267  SER267      0.2089
     96  OG        41.0630   12.9800   20.9440 O.3   267  SER267     -0.2183
     97  N         41.3590    8.0740   21.7390 N.3   296  ALA296     -0.1231
     98  CA        39.8680    8.0690   21.6620 C.3   296  ALA296      0.1694
     99  C         39.3920    7.6000   20.2780 C.2   296  ALA296      0.2592
    100  O         38.2340    7.0660   20.1620 O.2   296  ALA296     -0.2718
    101  CB        39.3040    9.4080   21.9180 C.3   296  ALA296      0.0304
    102  N         40.1790    7.8700   19.2420 N.am  297  ASP297     -0.1974
    103  CA        39.8450    7.4410   17.8640 C.3   297  ASP297      0.1709
    104  C         41.1060    7.4260   17.0140 C.2   297  ASP297      0.2293
    105  O         42.1400    7.9180   17.4960 O.2   297  ASP297     -0.2864
    106  CB        38.6890    8.2300   17.2750 C.3   297  ASP297      0.1436
    107  CG        38.9800    9.6640   16.9280 C.2   297  ASP297      0.3671
    108  OD1       40.0580   10.2330   17.2440 O.co2 297  ASP297     -0.2456
    109  OD2       38.0570   10.3560   16.3520 O.co2 297  ASP297     -0.2456
    110  N         40.3850   12.2400   10.1640 N.3   302  TYR302     -0.1241
    111  CA        41.0120   13.5560   10.1520 C.3   302  TYR302      0.1605
    112  C         41.9000   13.7460    8.9370 C.2   302  TYR302      0.2264
    113  O         42.5320   14.7980    8.7990 O.2   302  TYR302     -0.2867
    114  CB        41.8340   13.7720   11.4580 C.3   302  TYR302      0.0534
    115  CG        40.9380   13.5430   12.6610 C.ar  302  TYR302     -0.0201
    116  CD1       40.1540   14.5740   13.1840 C.ar  302  TYR302     -0.0009
    117  CD2       40.8420   12.2850   13.2370 C.ar  302  TYR302     -0.0009
    118  CE1       39.3050   14.3310   14.2670 C.ar  302  TYR302      0.0417
    119  CE2       39.9910   12.0250   14.3180 C.ar  302  TYR302      0.0417
    120  CZ        39.2070   13.0520   14.8150 C.ar  302  TYR302      0.1957
    121  OH        38.3830   12.7850   15.9030 O.3   302  TYR302     -0.2866
    122  N         37.8360   17.3550   17.7270 N.3   325  ALA325     -0.1245
    123  CA        37.4200   16.3800   18.7330 C.3   325  ALA325      0.1562
    124  C         35.9080   16.5450   18.9220 C.2   325  ALA325      0.2260
    125  O         35.2510   15.8490   19.7220 O.2   325  ALA325     -0.2867
    126  CB        38.1290   16.6070   20.0370 C.3   325  ALA325      0.0290
@<TRIPOS>BOND
     1   113   112    2
     2   112   111    1
     3   111   110    1
     4   111   114    1
     5   114   115    1
     6   115   116   ar
     7   115   117   ar
     8   116   118   ar
     9   117   119   ar
    10   118   120   ar
    11   119   120   ar
    12   120   121    1
    13    21    20    2
    14    30    29    2
    15    20    19    1
    16   109   107   ar
    17    24    25    1
    18   107   108   ar
    19   107   106    1
    20   104   105    2
    21   104   103    1
    22    25    26    1
    23    25    28    1
    24   106   103    1
    25    29    31   am
    26    29    28    1
    27    19    18    1
    28    19    22    1
    29    27    26    2
    30   122   123    1
    31   103   102    1
    32    22    23    1
    33   123   124    1
    34   123   126    1
    35    91    92    1
    36   124   125    2
    37   102    99   am
    38   100    99    2
    39    99    98    1
    40    92    95    1
    41    92    93    1
    42    95    96    1
    43    13    14    1
    44    13    10    1
    45    93    94    2
    46     1     2    1
    47    14    15    1
    48    98    97    1
    49    98   101    1
    50     9    10    1
    51     9     3   am
    52    11    10    1
    53    11    12    2
    54    17    16    1
    55     2     3    1
    56     2     5    1
    57     3     4    2
    58    15    16    1
    59     7     5    1
    60     5     6    1
    61     6     8    1
    62    72    70    1
    63    63    64    1
    64    63    62    1
    65    57    56    2
    66    64    66   am
    67    64    65    2
    68    66    67    1
    69    51    50    1
    70    51    52    1
    71    62    56   am
    72    56    55    1
    73    54    52   am
    74    54    55    1
    75    70    67    1
    76    70    71    1
    77    67    68    1
    78    52    53    2
    79    89    88    1
    80    55    58    1
    81    48    49   ar
    82    48    46   ar
    83    39    37   am
    84    49    47   ar
    85    37    38    2
    86    37    36    1
    87    58    59    1
    88    68    73   am
    89    68    69    2
    90    88    90    1
    91    88    85    1
    92    73    74    1
    93    36    33    1
    94    46    45   ar
    95    33    32    1
    96    33    34    1
    97    47    45   ar
    98    59    61    1
    99    59    60    1
   100    84    85    1
   101    84    82   am
   102    85    86    1
   103    80    81    1
   104    80    75   am
   105    45    44    1
   106    74    75    1
   107    74    77    1
   108    35    34    2
   109    81    82    1
   110    82    83    2
   111    75    76    2
   112    79    77    1
   113    86    87    2
   114    40    41    1
   115    77    78    1
   116    44    41    1
   117    41    42    1
   118    42    43    2
