@<TRIPOS>MOLECULE
tmp/3dwlG00.pdb
 161 152 0 0 0
SMALL
GASTEIGER

@<TRIPOS>ATOM
      1  N         43.2990 -105.1230  -71.1000 N.3    11  GLY11      -0.1210
      2  CA        42.1680 -105.3950  -70.2180 C.3    11  GLY11       0.1956
      3  C         42.5360 -105.5770  -68.7590 C.2    11  GLY11       0.2613
      4  O         43.7110 -105.7270  -68.4120 O.2    11  GLY11      -0.2717
      5  N         41.5130 -105.5800  -67.9070 N.am   12  THR12      -0.1938
      6  CA        41.6880 -105.6640  -66.4570 C.3    12  THR12       0.2028
      7  C         42.3300 -106.9820  -66.0450 C.2    12  THR12       0.2643
      8  O         42.9230 -107.0860  -64.9690 O.2    12  THR12      -0.2714
      9  CB        40.3440 -105.5070  -65.7100 C.3    12  THR12       0.1808
     10  OG1       39.4280 -104.7190  -66.4890 O.3    12  THR12      -0.2208
     11  CG2       40.5710 -104.8570  -64.3460 C.3    12  THR12       0.0379
     12  N         42.1990 -107.9820  -66.9110 N.am   13  GLY13      -0.1939
     13  CA        42.7920 -109.2880  -66.6810 C.3    13  GLY13       0.2014
     14  C         43.5250 -109.8250  -67.8930 C.2    13  GLY13       0.2638
     15  O         44.5980 -110.4130  -67.7660 O.2    13  GLY13      -0.2714
     16  N         42.9450 -109.6210  -69.0700 N.am   14  TYR14      -0.1973
     17  CA        43.4650 -110.2030  -70.2960 C.3    14  TYR14       0.1639
     18  C         43.6760 -109.1310  -71.3490 C.2    14  TYR14       0.2290
     19  O         42.8200 -108.2770  -71.5500 O.2    14  TYR14      -0.2864
     20  CB        42.4830 -111.2430  -70.8220 C.3    14  TYR14       0.0560
     21  CG        42.5700 -112.6000  -70.1630 C.ar   14  TYR14      -0.0198
     22  CD1       42.1350 -112.8050  -68.8530 C.ar   14  TYR14      -0.0009
     23  CD2       43.0620 -113.6900  -70.8680 C.ar   14  TYR14      -0.0009
     24  CE1       42.2140 -114.0570  -68.2630 C.ar   14  TYR14       0.0417
     25  CE2       43.1400 -114.9420  -70.2900 C.ar   14  TYR14       0.0417
     26  CZ        42.7180 -115.1200  -68.9920 C.ar   14  TYR14       0.1957
     27  OH        42.8070 -116.3740  -68.4440 O.3    14  TYR14      -0.2866
     28  N         44.2240 -108.0800  -75.2480 N.3    16  LYS16      -0.1245
     29  CA        44.0310 -108.4700  -76.6380 C.3    16  LYS16       0.1561
     30  C         44.8650 -107.5780  -77.5650 C.2    16  LYS16       0.2260
     31  O         44.6450 -106.3660  -77.6220 O.2    16  LYS16      -0.2867
     32  CB        42.5490 -108.3960  -76.9950 C.3    16  LYS16       0.0271
     33  CG        41.6580 -109.1900  -76.0560 C.3    16  LYS16       0.0035
     34  CD        40.3040 -108.5280  -75.8100 C.3    16  LYS16       0.0206
     35  CE        39.5990 -108.9890  -74.5340 C.3    16  LYS16       0.1093
     36  NZ        38.6440 -108.0050  -73.9820 N.3    16  LYS16      -0.1314
     37  N         28.6860 -104.9760  -72.3450 N.3   153  ASP153     -0.1239
     38  CA        29.9160 -105.7610  -72.2130 C.3   153  ASP153      0.1674
     39  C         29.8030 -106.6870  -71.0080 C.2   153  ASP153      0.2266
     40  O         29.5070 -106.2300  -69.8950 O.2   153  ASP153     -0.2867
     41  CB        31.1440 -104.8500  -72.0840 C.3   153  ASP153      0.1410
     42  CG        32.4160 -105.6810  -72.0700 C.2   153  ASP153      0.3668
     43  OD1       32.3590 -106.9060  -72.2950 O.co2 153  ASP153     -0.2456
     44  OD2       33.5040 -105.1040  -71.8610 O.co2 153  ASP153     -0.2456
     45  N         32.2310 -109.6890  -69.5920 N.3   155  GLY155     -0.1210
     46  CA        33.3890 -110.5670  -69.5700 C.3   155  GLY155      0.1956
     47  C         33.3100 -111.5500  -68.4190 C.2   155  GLY155      0.2612
     48  O         32.4190 -112.4080  -68.3780 O.2   155  GLY155     -0.2717
     49  N         34.2470 -111.4230  -67.4850 N.am  156  ASP156     -0.1959
     50  CA        34.2640 -112.2700  -66.3040 C.3   156  ASP156      0.1840
     51  C         34.2780 -111.4250  -65.0270 C.2   156  ASP156      0.2622
     52  O         34.3560 -111.9610  -63.9150 O.2   156  ASP156     -0.2715
     53  CB        35.4570 -113.2370  -66.3540 C.3   156  ASP156      0.1450
     54  CG        35.3690 -114.2740  -67.4080 C.2   156  ASP156      0.3671
     55  OD1       34.2440 -114.5690  -67.9140 O.co2 156  ASP156     -0.2456
     56  OD2       36.4340 -114.9030  -67.7220 O.co2 156  ASP156     -0.2456
     57  N         34.1900 -110.1050  -65.1870 N.am  157  GLY157     -0.1954
     58  CA        34.1680 -109.1990  -64.0410 C.3   157  GLY157      0.1869
     59  C         32.7660 -108.7450  -63.6750 C.2   157  GLY157      0.2309
     60  O         32.0290 -109.4500  -62.9760 O.2   157  GLY157     -0.2863
     61  N         30.7020 -113.8750  -66.4570 N.3   181  GLY181     -0.1210
     62  CA        31.1410 -115.2140  -66.8610 C.3   181  GLY181      0.1956
     63  C         31.6290 -116.0920  -65.7240 C.2   181  GLY181      0.2611
     64  O         31.3950 -117.3040  -65.7200 O.2   181  GLY181     -0.2717
     65  N         32.3100 -115.4770  -64.7600 N.am  182  ARG182     -0.1979
     66  CA        32.7620 -116.1870  -63.5700 C.3   182  ARG182      0.1597
     67  C         31.5620 -116.7660  -62.8280 C.2   182  ARG182      0.2287
     68  O         31.5840 -117.9210  -62.4070 O.2   182  ARG182     -0.2864
     69  CB        33.5720 -115.2640  -62.6620 C.3   182  ARG182      0.0334
     70  CG        34.3660 -115.9950  -61.6010 C.3   182  ARG182      0.0492
     71  CD        35.8540 -115.8300  -61.8440 C.3   182  ARG182      0.2205
     72  NE        36.2020 -114.4630  -62.2220 N.pl3 182  ARG182     -0.0865
     73  CZ        36.0470 -113.4050  -61.4310 C.cat 182  ARG182      0.5346
     74  NH1       35.5410 -113.5480  -60.2110 N.pl3 182  ARG182      0.1354
     75  NH2       36.4000 -112.2010  -61.8590 N.pl3 182  ARG182      0.1354
     76  N         29.9610 -119.7310  -64.5730 N.3   185  THR185     -0.1218
     77  CA        30.9070 -120.8280  -64.4200 C.3   185  THR185      0.1862
     78  C         30.7850 -121.3940  -63.0130 C.2   185  THR185      0.2287
     79  O         30.8910 -122.6030  -62.8050 O.2   185  THR185     -0.2866
     80  CB        32.3330 -120.3710  -64.7030 C.3   185  THR185      0.1770
     81  OG1       32.5410 -119.6590  -65.9070 O.3   185  THR185     -0.2211
     82  CG2       33.2600 -121.5750  -64.6890 C.3   185  THR185      0.0375
     83  N         33.5070 -125.1300  -66.7230 N.3   198  GLU198     -0.1245
     84  CA        33.6270 -123.9380  -67.5600 C.3   198  GLU198      0.1567
     85  C         33.4820 -124.3230  -69.0300 C.2   198  GLU198      0.2260
     86  O         32.9080 -123.5640  -69.8180 O.2   198  GLU198     -0.2867
     87  CB        34.9530 -123.2130  -67.3340 C.3   198  GLU198      0.0388
     88  CG        34.9520 -121.7600  -67.8380 C.3   198  GLU198      0.1160
     89  CD        36.2040 -121.3960  -68.6380 C.2   198  GLU198      0.3649
     90  OE1       36.5640 -122.1640  -69.5650 O.co2 198  GLU198     -0.2457
     91  OE2       36.8160 -120.3370  -68.3510 O.co2 198  GLU198     -0.2457
     92  N         29.8220 -124.9030  -69.6860 N.3   201  LYS201     -0.1231
     93  CA        29.1840 -123.6120  -69.9290 C.3   201  LYS201      0.1693
     94  C         29.3400 -123.1710  -71.3810 C.2   201  LYS201      0.2591
     95  O         28.3920 -122.6650  -71.9910 O.2   201  LYS201     -0.2718
     96  CB        29.7740 -122.5390  -69.0160 C.3   201  LYS201      0.0285
     97  CG        28.9020 -121.2980  -68.8840 C.3   201  LYS201      0.0035
     98  CD        29.6990 -120.0270  -69.1150 C.3   201  LYS201      0.0206
     99  CE        30.8280 -119.8510  -68.1140 C.3   201  LYS201      0.1093
    100  NZ        31.3890 -118.4730  -68.1620 N.3   201  LYS201     -0.1314
    101  N         30.5370 -123.3750  -71.9240 N.am  202  GLU202     -0.1979
    102  CA        30.8860 -122.8480  -73.2370 C.3   202  GLU202      0.1602
    103  C         30.3140 -123.6340  -74.4140 C.2   202  GLU202      0.2287
    104  O         30.0700 -123.0600  -75.4750 O.2   202  GLU202     -0.2864
    105  CB        32.4030 -122.6910  -73.3660 C.3   202  GLU202      0.0415
    106  CG        32.9350 -121.4560  -72.6410 C.3   202  GLU202      0.1163
    107  CD        34.4450 -121.4770  -72.4010 C.2   202  GLU202      0.3649
    108  OE1       35.1810 -122.2070  -73.1140 O.co2 202  GLU202     -0.2457
    109  OE2       34.8950 -120.7440  -71.4890 O.co2 202  GLU202     -0.2457
    110  N         31.6190 -108.9720  -75.2700 N.3   280  GLY280     -0.1210
    111  CA        32.2240 -109.8320  -74.2520 C.3   280  GLY280      0.1956
    112  C         31.8570 -111.2940  -74.3940 C.2   280  GLY280      0.2612
    113  O         30.8450 -111.6440  -75.0080 O.2   280  GLY280     -0.2717
    114  N         32.6810 -112.1520  -73.8090 N.am  281  GLY281     -0.1942
    115  CA        32.5020 -113.5930  -73.9380 C.3   281  GLY281      0.2014
    116  C         31.2130 -114.1480  -73.3600 C.2   281  GLY281      0.2639
    117  O         30.6840 -115.1450  -73.8630 O.2   281  GLY281     -0.2714
    118  N         30.7030 -113.5100  -72.3070 N.am  282  SER282     -0.1949
    119  CA        29.5370 -114.0410  -71.6110 C.3   282  SER282      0.1924
    120  C         28.2060 -113.6090  -72.2360 C.2   282  SER282      0.2314
    121  O         27.1410 -114.0720  -71.8240 O.2   282  SER282     -0.2863
    122  CB        29.5930 -113.7190  -70.1220 C.3   282  SER282      0.2116
    123  OG        29.1050 -114.8210  -69.3800 O.3   282  SER282     -0.2180
    124  N         28.1380 -114.1560  -75.4320 N.3   284  LEU284     -0.1231
    125  CA        28.2550 -115.0800  -76.5520 C.3   284  LEU284      0.1693
    126  C         27.1670 -116.1620  -76.5830 C.2   284  LEU284      0.2592
    127  O         26.9180 -116.7610  -77.6390 O.2   284  LEU284     -0.2718
    128  CB        29.6410 -115.7220  -76.5830 C.3   284  LEU284      0.0284
    129  CG        30.6620 -115.1570  -77.5650 C.3   284  LEU284      0.0019
    130  CD1       31.9300 -115.9720  -77.4650 C.3   284  LEU284      0.0001
    131  CD2       30.1370 -115.1960  -78.9960 C.3   284  LEU284      0.0001
    132  N         26.5250 -116.4050  -75.4370 N.am  285  PHE285     -0.1976
    133  CA        25.4700 -117.4160  -75.3160 C.3   285  PHE285      0.1639
    134  C         24.4650 -117.3850  -76.4610 C.2   285  PHE285      0.2290
    135  O         24.1170 -116.3120  -76.9650 O.2   285  PHE285     -0.2864
    136  CB        24.7180 -117.2350  -74.0040 C.3   285  PHE285      0.0560
    137  CG        25.4230 -117.7990  -72.8140 C.ar  285  PHE285     -0.0200
    138  CD1       25.6580 -119.1660  -72.7110 C.ar  285  PHE285     -0.0042
    139  CD2       25.8250 -116.9700  -71.7780 C.ar  285  PHE285     -0.0042
    140  CE1       26.3070 -119.6960  -71.6000 C.ar  285  PHE285     -0.0003
    141  CE2       26.4700 -117.4880  -70.6610 C.ar  285  PHE285     -0.0003
    142  CZ        26.7100 -118.8550  -70.5710 C.ar  285  PHE285     -0.0000
    143  N         32.9140 -111.5310  -79.0200 N.3   316  ARG316     -0.1231
    144  CA        33.7810 -111.7480  -77.8530 C.3   316  ARG316      0.1694
    145  C         34.9260 -110.7560  -77.7590 C.2   316  ARG316      0.2592
    146  O         35.3200 -110.3590  -76.6600 O.2   316  ARG316     -0.2718
    147  CB        34.3120 -113.1740  -77.8330 C.3   316  ARG316      0.0321
    148  CG        34.8300 -113.6540  -76.4890 C.3   316  ARG316      0.0489
    149  CD        35.2900 -115.1180  -76.5800 C.3   316  ARG316      0.2205
    150  NE        36.1020 -115.2700  -77.8120 N.pl3 316  ARG316     -0.0865
    151  CZ        37.3570 -115.7320  -77.8290 C.cat 316  ARG316      0.5346
    152  NH1       37.9120 -116.1570  -76.6810 N.pl3 316  ARG316      0.1354
    153  NH2       38.0370 -115.7790  -78.9820 N.pl3 316  ARG316      0.1354
    154  N         35.4520 -110.3590  -78.9140 N.am  317  ASN317     -0.1974
    155  CA        36.5350 -109.3880  -78.9770 C.3   317  ASN317      0.1688
    156  C         36.1210 -108.1270  -79.7350 C.2   317  ASN317      0.2292
    157  O         36.8640 -107.6170  -80.5750 O.2   317  ASN317     -0.2864
    158  CB        37.7750 -110.0290  -79.6060 C.3   317  ASN317      0.1181
    159  CG        38.4250 -111.0670  -78.7000 C.2   317  ASN317      0.2629
    160  OD1       38.6090 -110.8460  -77.4970 O.2   317  ASN317     -0.2716
    161  ND2       38.7910 -112.2060  -79.2830 N.am  317  ASN317     -0.0877
@<TRIPOS>BOND
     1   157   156    2
     2   156   155    1
     3   158   155    1
     4   158   159    1
     5   161   159   am
     6   143   144    1
     7   131   129    1
     8   153   151    1
     9   155   154    1
    10   154   145   am
    11   159   160    2
    12   144   147    1
    13   144   145    1
    14   147   148    1
    15   151   150    2
    16   151   152    1
    17   150   149    1
    18   145   146    2
    19   127   126    2
    20    31    30    2
    21    30    29    1
    22   129   130    1
    23   129   128    1
    24    32    29    1
    25    32    33    1
    26   135   134    2
    27    29    28    1
    28   128   125    1
    29   126   125    1
    30   126   132   am
    31   149   148    1
    32   125   124    1
    33   134   133    1
    34    33    34    1
    35    34    35    1
    36   104   103    2
    37   132   133    1
    38   133   136    1
    39   110   111    1
    40   113   112    2
    41    35    36    1
    42   103   102    1
    43   112   111    1
    44   112   114   am
    45   136   137    1
    46   115   114    1
    47   115   116    1
    48   117   116    2
    49   105   102    1
    50   105   106    1
    51   116   118   am
    52   102   101    1
    53   108   107   ar
    54   137   138   ar
    55   137   139   ar
    56   138   140   ar
    57   106   107    1
    58   107   109   ar
    59    37    38    1
    60   118   119    1
    61    43    42   ar
    62   120   121    2
    63   120   119    1
    64    38    41    1
    65    38    39    1
    66    41    42    1
    67    42    44   ar
    68    95    94    2
    69   101    94   am
    70   139   141   ar
    71   119   122    1
    72   140   142   ar
    73    19    18    2
    74    94    93    1
    75    18    17    1
    76     1     2    1
    77    39    40    2
    78    23    25   ar
    79    23    21   ar
    80    20    17    1
    81    20    21    1
    82   141   142   ar
    83    17    16    1
    84    25    26   ar
    85     2     3    1
    86    21    22   ar
    87   122   123    1
    88    93    92    1
    89    93    96    1
    90    86    85    2
    91    45    46    1
    92    46    47    1
    93    90    89   ar
    94    98    97    1
    95    98    99    1
    96    16    14   am
    97    85    84    1
    98    96    97    1
    99    26    27    1
   100    26    24   ar
   101    22    24   ar
   102     3     4    2
   103     3     5   am
   104    89    91   ar
   105    89    88    1
   106    47    48    2
   107    47    49   am
   108   100    99    1
   109    55    54   ar
   110     5     6    1
   111    14    15    2
   112    14    13    1
   113    88    87    1
   114    56    54   ar
   115    84    87    1
   116    84    83    1
   117    49    50    1
   118    54    53    1
   119    12    13    1
   120    12     7   am
   121    62    61    1
   122    62    63    1
   123    10     9    1
   124     6     7    1
   125     6     9    1
   126    53    50    1
   127    50    51    1
   128     7     8    2
   129    81    80    1
   130    63    64    2
   131    63    65   am
   132     9    11    1
   133    57    51   am
   134    57    58    1
   135    51    52    2
   136    65    66    1
   137    80    82    1
   138    80    77    1
   139    76    77    1
   140    77    78    1
   141    58    59    1
   142    59    60    2
   143    66    67    1
   144    66    69    1
   145    78    79    2
   146    67    68    2
   147    69    70    1
   148    72    71    1
   149    72    73    2
   150    75    73    1
   151    71    70    1
   152    73    74    1
