@<TRIPOS>MOLECULE
tmp/3dwnB01.pdb
 226 213 0 0 0
SMALL
GASTEIGER

@<TRIPOS>ATOM
      1  N        -34.6940   -9.2520  -18.6860 N.3     3  PHE3       -0.1241
      2  CA       -34.4250   -9.5730  -20.0810 C.3     3  PHE3        0.1605
      3  C        -35.1680   -8.6470  -21.0480 C.2     3  PHE3        0.2264
      4  O        -35.5620   -9.0450  -22.1480 O.2     3  PHE3       -0.2867
      5  CB       -34.7310  -11.0440  -20.3970 C.3     3  PHE3        0.0534
      6  CG       -36.0120  -11.5490  -19.8170 C.ar    3  PHE3       -0.0203
      7  CD1      -36.0430  -12.0880  -18.5330 C.ar    3  PHE3       -0.0042
      8  CD2      -37.1810  -11.5470  -20.5720 C.ar    3  PHE3       -0.0042
      9  CE1      -37.2170  -12.6280  -18.0060 C.ar    3  PHE3       -0.0003
     10  CE2      -38.3610  -12.0840  -20.0560 C.ar    3  PHE3       -0.0003
     11  CZ       -38.3740  -12.6290  -18.7630 C.ar    3  PHE3       -0.0000
     12  N        -33.1850  -12.8500  -24.4450 N.3   104  LEU104     -0.1245
     13  CA       -32.1490  -13.3350  -23.5610 C.3   104  LEU104      0.1561
     14  C        -31.3950  -14.5030  -24.1590 C.2   104  LEU104      0.2260
     15  O        -31.9760  -15.3690  -24.8060 O.2   104  LEU104     -0.2867
     16  CB       -32.7570  -13.7600  -22.2290 C.3   104  LEU104      0.0270
     17  CG       -31.7700  -14.4690  -21.3030 C.3   104  LEU104      0.0019
     18  CD1      -30.6620  -13.4980  -20.9420 C.3   104  LEU104      0.0001
     19  CD2      -32.4830  -14.9900  -20.0530 C.3   104  LEU104      0.0001
     20  N        -29.9490  -20.8890  -22.5500 N.3   121  THR121     -0.1203
     21  CA       -31.1810  -20.1590  -22.2920 C.3   121  THR121      0.1994
     22  C        -31.4160  -19.1470  -23.3940 C.2   121  THR121      0.2618
     23  O        -30.7580  -18.1070  -23.4390 O.2   121  THR121     -0.2717
     24  CB       -31.1350  -19.4020  -20.9740 C.3   121  THR121      0.1784
     25  OG1      -30.9020  -20.3110  -19.9040 O.3   121  THR121     -0.2211
     26  CG2      -32.4410  -18.7140  -20.7450 C.3   121  THR121      0.0376
     27  N        -32.3620  -19.4460  -24.2730 N.am  122  ASP122     -0.1959
     28  CA       -32.6550  -18.5570  -25.3830 C.3   122  ASP122      0.1840
     29  C        -34.0940  -18.0720  -25.4180 C.2   122  ASP122      0.2621
     30  O        -35.0330  -18.8640  -25.4350 O.2   122  ASP122     -0.2715
     31  CB       -32.3680  -19.2480  -26.7210 C.3   122  ASP122      0.1450
     32  CG       -30.9010  -19.5470  -26.9380 C.2   122  ASP122      0.3671
     33  OD1      -30.5650  -19.9870  -28.0530 O.co2 122  ASP122     -0.2456
     34  OD2      -30.0810  -19.3580  -26.0180 O.co2 122  ASP122     -0.2456
     35  N        -34.2610  -16.7590  -25.4180 N.am  123  LEU123     -0.1977
     36  CA       -35.5840  -16.1750  -25.5330 C.3   123  LEU123      0.1596
     37  C        -35.4600  -15.1190  -26.6170 C.2   123  LEU123      0.2287
     38  O        -34.7230  -14.1410  -26.4670 O.2   123  LEU123     -0.2864
     39  CB       -36.0490  -15.5240  -24.2320 C.3   123  LEU123      0.0297
     40  CG       -37.3800  -14.7790  -24.3990 C.3   123  LEU123      0.0022
     41  CD1      -38.4780  -15.7700  -24.7810 C.3   123  LEU123      0.0001
     42  CD2      -37.7470  -14.0620  -23.1160 C.3   123  LEU123      0.0001
     43  N        -38.4770  -19.7520  -27.6470 N.3   153  ALA153     -0.1245
     44  CA       -37.6860  -19.9550  -26.4490 C.3   153  ALA153      0.1562
     45  C        -37.1000  -21.3540  -26.4160 C.2   153  ALA153      0.2260
     46  O        -37.6580  -22.2860  -26.9980 O.2   153  ALA153     -0.2867
     47  CB       -38.5480  -19.7190  -25.2230 C.3   153  ALA153      0.0290
     48  N        -34.7190  -23.8820  -23.5560 N.3   155  ILE155     -0.1245
     49  CA       -33.9800  -24.0820  -22.3190 C.3   155  ILE155      0.1561
     50  C        -33.3590  -25.4770  -22.2510 C.2   155  ILE155      0.2260
     51  O        -34.0280  -26.4910  -22.4650 O.2   155  ILE155     -0.2867
     52  CB       -34.8930  -23.8940  -21.0820 C.3   155  ILE155      0.0252
     53  CG1      -35.3290  -22.4300  -20.9590 C.3   155  ILE155      0.0019
     54  CG2      -34.1490  -24.3050  -19.8240 C.3   155  ILE155      0.0019
     55  CD1      -36.2890  -22.1650  -19.8000 C.3   155  ILE155      0.0001
     56  N        -30.4770  -27.7460  -19.8190 N.3   157  ARG157     -0.1245
     57  CA       -29.6510  -27.8690  -18.6310 C.3   157  ARG157      0.1563
     58  C        -28.9530  -29.2130  -18.6840 C.2   157  ARG157      0.2260
     59  O        -29.4620  -30.1640  -19.2680 O.2   157  ARG157     -0.2867
     60  CB       -30.5170  -27.7930  -17.3780 C.3   157  ARG157      0.0307
     61  CG       -31.1990  -26.4570  -17.1570 C.3   157  ARG157      0.0489
     62  CD       -30.1960  -25.3350  -16.9130 C.3   157  ARG157      0.2205
     63  NE       -30.3560  -24.3150  -17.9390 N.pl3 157  ARG157     -0.0865
     64  CZ       -31.0180  -23.1820  -17.7670 C.cat 157  ARG157      0.5346
     65  NH1      -31.5750  -22.8970  -16.6040 N.pl3 157  ARG157      0.1354
     66  NH2      -31.1450  -22.3560  -18.7770 N.pl3 157  ARG157      0.1354
     67  N        -36.6900  -27.7710  -22.7980 N.3   200  LEU200     -0.1231
     68  CA       -37.9690  -27.1210  -22.9350 C.3   200  LEU200      0.1693
     69  C        -37.8200  -26.2240  -24.1460 C.2   200  LEU200      0.2592
     70  O        -36.9110  -25.3980  -24.1930 O.2   200  LEU200     -0.2718
     71  CB       -38.2960  -26.2510  -21.7080 C.3   200  LEU200      0.0284
     72  CG       -38.4430  -26.8620  -20.3050 C.3   200  LEU200      0.0019
     73  CD1      -37.0730  -27.1030  -19.7010 C.3   200  LEU200      0.0001
     74  CD2      -39.2210  -25.9100  -19.4070 C.3   200  LEU200      0.0001
     75  N        -38.6740  -26.3960  -25.1470 N.am  201  ASN201     -0.1960
     76  CA       -38.6000  -25.5100  -26.2910 C.3   201  ASN201      0.1819
     77  C        -40.0130  -25.2540  -26.7990 C.2   201  ASN201      0.2621
     78  O        -40.9110  -26.0700  -26.5910 O.2   201  ASN201     -0.2715
     79  CB       -37.6790  -26.0780  -27.3910 C.3   201  ASN201      0.1195
     80  CG       -38.3940  -27.0100  -28.3520 C.2   201  ASN201      0.2630
     81  OD1      -38.5060  -28.2190  -28.1140 O.2   201  ASN201     -0.2716
     82  ND2      -38.8860  -26.4450  -29.4550 N.am  201  ASN201     -0.0877
     83  N        -40.2140  -24.0990  -27.4220 N.am  202  GLY202     -0.1954
     84  CA       -41.5240  -23.7660  -27.9420 C.3   202  GLY202      0.1869
     85  C        -41.5890  -22.4170  -28.6360 C.2   202  GLY202      0.2309
     86  O        -40.7100  -21.5700  -28.4670 O.2   202  GLY202     -0.2863
     87  N        -46.9570  -20.7550  -23.9470 N.3   235  PHE235     -0.1241
     88  CA       -46.2600  -21.7630  -24.7330 C.3   235  PHE235      0.1605
     89  C        -46.8710  -23.1470  -24.5500 C.2   235  PHE235      0.2264
     90  O        -47.3770  -23.4830  -23.4840 O.2   235  PHE235     -0.2867
     91  CB       -44.7810  -21.8550  -24.3220 C.3   235  PHE235      0.0534
     92  CG       -43.9440  -20.6670  -24.7210 C.ar  235  PHE235     -0.0203
     93  CD1      -43.5540  -19.7220  -23.7710 C.ar  235  PHE235     -0.0042
     94  CD2      -43.4980  -20.5220  -26.0400 C.ar  235  PHE235     -0.0042
     95  CE1      -42.7250  -18.6490  -24.1230 C.ar  235  PHE235     -0.0003
     96  CE2      -42.6710  -19.4540  -26.4110 C.ar  235  PHE235     -0.0003
     97  CZ       -42.2820  -18.5150  -25.4490 C.ar  235  PHE235     -0.0000
     98  N        -45.1830  -26.5580  -25.7630 N.3   237  GLY237     -0.1210
     99  CA       -44.1170  -27.2010  -26.5040 C.3   237  GLY237      0.1956
    100  C        -43.6360  -28.5620  -26.0480 C.2   237  GLY237      0.2612
    101  O        -44.4130  -29.4000  -25.5930 O.2   237  GLY237     -0.2717
    102  N        -42.3290  -28.7730  -26.1760 N.am  238  ASN238     -0.1960
    103  CA       -41.7220  -30.0350  -25.8080 C.3   238  ASN238      0.1819
    104  C        -40.8470  -29.9810  -24.5870 C.2   238  ASN238      0.2621
    105  O        -40.1130  -29.0200  -24.3680 O.2   238  ASN238     -0.2715
    106  CB       -40.8750  -30.5740  -26.9510 C.3   238  ASN238      0.1195
    107  CG       -41.6230  -30.6180  -28.2540 C.2   238  ASN238      0.2630
    108  OD1      -42.7930  -31.0200  -28.3090 O.2   238  ASN238     -0.2716
    109  ND2      -40.9490  -30.2150  -29.3240 N.am  238  ASN238     -0.0877
    110  N        -40.9310  -31.0500  -23.8030 N.am  239  TYR239     -0.1974
    111  CA       -40.1300  -31.2020  -22.6020 C.3   239  TYR239      0.1639
    112  C        -39.5410  -32.6010  -22.5950 C.2   239  TYR239      0.2290
    113  O        -40.1640  -33.5520  -23.0660 O.2   239  TYR239     -0.2864
    114  CB       -40.9590  -31.0240  -21.3290 C.3   239  TYR239      0.0560
    115  CG       -40.1450  -31.3400  -20.0970 C.ar  239  TYR239     -0.0198
    116  CD1      -39.2410  -30.4140  -19.5800 C.ar  239  TYR239     -0.0009
    117  CD2      -40.1850  -32.6120  -19.5200 C.ar  239  TYR239     -0.0009
    118  CE1      -38.3940  -30.7480  -18.5310 C.ar  239  TYR239      0.0417
    119  CE2      -39.3390  -32.9580  -18.4730 C.ar  239  TYR239      0.0417
    120  CZ       -38.4420  -32.0240  -17.9860 C.ar  239  TYR239      0.1957
    121  OH       -37.5610  -32.3810  -16.9890 O.3   239  TYR239     -0.2866
    122  N        -45.5740  -29.8720  -22.9270 N.3   265  GLY265     -0.1210
    123  CA       -45.4150  -29.0740  -21.7330 C.3   265  GLY265      0.1956
    124  C        -46.0570  -27.7180  -21.8990 C.2   265  GLY265      0.2612
    125  O        -46.0950  -27.1610  -22.9950 O.2   265  GLY265     -0.2717
    126  N        -46.5820  -27.1880  -20.8070 N.am  266  TYR266     -0.1962
    127  CA       -47.2070  -25.8840  -20.8480 C.3   266  TYR266      0.1771
    128  C        -46.4390  -24.9560  -19.9430 C.2   266  TYR266      0.2619
    129  O        -46.0130  -25.3440  -18.8570 O.2   266  TYR266     -0.2715
    130  CB       -48.6720  -25.9640  -20.4030 C.3   266  TYR266      0.0574
    131  CG       -49.4990  -26.8230  -21.3160 C.ar  266  TYR266     -0.0198
    132  CD1      -49.5290  -28.2140  -21.1630 C.ar  266  TYR266     -0.0009
    133  CD2      -50.2090  -26.2580  -22.3720 C.ar  266  TYR266     -0.0009
    134  CE1      -50.2500  -29.0210  -22.0510 C.ar  266  TYR266      0.0417
    135  CE2      -50.9270  -27.0470  -23.2600 C.ar  266  TYR266      0.0417
    136  CZ       -50.9430  -28.4270  -23.0990 C.ar  266  TYR266      0.1957
    137  OH       -51.6190  -29.2070  -24.0110 O.3   266  TYR266     -0.2866
    138  N        -46.2470  -23.7320  -20.4070 N.am  267  LEU267     -0.1977
    139  CA       -45.5370  -22.7420  -19.6300 C.3   267  LEU267      0.1596
    140  C        -46.0100  -21.3690  -20.0480 C.2   267  LEU267      0.2287
    141  O        -46.1380  -21.0760  -21.2400 O.2   267  LEU267     -0.2864
    142  CB       -44.0190  -22.8670  -19.8440 C.3   267  LEU267      0.0297
    143  CG       -43.1590  -21.9170  -18.9900 C.3   267  LEU267      0.0022
    144  CD1      -41.8960  -22.6260  -18.5810 C.3   267  LEU267      0.0001
    145  CD2      -42.8570  -20.6250  -19.7440 C.3   267  LEU267      0.0001
    146  N        -45.2610  -17.3680  -19.9930 N.3   269  LEU269     -0.1245
    147  CA       -44.1860  -16.3990  -19.8090 C.3   269  LEU269      0.1561
    148  C        -44.7620  -14.9980  -19.7200 C.2   269  LEU269      0.2260
    149  O        -45.4270  -14.5350  -20.6430 O.2   269  LEU269     -0.2867
    150  CB       -43.1980  -16.4890  -20.9760 C.3   269  LEU269      0.0270
    151  CG       -42.1110  -15.4250  -21.1270 C.3   269  LEU269      0.0019
    152  CD1      -41.3360  -15.2830  -19.8460 C.3   269  LEU269      0.0001
    153  CD2      -41.1850  -15.8110  -22.2710 C.3   269  LEU269      0.0001
    154  N        -43.1410  -11.2400  -13.1120 N.3   301  PHE301     -0.1241
    155  CA       -42.3470  -12.4010  -13.5060 C.3   301  PHE301      0.1605
    156  C        -41.9980  -13.1000  -12.1930 C.2   301  PHE301      0.2264
    157  O        -40.9910  -12.7990  -11.5460 O.2   301  PHE301     -0.2867
    158  CB       -41.0860  -11.9510  -14.2610 C.3   301  PHE301      0.0534
    159  CG       -40.2460  -13.0860  -14.8030 C.ar  301  PHE301     -0.0203
    160  CD1      -40.8020  -14.0450  -15.6490 C.ar  301  PHE301     -0.0042
    161  CD2      -38.8890  -13.1830  -14.4730 C.ar  301  PHE301     -0.0042
    162  CE1      -40.0270  -15.0870  -16.1620 C.ar  301  PHE301     -0.0003
    163  CE2      -38.0950  -14.2130  -14.9730 C.ar  301  PHE301     -0.0003
    164  CZ       -38.6610  -15.1740  -15.8230 C.ar  301  PHE301     -0.0000
    165  N        -40.9310  -19.6520  -13.6210 N.3   304  LEU304     -0.1245
    166  CA       -40.9460  -20.3390  -14.8920 C.3   304  LEU304      0.1561
    167  C        -41.3730  -21.7300  -14.4840 C.2   304  LEU304      0.2260
    168  O        -40.6420  -22.4310  -13.7750 O.2   304  LEU304     -0.2867
    169  CB       -39.5530  -20.3700  -15.5060 C.3   304  LEU304      0.0270
    170  CG       -39.2100  -19.0440  -16.1710 C.3   304  LEU304      0.0019
    171  CD1      -37.8520  -18.6180  -15.7370 C.3   304  LEU304      0.0001
    172  CD2      -39.2840  -19.1660  -17.6750 C.3   304  LEU304      0.0001
    173  N        -43.1410  -25.2790  -16.1080 N.3   306  ALA306     -0.1245
    174  CA       -43.6390  -26.0770  -17.2220 C.3   306  ALA306      0.1562
    175  C        -44.4640  -27.2320  -16.6430 C.2   306  ALA306      0.2260
    176  O        -44.0340  -27.9230  -15.7140 O.2   306  ALA306     -0.2867
    177  CB       -42.4770  -26.6060  -18.0490 C.3   306  ALA306      0.0290
    178  N        -40.9490  -28.9870  -14.6800 N.3   315  PHE315     -0.1241
    179  CA       -39.8130  -28.1010  -14.5050 C.3   315  PHE315      0.1605
    180  C        -40.3060  -26.8190  -13.8520 C.2   315  PHE315      0.2264
    181  O        -41.3080  -26.2490  -14.2840 O.2   315  PHE315     -0.2867
    182  CB       -39.2140  -27.7910  -15.8780 C.3   315  PHE315      0.0534
    183  CG       -38.0410  -26.8750  -15.8390 C.ar  315  PHE315     -0.0203
    184  CD1      -36.7560  -27.3800  -15.7620 C.ar  315  PHE315     -0.0042
    185  CD2      -38.2200  -25.4950  -15.8640 C.ar  315  PHE315     -0.0042
    186  CE1      -35.6550  -26.5270  -15.7100 C.ar  315  PHE315     -0.0003
    187  CE2      -37.1270  -24.6300  -15.8120 C.ar  315  PHE315     -0.0003
    188  CZ       -35.8410  -25.1500  -15.7350 C.ar  315  PHE315     -0.0000
    189  N        -38.8200  -23.0630  -11.7540 N.3   317  LYS317     -0.1245
    190  CA       -37.7010  -22.2470  -11.3150 C.3   317  LYS317      0.1561
    191  C        -38.2330  -20.9620  -10.7160 C.2   317  LYS317      0.2260
    192  O        -38.8210  -20.1490  -11.4160 O.2   317  LYS317     -0.2867
    193  CB       -36.8040  -21.9110  -12.5050 C.3   317  LYS317      0.0271
    194  CG       -35.3200  -21.7640  -12.1770 C.3   317  LYS317      0.0035
    195  CD       -35.0360  -20.9130  -10.9550 C.3   317  LYS317      0.0206
    196  CE       -33.5430  -20.9820  -10.6440 C.3   317  LYS317      0.1093
    197  NZ       -33.1560  -20.3310   -9.3630 N.3   317  LYS317     -0.1314
    198  N        -38.2900  -17.2890   -9.7240 N.3   319  GLU319     -0.1245
    199  CA       -37.5680  -16.1020  -10.1820 C.3   319  GLU319      0.1567
    200  C        -37.8260  -14.9390   -9.2090 C.2   319  GLU319      0.2260
    201  O        -36.9020  -14.2230   -8.8160 O.2   319  GLU319     -0.2867
    202  CB       -38.0030  -15.7210  -11.6050 C.3   319  GLU319      0.0388
    203  CG       -37.6070  -16.7370  -12.6870 C.3   319  GLU319      0.1160
    204  CD       -36.0980  -16.8410  -12.8770 C.2   319  GLU319      0.3649
    205  OE1      -35.6480  -17.7120  -13.6540 O.co2 319  GLU319     -0.2457
    206  OE2      -35.3560  -16.0490  -12.2530 O.co2 319  GLU319     -0.2457
    207  N        -29.3570  -15.9470  -10.5270 N.3   358  SER358     -0.1217
    208  CA       -29.0390  -17.2340  -11.1300 C.3   358  SER358      0.1889
    209  C        -28.0840  -16.9390  -12.2850 C.2   358  SER358      0.2288
    210  O        -28.1490  -15.8690  -12.8940 O.2   358  SER358     -0.2866
    211  CB       -30.3070  -17.9160  -11.6400 C.3   358  SER358      0.2089
    212  OG       -30.8870  -17.1970  -12.7160 O.3   358  SER358     -0.2183
    213  N        -28.1720  -18.1560  -14.9830 N.3   360  SER360     -0.1202
    214  CA       -29.0150  -18.2710  -16.1700 C.3   360  SER360      0.2020
    215  C        -29.4090  -16.8910  -16.7320 C.2   360  SER360      0.2618
    216  O        -29.5640  -16.7140  -17.9470 O.2   360  SER360     -0.2717
    217  CB       -30.2720  -19.0590  -15.7990 C.3   360  SER360      0.2103
    218  OG       -30.7010  -19.8400  -16.8890 O.3   360  SER360     -0.2182
    219  N        -29.5900  -15.9290  -15.8310 N.am  361  ILE361     -0.1979
    220  CA       -29.9380  -14.5640  -16.1970 C.3   361  ILE361      0.1595
    221  C        -28.9160  -13.6910  -15.4770 C.2   361  ILE361      0.2287
    222  O        -29.2000  -13.1070  -14.4360 O.2   361  ILE361     -0.2864
    223  CB       -31.3480  -14.1920  -15.7180 C.3   361  ILE361      0.0276
    224  CG1      -32.3090  -15.3430  -16.0060 C.3   361  ILE361      0.0022
    225  CG2      -31.8140  -12.9350  -16.4350 C.3   361  ILE361      0.0022
    226  CD1      -33.7160  -15.1050  -15.5310 C.3   361  ILE361      0.0001
@<TRIPOS>BOND
     1    82    80   am
     2   109   107   am
     3    85    86    2
     4    85    84    1
     5    80    81    2
     6    80    79    1
     7   108   107    2
     8   107   106    1
     9    33    32   ar
    10    84    83    1
    11    43    44    1
    12    83    77   am
    13    79    76    1
    14    46    45    2
    15   106   103    1
    16    32    31    1
    17    32    34   ar
    18    77    78    2
    19    77    76    1
    20    31    28    1
    21    37    38    2
    22    37    36    1
    23    99   100    1
    24    99    98    1
    25    44    45    1
    26    44    47    1
    27    96    94   ar
    28    96    97   ar
    29    76    75    1
    30   102   100   am
    31   102   103    1
    32   100   101    2
    33    94    92   ar
    34   103   104    1
    35    36    35    1
    36    36    39    1
    37    97    95   ar
    38    30    29    2
    39    29    35   am
    40    29    28    1
    41    28    27    1
    42    75    69   am
    43    15    14    2
    44    41    40    1
    45    88    89    1
    46    88    91    1
    47    88    87    1
    48    92    91    1
    49    92    93   ar
    50   104   105    2
    51   104   110   am
    52    89    90    2
    53    12    13    1
    54    40    39    1
    55    40    42    1
    56    27    22   am
    57    70    69    2
    58    14    13    1
    59    69    68    1
    60    95    93   ar
    61   137   136    1
    62   110   111    1
    63    13    16    1
    64    48    49    1
    65    23    22    2
    66    22    21    1
    67   135   136   ar
    68   135   133   ar
    69   136   134   ar
    70   113   112    2
    71   125   124    2
    72    68    67    1
    73    68    71    1
    74   122   123    1
    75   111   112    1
    76   111   114    1
    77    20    21    1
    78    51    50    2
    79   133   131   ar
    80    49    50    1
    81    49    52    1
    82    21    24    1
    83   153   151    1
    84    16    17    1
    85     4     3    2
    86   134   132   ar
    87   124   123    1
    88   124   126   am
    89    71    72    1
    90   114   115    1
    91   131   132   ar
    92   131   130    1
    93    17    18    1
    94    17    19    1
    95   141   140    2
    96   151   150    1
    97   151   152    1
    98    52    53    1
    99    52    54    1
   100     3     2    1
   101   150   147    1
   102    24    26    1
   103    24    25    1
   104    53    55    1
   105   127   126    1
   106   127   130    1
   107   127   128    1
   108   149   148    2
   109     8    10   ar
   110     8     6   ar
   111   138   128   am
   112   138   139    1
   113     5     2    1
   114     5     6    1
   115    72    73    1
   116    72    74    1
   117   115   116   ar
   118   115   117   ar
   119     2     1    1
   120    10    11   ar
   121   140   139    1
   122   146   147    1
   123   128   129    2
   124   142   139    1
   125   142   143    1
   126    56    57    1
   127     6     7   ar
   128   147   148    1
   129   145   143    1
   130   116   118   ar
   131   117   119   ar
   132    59    58    2
   133   143   144    1
   134    66    64    1
   135    11     9   ar
   136    58    57    1
   137    57    60    1
   138     7     9   ar
   139   118   120   ar
   140   119   120   ar
   141   177   174    1
   142   120   121    1
   143   216   215    2
   144    63    64    2
   145    63    62    1
   146    64    65    1
   147   172   170    1
   148    60    61    1
   149   174   175    1
   150   174   173    1
   151    61    62    1
   152   218   217    1
   153   215   214    1
   154   215   219   am
   155   175   176    2
   156   225   223    1
   157   220   219    1
   158   220   223    1
   159   220   221    1
   160   170   171    1
   161   170   169    1
   162   214   217    1
   163   214   213    1
   164   162   164   ar
   165   162   160   ar
   166   224   223    1
   167   224   226    1
   168   182   183    1
   169   182   179    1
   170   185   183   ar
   171   185   187   ar
   172   183   184   ar
   173   164   163   ar
   174   187   188   ar
   175   184   186   ar
   176   188   186   ar
   177   160   159   ar
   178   169   166    1
   179   221   222    2
   180   163   161   ar
   181   166   167    1
   182   166   165    1
   183   159   161   ar
   184   159   158    1
   185   178   179    1
   186   179   180    1
   187   167   168    2
   188   181   180    2
   189   158   155    1
   190   205   204   ar
   191   155   154    1
   192   155   156    1
   193   210   209    2
   194   204   203    1
   195   204   206   ar
   196   212   211    1
   197   203   202    1
   198   193   194    1
   199   193   190    1
   200   209   208    1
   201   156   157    2
   202   194   195    1
   203   189   190    1
   204   211   208    1
   205   202   199    1
   206   192   191    2
   207   190   191    1
   208   208   207    1
   209   195   196    1
   210   196   197    1
   211   199   198    1
   212   199   200    1
   213   200   201    2
