@<TRIPOS>MOLECULE
tmp/3dwoA02.pdb
 234 216 0 0 0
SMALL
GASTEIGER

@<TRIPOS>ATOM
      1  N         43.2750   76.6210   41.8740 N.3     3  PHE3       -0.1241
      2  CA        44.6960   76.6290   41.5470 C.3     3  PHE3        0.1605
      3  C         45.1380   77.8500   40.7520 C.2     3  PHE3        0.2264
      4  O         46.1530   77.8230   40.0540 O.2     3  PHE3       -0.2867
      5  CB        45.1330   75.3390   40.8390 C.3     3  PHE3        0.0534
      6  CG        44.1420   74.8060   39.8540 C.ar    3  PHE3       -0.0203
      7  CD1       43.0850   74.0070   40.2790 C.ar    3  PHE3       -0.0042
      8  CD2       44.2750   75.0840   38.4960 C.ar    3  PHE3       -0.0042
      9  CE1       42.1740   73.4880   39.3630 C.ar    3  PHE3       -0.0003
     10  CE2       43.3670   74.5700   37.5700 C.ar    3  PHE3       -0.0003
     11  CZ        42.3170   73.7710   38.0070 C.ar    3  PHE3       -0.0000
     12  N         49.9170   65.8480   43.3720 N.3   139  THR139     -0.1218
     13  CA        49.2760   66.7650   42.4400 C.3   139  THR139      0.1862
     14  C         50.1740   67.9950   42.3400 C.2   139  THR139      0.2287
     15  O         50.4920   68.6280   43.3450 O.2   139  THR139     -0.2866
     16  CB        47.8760   67.2040   42.9370 C.3   139  THR139      0.1770
     17  OG1       47.0330   66.0560   43.0900 O.3   139  THR139     -0.2211
     18  CG2       47.2420   68.1580   41.9430 C.3   139  THR139      0.0375
     19  N         50.7760   71.4770   39.7430 N.3   141  ILE141     -0.1245
     20  CA        50.3640   72.2970   38.6100 C.3   141  ILE141      0.1561
     21  C         51.0390   73.6590   38.6930 C.2   141  ILE141      0.2260
     22  O         51.0320   74.2940   39.7410 O.2   141  ILE141     -0.2867
     23  CB        48.8350   72.5900   38.6110 C.3   141  ILE141      0.0252
     24  CG1       48.0380   71.3250   38.9060 C.3   141  ILE141      0.0019
     25  CG2       48.4170   73.1750   37.2750 C.3   141  ILE141      0.0019
     26  CD1       48.0270   70.9450   40.3710 C.3   141  ILE141      0.0001
     27  N         51.9120   69.9000   34.2970 N.3   171  GLY171     -0.1210
     28  CA        51.0420   69.2900   35.2790 C.3   171  GLY171      0.1956
     29  C         51.4160   67.8520   35.5570 C.2   171  GLY171      0.2612
     30  O         51.9050   67.1400   34.6790 O.2   171  GLY171     -0.2717
     31  N         51.1970   67.4300   36.7960 N.am  172  PHE172     -0.1962
     32  CA        51.4940   66.0690   37.1970 C.3   172  PHE172      0.1771
     33  C         50.4460   65.5620   38.1860 C.2   172  PHE172      0.2619
     34  O         50.0360   66.2830   39.0980 O.2   172  PHE172     -0.2715
     35  CB        52.8700   65.9790   37.8560 C.3   172  PHE172      0.0574
     36  CG        53.2370   64.5800   38.2680 C.ar  172  PHE172     -0.0200
     37  CD1       53.8140   63.7000   37.3510 C.ar  172  PHE172     -0.0042
     38  CD2       52.9360   64.1170   39.5470 C.ar  172  PHE172     -0.0042
     39  CE1       54.0820   62.3760   37.7010 C.ar  172  PHE172     -0.0003
     40  CE2       53.2000   62.7990   39.9080 C.ar  172  PHE172     -0.0003
     41  CZ        53.7730   61.9260   38.9850 C.ar  172  PHE172     -0.0000
     42  N         50.0200   64.3180   37.9940 N.am  173  VAL173     -0.1977
     43  CA        49.0400   63.6910   38.8660 C.3   173  VAL173      0.1596
     44  C         49.3830   62.2180   39.0460 C.2   173  VAL173      0.2287
     45  O         49.6680   61.5130   38.0740 O.2   173  VAL173     -0.2864
     46  CB        47.5960   63.7930   38.2810 C.3   173  VAL173      0.0276
     47  CG1       46.7440   62.6300   38.7750 C.3   173  VAL173      0.0022
     48  CG2       46.9390   65.1030   38.7180 C.3   173  VAL173      0.0022
     49  N         48.1060   58.6620   41.3740 N.3   175  GLN175     -0.1245
     50  CA        46.9760   58.1720   42.1400 C.3   175  GLN175      0.1566
     51  C         47.0490   56.6550   42.0910 C.2   175  GLN175      0.2260
     52  O         47.5090   56.0850   41.1010 O.2   175  GLN175     -0.2867
     53  CB        45.6880   58.6910   41.4770 C.3   175  GLN175      0.0367
     54  CG        44.3730   58.1290   41.9730 C.3   175  GLN175      0.0905
     55  CD        43.1940   58.8010   41.2850 C.2   175  GLN175      0.2608
     56  OE1       43.3750   59.5520   40.3280 O.2   175  GLN175     -0.2717
     57  NE2       41.9850   58.5330   41.7620 N.am  175  GLN175     -0.0878
     58  N         45.7080   52.8830   41.7360 N.3   177  LEU177     -0.1245
     59  CA        44.6550   52.2060   40.9950 C.3   177  LEU177      0.1561
     60  C         44.5840   50.7950   41.5550 C.2   177  LEU177      0.2260
     61  O         45.6100   50.1460   41.7750 O.2   177  LEU177     -0.2867
     62  CB        44.9670   52.1090   39.5010 C.3   177  LEU177      0.0270
     63  CG        45.2480   53.3440   38.6500 C.3   177  LEU177      0.0019
     64  CD1       45.2970   52.8950   37.1870 C.3   177  LEU177      0.0001
     65  CD2       44.1710   54.4150   38.8450 C.3   177  LEU177      0.0001
     66  N         49.3420   55.1450   39.3170 N.3   203  MET203     -0.1245
     67  CA        49.1030   55.7480   38.0150 C.3   203  MET203      0.1570
     68  C         49.8050   57.1060   38.0590 C.2   203  MET203      0.2261
     69  O         49.6570   57.8420   39.0290 O.2   203  MET203     -0.2867
     70  CB        47.6010   55.9380   37.8080 C.3   203  MET203      0.0387
     71  CG        47.2460   56.9060   36.7090 C.3   203  MET203      0.0595
     72  SD        47.7150   56.2800   35.1040 S.3   203  MET203     -0.1393
     73  CE        46.1290   55.7160   34.5030 C.3   203  MET203      0.0692
     74  N         50.6500   60.6520   35.6850 N.3   205  VAL205     -0.1245
     75  CA        50.3930   61.4210   34.4730 C.3   205  VAL205      0.1561
     76  C         51.2430   62.6870   34.4820 C.2   205  VAL205      0.2260
     77  O         51.1890   63.4780   35.4260 O.2   205  VAL205     -0.2867
     78  CB        48.8930   61.8170   34.3670 C.3   205  VAL205      0.0252
     79  CG1       48.6060   62.4280   33.0010 C.3   205  VAL205      0.0019
     80  CG2       48.0170   60.5980   34.6070 C.3   205  VAL205      0.0019
     81  N         52.1170   65.9160   31.9920 N.3   207  VAL207     -0.1245
     82  CA        51.7620   66.6240   30.7720 C.3   207  VAL207      0.1561
     83  C         52.1970   68.0790   30.8150 C.2   207  VAL207      0.2260
     84  O         52.4100   68.6410   31.8890 O.2   207  VAL207     -0.2867
     85  CB        50.2370   66.5460   30.5340 C.3   207  VAL207      0.0252
     86  CG1       49.8310   65.0920   30.2530 C.3   207  VAL207      0.0019
     87  CG2       49.4830   67.0570   31.7730 C.3   207  VAL207      0.0019
     88  N         46.8600   69.9110   27.6810 N.3   240  LEU240     -0.1245
     89  CA        48.1300   69.3690   28.1420 C.3   240  LEU240      0.1561
     90  C         48.4200   68.0400   27.4510 C.2   240  LEU240      0.2260
     91  O         47.5270   67.2070   27.2680 O.2   240  LEU240     -0.2867
     92  CB        48.0940   69.1820   29.6650 C.3   240  LEU240      0.0270
     93  CG        48.2530   70.4180   30.5640 C.3   240  LEU240      0.0019
     94  CD1       47.5300   71.6190   29.9920 C.3   240  LEU240      0.0001
     95  CD2       47.7270   70.0870   31.9550 C.3   240  LEU240      0.0001
     96  N         45.1610   65.9700   28.3890 N.3   280  ALA280     -0.1245
     97  CA        44.1430   66.3710   29.3370 C.3   280  ALA280      0.1562
     98  C         43.9610   67.8770   29.2250 C.2   280  ALA280      0.2260
     99  O         44.9230   68.6310   29.3760 O.2   280  ALA280     -0.2867
    100  CB        44.5670   65.9910   30.7630 C.3   280  ALA280      0.0290
    101  N         43.0110   71.5510   30.3490 N.3   282  LEU282     -0.1245
    102  CA        43.0570   72.2620   31.6210 C.3   282  LEU282      0.1561
    103  C         43.1070   73.7460   31.2590 C.2   282  LEU282      0.2260
    104  O         44.1040   74.4310   31.4940 O.2   282  LEU282     -0.2867
    105  CB        44.2980   71.8470   32.4190 C.3   282  LEU282      0.0270
    106  CG        44.3540   72.0670   33.9410 C.3   282  LEU282      0.0019
    107  CD1       44.2930   73.5420   34.2580 C.3   282  LEU282      0.0001
    108  CD2       43.2050   71.3500   34.6180 C.3   282  LEU282      0.0001
    109  N         35.7740   74.7960   34.2680 N.3   314  PHE314     -0.1241
    110  CA        36.4070   73.5700   34.7440 C.3   314  PHE314      0.1605
    111  C         35.3110   72.6020   35.1870 C.2   314  PHE314      0.2264
    112  O         34.9910   72.4950   36.3720 O.2   314  PHE314     -0.2867
    113  CB        37.3550   73.8500   35.9130 C.3   314  PHE314      0.0534
    114  CG        38.1760   72.6560   36.3130 C.ar  314  PHE314     -0.0203
    115  CD1       39.0440   72.0590   35.3960 C.ar  314  PHE314     -0.0042
    116  CD2       38.0740   72.1160   37.5920 C.ar  314  PHE314     -0.0042
    117  CE1       39.7970   70.9420   35.7470 C.ar  314  PHE314     -0.0003
    118  CE2       38.8260   70.9930   37.9570 C.ar  314  PHE314     -0.0003
    119  CZ        39.6880   70.4060   37.0350 C.ar  314  PHE314     -0.0000
    120  N         37.9770   66.7170   34.6070 N.3   317  LEU317     -0.1245
    121  CA        39.3800   66.4660   34.3050 C.3   317  LEU317      0.1561
    122  C         39.3230   65.1500   33.5560 C.2   317  LEU317      0.2260
    123  O         38.9920   64.1150   34.1360 O.2   317  LEU317     -0.2867
    124  CB        40.2040   66.2850   35.5860 C.3   317  LEU317      0.0270
    125  CG        41.5710   66.9790   35.7030 C.3   317  LEU317      0.0019
    126  CD1       42.4200   66.2170   36.7100 C.3   317  LEU317      0.0001
    127  CD2       42.2800   67.0400   34.3660 C.3   317  LEU317      0.0001
    128  N         41.3510   62.3390   31.3540 N.3   319  LEU319     -0.1245
    129  CA        42.5990   61.8020   30.8460 C.3   319  LEU319      0.1561
    130  C         42.2570   61.0700   29.5680 C.2   319  LEU319      0.2260
    131  O         41.3540   60.2370   29.5460 O.2   319  LEU319     -0.2867
    132  CB        43.2310   60.8220   31.8320 C.3   319  LEU319      0.0270
    133  CG        44.3860   60.0230   31.2140 C.3   319  LEU319      0.0019
    134  CD1       45.5070   60.9730   30.7990 C.3   319  LEU319      0.0001
    135  CD2       44.8900   58.9850   32.2010 C.3   319  LEU319      0.0001
    136  N         39.8100   57.9250   31.6060 N.3   327  VAL327     -0.1245
    137  CA        38.9050   58.1890   32.7160 C.3   327  VAL327      0.1561
    138  C         38.5560   59.6720   32.7360 C.2   327  VAL327      0.2260
    139  O         39.4030   60.5280   32.4570 O.2   327  VAL327     -0.2867
    140  CB        39.5110   57.7880   34.1000 C.3   327  VAL327      0.0252
    141  CG1       40.7340   58.6350   34.4210 C.3   327  VAL327      0.0019
    142  CG2       38.4530   57.9560   35.1920 C.3   327  VAL327      0.0019
    143  N         36.8770   62.5810   35.2100 N.3   329  ILE329     -0.1245
    144  CA        36.4960   62.9040   36.5790 C.3   329  ILE329      0.1561
    145  C         35.7660   64.2500   36.6430 C.2   329  ILE329      0.2260
    146  O         36.3330   65.2980   36.3330 O.2   329  ILE329     -0.2867
    147  CB        37.7530   62.9530   37.4850 C.3   329  ILE329      0.0252
    148  CG1       38.4980   61.6220   37.3860 C.3   329  ILE329      0.0019
    149  CG2       37.3560   63.2310   38.9380 C.3   329  ILE329      0.0019
    150  CD1       39.8330   61.6030   38.1070 C.3   329  ILE329      0.0001
    151  N         34.2050   67.6470   38.1140 N.3   331  TYR331     -0.1241
    152  CA        34.5700   68.5530   39.1840 C.3   331  TYR331      0.1605
    153  C         33.5490   69.6720   39.2880 C.2   331  TYR331      0.2264
    154  O         33.3140   70.2000   40.3720 O.2   331  TYR331     -0.2867
    155  CB        35.9760   69.1070   38.9520 C.3   331  TYR331      0.0534
    156  CG        37.0580   68.1450   39.3920 C.ar  331  TYR331     -0.0201
    157  CD1       37.1750   67.7680   40.7310 C.ar  331  TYR331     -0.0009
    158  CD2       37.9540   67.5970   38.4720 C.ar  331  TYR331     -0.0009
    159  CE1       38.1590   66.8680   41.1480 C.ar  331  TYR331      0.0417
    160  CE2       38.9440   66.6930   38.8760 C.ar  331  TYR331      0.0417
    161  CZ        39.0430   66.3350   40.2140 C.ar  331  TYR331      0.1957
    162  OH        40.0320   65.4600   40.6230 O.3   331  TYR331     -0.2866
    163  N         33.2780   72.9210   38.8230 N.3   333  TYR333     -0.1241
    164  CA        33.6020   74.1120   39.6030 C.3   333  TYR333      0.1605
    165  C         32.5520   75.1940   39.3730 C.2   333  TYR333      0.2264
    166  O         31.9250   75.2430   38.3180 O.2   333  TYR333     -0.2867
    167  CB        34.9640   74.6590   39.1760 C.3   333  TYR333      0.0534
    168  CG        36.1530   74.0460   39.8760 C.ar  333  TYR333     -0.0201
    169  CD1       36.0850   72.7750   40.4530 C.ar  333  TYR333     -0.0009
    170  CD2       37.3580   74.7350   39.9460 C.ar  333  TYR333     -0.0009
    171  CE1       37.1980   72.2130   41.0890 C.ar  333  TYR333      0.0417
    172  CE2       38.4710   74.1860   40.5710 C.ar  333  TYR333      0.0417
    173  CZ        38.3870   72.9300   41.1420 C.ar  333  TYR333      0.1957
    174  OH        39.4930   72.4190   41.7850 O.3   333  TYR333     -0.2866
    175  N         35.5280   75.1250   44.2980 N.3   364  THR364     -0.1218
    176  CA        35.2260   73.7240   44.5750 C.3   364  THR364      0.1862
    177  C         33.8850   73.6390   45.2940 C.2   364  THR364      0.2287
    178  O         33.3970   74.6330   45.8250 O.2   364  THR364     -0.2866
    179  CB        36.3050   73.0840   45.4800 C.3   364  THR364      0.1770
    180  OG1       36.3280   73.7540   46.7490 O.3   364  THR364     -0.2211
    181  CG2       37.6960   73.1990   44.8290 C.3   364  THR364      0.0375
    182  N         32.0760   67.2540   44.7970 N.3   368  THR368     -0.1203
    183  CA        33.2570   66.8500   44.0320 C.3   368  THR368      0.1994
    184  C         34.6410   67.1430   44.6230 C.2   368  THR368      0.2618
    185  O         35.6470   66.6370   44.1190 O.2   368  THR368     -0.2717
    186  CB        33.2260   67.4860   42.6290 C.3   368  THR368      0.1784
    187  OG1       33.3220   68.9130   42.7520 O.3   368  THR368     -0.2211
    188  CG2       31.9260   67.1440   41.9090 C.3   368  THR368      0.0376
    189  N         34.7170   67.9480   45.6720 N.am  369  ARG369     -0.1965
    190  CA        36.0270   68.2590   46.2310 C.3   369  ARG369      0.1729
    191  C         36.7740   66.9960   46.6470 C.2   369  ARG369      0.2616
    192  O         36.1980   66.0880   47.2510 O.2   369  ARG369     -0.2715
    193  CB        35.9010   69.2020   47.4220 C.3   369  ARG369      0.0348
    194  CG        37.2410   69.7380   47.9470 C.3   369  ARG369      0.0492
    195  CD        36.9890   70.9230   48.8550 C.3   369  ARG369      0.2205
    196  NE        35.8090   70.6540   49.6510 N.pl3 369  ARG369     -0.0865
    197  CZ        34.7330   71.4290   49.6990 C.cat 369  ARG369      0.5346
    198  NH1       34.6730   72.5520   49.0020 N.pl3 369  ARG369      0.1354
    199  NH2       33.7030   71.0510   50.4300 N.pl3 369  ARG369      0.1354
    200  N         38.0600   66.9440   46.3130 N.am  370  ASP370     -0.1971
    201  CA        38.8850   65.7950   46.6520 C.3   370  ASP370      0.1709
    202  C         40.2140   66.2510   47.2540 C.2   370  ASP370      0.2293
    203  O         40.4470   67.4430   47.4120 O.2   370  ASP370     -0.2864
    204  CB        39.1040   64.9190   45.4130 C.3   370  ASP370      0.1436
    205  CG        39.8740   65.6280   44.3260 C.2   370  ASP370      0.3671
    206  OD1       40.3980   66.7300   44.5960 O.co2 370  ASP370     -0.2456
    207  OD2       39.9680   65.0740   43.2050 O.co2 370  ASP370     -0.2456
    208  N         43.2200   66.4240   46.0270 N.3   372  ARG372     -0.1231
    209  CA        44.1370   67.1550   45.1430 C.3   372  ARG372      0.1694
    210  C         44.1140   68.6570   45.4230 C.2   372  ARG372      0.2591
    211  O         45.1620   69.2850   45.5930 O.2   372  ARG372     -0.2718
    212  CB        43.7750   66.9350   43.6700 C.3   372  ARG372      0.0321
    213  CG        43.7910   65.4980   43.2360 C.3   372  ARG372      0.0489
    214  CD        43.8700   65.3600   41.7170 C.3   372  ARG372      0.2205
    215  NE        44.2390   63.9890   41.3780 N.pl3 372  ARG372     -0.0865
    216  CZ        43.3850   63.0420   41.0120 C.cat 372  ARG372      0.5346
    217  NH1       42.0870   63.3000   40.9070 N.pl3 372  ARG372      0.1354
    218  NH2       43.8360   61.8170   40.7910 N.pl3 372  ARG372      0.1354
    219  N         42.9060   69.2170   45.4550 N.am  373  ILE373     -0.1980
    220  CA        42.6870   70.6440   45.6990 C.3   373  ILE373      0.1595
    221  C         41.5630   70.7500   46.7360 C.2   373  ILE373      0.2287
    222  O         40.4170   71.0380   46.3950 O.2   373  ILE373     -0.2864
    223  CB        42.2080   71.3720   44.4200 C.3   373  ILE373      0.0276
    224  CG1       43.1010   71.0170   43.2240 C.3   373  ILE373      0.0022
    225  CG2       42.2120   72.8750   44.6560 C.3   373  ILE373      0.0022
    226  CD1       44.5130   71.5650   43.3100 C.3   373  ILE373      0.0001
    227  N         37.4410   53.5220   38.9300 N.3   419  LEU419     -0.1245
    228  CA        38.4640   53.9990   39.8620 C.3   419  LEU419      0.1561
    229  C         38.4200   53.2780   41.2110 C.2   419  LEU419      0.2260
    230  O         39.0560   53.7030   42.1770 O.2   419  LEU419     -0.2867
    231  CB        38.3440   55.5100   40.0780 C.3   419  LEU419      0.0270
    232  CG        38.7740   56.3760   38.8890 C.3   419  LEU419      0.0019
    233  CD1       38.6740   57.8430   39.2790 C.3   419  LEU419      0.0001
    234  CD2       40.2180   56.0290   38.4720 C.3   419  LEU419      0.0001
@<TRIPOS>BOND
     1    91    90    2
     2    90    89    1
     3    88    89    1
     4    89    92    1
     5    96    97    1
     6    98    97    1
     7    98    99    2
     8    97   100    1
     9   131   130    2
    10   130   129    1
    11    92    93    1
    12    94    93    1
    13    86    85    1
    14   101   102    1
    15    85    82    1
    16    85    87    1
    17    93    95    1
    18    82    83    1
    19    82    81    1
    20   134   133    1
    21    83    84    2
    22   129   128    1
    23   129   132    1
    24   133   132    1
    25   133   135    1
    26   103   104    2
    27   103   102    1
    28   136   137    1
    29   102   105    1
    30   105   106    1
    31   139   138    2
    32   137   138    1
    33   137   140    1
    34    79    78    1
    35   122   123    2
    36   122   121    1
    37   106   107    1
    38   106   108    1
    39   140   141    1
    40   140   142    1
    41   109   110    1
    42    27    28    1
    43   121   120    1
    44   121   124    1
    45   127   125    1
    46    78    75    1
    47    78    80    1
    48    75    76    1
    49    75    74    1
    50    76    77    2
    51    73    72    1
    52    30    29    2
    53   110   111    1
    54   110   113    1
    55    72    71    1
    56   111   112    2
    57   143   144    1
    58    28    29    1
    59   115   117   ar
    60   115   114   ar
    61    29    31   am
    62   124   125    1
    63   125   126    1
    64   117   119   ar
    65   113   114    1
    66   114   116   ar
    67   146   145    2
    68   144   145    1
    69   144   147    1
    70    71    70    1
    71    31    32    1
    72   119   118   ar
    73    64    63    1
    74    32    35    1
    75    32    33    1
    76    25    23    1
    77    37    39   ar
    78    37    36   ar
    79   148   147    1
    80   148   150    1
    81   147   149    1
    82    10    11   ar
    83    10     8   ar
    84   116   118   ar
    85    39    41   ar
    86    70    67    1
    87    35    36    1
    88    42    33   am
    89    42    43    1
    90    11     9   ar
    91    67    68    1
    92    67    66    1
    93    68    69    2
    94    45    44    2
    95   151   152    1
    96    33    34    2
    97    36    38   ar
    98    46    48    1
    99    46    47    1
   100    46    43    1
   101   166   165    2
   102   158   160   ar
   103   158   156   ar
   104   234   232    1
   105     8     6   ar
   106    20    23    1
   107    20    21    1
   108    20    19    1
   109    23    24    1
   110    63    65    1
   111    63    62    1
   112    21    22    2
   113   163   164    1
   114    43    44    1
   115   160   161   ar
   116   232   233    1
   117   232   231    1
   118    24    26    1
   119   227   228    1
   120   155   152    1
   121   155   156    1
   122    41    40   ar
   123   167   164    1
   124   167   168    1
   125   152   153    1
   126   153   154    2
   127     9     7   ar
   128   165   164    1
   129   156   157   ar
   130    62    59    1
   131    38    40   ar
   132     6     7   ar
   133     6     5    1
   134   228   231    1
   135   228   229    1
   136   168   170   ar
   137   168   169   ar
   138   170   172   ar
   139     4     3    2
   140   161   162    1
   141   161   159   ar
   142    56    55    2
   143   169   171   ar
   144   172   173   ar
   145   157   159   ar
   146     3     2    1
   147   218   216    1
   148     5     2    1
   149   217   216    1
   150    59    60    1
   151    59    58    1
   152   216   215    2
   153   171   173   ar
   154    52    51    2
   155   173   174    1
   156   229   230    2
   157    55    57   am
   158    55    54    1
   159    49    50    1
   160   215   214    1
   161    53    54    1
   162    53    50    1
   163     2     1    1
   164    60    61    2
   165   214   213    1
   166   188   186    1
   167    18    16    1
   168    51    50    1
   169    14    13    1
   170    14    15    2
   171    13    16    1
   172    13    12    1
   173   186   187    1
   174   186   183    1
   175    16    17    1
   176   207   205   ar
   177   224   226    1
   178   224   223    1
   179   213   212    1
   180   212   209    1
   181   183   184    1
   182   183   182    1
   183   185   184    2
   184   175   176    1
   185   205   206   ar
   186   205   204    1
   187   223   225    1
   188   223   220    1
   189   176   177    1
   190   176   179    1
   191   184   189   am
   192   181   179    1
   193   209   210    1
   194   209   208    1
   195   177   178    2
   196   204   201    1
   197   210   219   am
   198   210   211    2
   199   219   220    1
   200   179   180    1
   201   189   190    1
   202   220   221    1
   203   190   191    1
   204   190   193    1
   205   200   191   am
   206   200   201    1
   207   222   221    2
   208   191   192    2
   209   201   202    1
   210   202   203    2
   211   193   194    1
   212   194   195    1
   213   195   196    1
   214   198   197    1
   215   196   197    2
   216   197   199    1
