@<TRIPOS>MOLECULE
tmp/3dwoA01.pdb
 171 158 0 0 0
SMALL
GASTEIGER

@<TRIPOS>ATOM
      1  N         45.7080   52.8830   41.7360 N.3   177  LEU177     -0.1245
      2  CA        44.6550   52.2060   40.9950 C.3   177  LEU177      0.1561
      3  C         44.5840   50.7950   41.5550 C.2   177  LEU177      0.2260
      4  O         45.6100   50.1460   41.7750 O.2   177  LEU177     -0.2867
      5  CB        44.9670   52.1090   39.5010 C.3   177  LEU177      0.0270
      6  CG        45.2480   53.3440   38.6500 C.3   177  LEU177      0.0019
      7  CD1       45.2970   52.8950   37.1870 C.3   177  LEU177      0.0001
      8  CD2       44.1710   54.4150   38.8450 C.3   177  LEU177      0.0001
      9  N         42.9600   47.5590   40.3100 N.3   179  LEU179     -0.1231
     10  CA        42.2770   46.8300   39.2310 C.3   179  LEU179      0.1693
     11  C         41.1810   45.8490   39.6640 C.2   179  LEU179      0.2592
     12  O         40.1450   45.7510   39.0050 O.2   179  LEU179     -0.2718
     13  CB        43.2820   46.0760   38.3500 C.3   179  LEU179      0.0284
     14  CG        44.3660   46.8310   37.5770 C.3   179  LEU179      0.0019
     15  CD1       44.7270   46.0170   36.3430 C.3   179  LEU179      0.0001
     16  CD2       43.8900   48.2020   37.1570 C.3   179  LEU179      0.0001
     17  N         41.4120   45.1010   40.7360 N.am  180  TYR180     -0.1976
     18  CA        40.3980   44.1610   41.2030 C.3   180  TYR180      0.1639
     19  C         39.1420   44.9060   41.6550 C.2   180  TYR180      0.2290
     20  O         38.0190   44.4670   41.3850 O.2   180  TYR180     -0.2864
     21  CB        40.9280   43.3160   42.3610 C.3   180  TYR180      0.0560
     22  CG        41.5830   42.0250   41.9350 C.ar  180  TYR180     -0.0198
     23  CD1       40.8920   41.0940   41.1560 C.ar  180  TYR180     -0.0009
     24  CD2       42.8890   41.7300   42.3100 C.ar  180  TYR180     -0.0009
     25  CE1       41.4880   39.9000   40.7620 C.ar  180  TYR180      0.0417
     26  CE2       43.4970   40.5390   41.9200 C.ar  180  TYR180      0.0417
     27  CZ        42.7910   39.6330   41.1460 C.ar  180  TYR180      0.1957
     28  OH        43.3970   38.4690   40.7460 O.3   180  TYR180     -0.2866
     29  N         38.1990   47.8230   40.6060 N.3   182  SER182     -0.1202
     30  CA        37.5800   48.3680   39.4020 C.3   182  SER182      0.2020
     31  C         36.7630   47.3010   38.6800 C.2   182  SER182      0.2618
     32  O         35.6600   47.5760   38.1960 O.2   182  SER182     -0.2717
     33  CB        38.6470   48.9150   38.4610 C.3   182  SER182      0.2103
     34  OG        39.2930   50.0210   39.0560 O.3   182  SER182     -0.2182
     35  N         37.3080   46.0880   38.6120 N.am  183  ALA183     -0.1979
     36  CA        36.6330   44.9620   37.9570 C.3   183  ALA183      0.1597
     37  C         35.3140   44.6240   38.6520 C.2   183  ALA183      0.2287
     38  O         34.2870   44.4440   38.0000 O.2   183  ALA183     -0.2864
     39  CB        37.5450   43.7240   37.9520 C.3   183  ALA183      0.0319
     40  N         33.0740   42.6820   34.0460 N.3   189  MET189     -0.1245
     41  CA        33.7940   41.7490   34.9040 C.3   189  MET189      0.1570
     42  C         33.2830   41.6990   36.3350 C.2   189  MET189      0.2261
     43  O         33.9860   41.2220   37.2250 O.2   189  MET189     -0.2867
     44  CB        35.2820   42.1050   34.9360 C.3   189  MET189      0.0387
     45  CG        36.1320   41.4080   33.9030 C.3   189  MET189      0.0595
     46  SD        37.8760   41.4760   34.4100 S.3   189  MET189     -0.1393
     47  CE        37.9490   40.1010   35.5840 C.3   189  MET189      0.0692
     48  N         45.4380   44.1940   44.5480 N.3   199  SER199     -0.1217
     49  CA        46.1160   44.6810   43.3600 C.3   199  SER199      0.1889
     50  C         46.3340   46.1720   43.6310 C.2   199  SER199      0.2288
     51  O         45.4980   46.8210   44.2690 O.2   199  SER199     -0.2866
     52  CB        45.2410   44.4970   42.1120 C.3   199  SER199      0.2089
     53  OG        43.9960   45.1630   42.2490 O.3   199  SER199     -0.2183
     54  N         49.3420   55.1450   39.3170 N.3   203  MET203     -0.1245
     55  CA        49.1030   55.7480   38.0150 C.3   203  MET203      0.1570
     56  C         49.8050   57.1060   38.0590 C.2   203  MET203      0.2261
     57  O         49.6570   57.8420   39.0290 O.2   203  MET203     -0.2867
     58  CB        47.6010   55.9380   37.8080 C.3   203  MET203      0.0387
     59  CG        47.2460   56.9060   36.7090 C.3   203  MET203      0.0595
     60  SD        47.7150   56.2800   35.1040 S.3   203  MET203     -0.1393
     61  CE        46.1290   55.7160   34.5030 C.3   203  MET203      0.0692
     62  N         50.2960   41.4230   39.6290 N.3   253  LEU253     -0.1245
     63  CA        48.8550   41.3930   39.3660 C.3   253  LEU253      0.1561
     64  C         48.4090   42.3810   38.3080 C.2   253  LEU253      0.2260
     65  O         47.7570   42.0070   37.3360 O.2   253  LEU253     -0.2867
     66  CB        48.0580   41.6650   40.6460 C.3   253  LEU253      0.0270
     67  CG        48.0910   40.5740   41.7170 C.3   253  LEU253      0.0019
     68  CD1       47.2650   41.0100   42.9160 C.3   253  LEU253      0.0001
     69  CD2       47.5470   39.2730   41.1410 C.3   253  LEU253      0.0001
     70  N         49.9170   41.7040   34.8370 N.3   256  GLY256     -0.1210
     71  CA        49.3420   40.4810   34.2990 C.3   256  GLY256      0.1956
     72  C         47.9690   40.7480   33.7010 C.2   256  GLY256      0.2611
     73  O         47.6350   40.2510   32.6250 O.2   256  GLY256     -0.2717
     74  N         47.1660   41.5460   34.4000 N.am  257  ALA257     -0.1979
     75  CA        45.8280   41.8820   33.9220 C.3   257  ALA257      0.1597
     76  C         45.9100   42.7130   32.6500 C.2   257  ALA257      0.2287
     77  O         45.2390   42.4280   31.6570 O.2   257  ALA257     -0.2864
     78  CB        45.0810   42.6580   34.9820 C.3   257  ALA257      0.0319
     79  N         47.1310   40.9180   29.8650 N.3   260  GLY260     -0.1225
     80  CA        46.1180   39.9300   29.5470 C.3   260  GLY260      0.1811
     81  C         44.9180   40.5390   28.8460 C.2   260  GLY260      0.2280
     82  O         44.0260   39.8220   28.3970 O.2   260  GLY260     -0.2866
     83  N         42.5380   42.2270   30.1730 N.3   262  THR262     -0.1204
     84  CA        41.3040   42.1520   30.9480 C.3   262  THR262      0.1979
     85  C         40.6030   43.5020   31.1830 C.2   262  THR262      0.2459
     86  O         39.3760   43.5580   31.2750 O.2   262  THR262     -0.2732
     87  CB        41.5340   41.4170   32.2970 C.3   262  THR262      0.1783
     88  OG1       42.6860   41.9500   32.9580 O.3   262  THR262     -0.2211
     89  CG2       41.7480   39.9290   32.0530 C.3   262  THR262      0.0376
     90  N         41.3620   44.6070   31.2700 N.am  263  PRO263     -0.2728
     91  CA        40.7010   45.9020   31.4910 C.3   263  PRO263      0.1401
     92  C         39.6650   46.2730   30.4260 C.2   263  PRO263      0.2269
     93  O         38.6140   46.8320   30.7400 O.2   263  PRO263     -0.2865
     94  CB        41.8640   46.8790   31.5200 C.3   263  PRO263      0.0296
     95  CG        42.9670   46.0520   32.1330 C.3   263  PRO263      0.0237
     96  CD        42.8250   44.7400   31.3870 C.3   263  PRO263      0.0939
     97  N         36.4830   44.4360   31.0540 N.3   266  ALA266     -0.1231
     98  CA        35.7270   44.9920   32.1770 C.3   266  ALA266      0.1694
     99  C         34.9980   46.2670   31.7490 C.2   266  ALA266      0.2592
    100  O         33.8180   46.4510   32.0400 O.2   266  ALA266     -0.2718
    101  CB        36.6670   45.3010   33.3440 C.3   266  ALA266      0.0304
    102  N         35.7170   47.1480   31.0620 N.am  267  TYR267     -0.1976
    103  CA        35.1620   48.4090   30.5930 C.3   267  TYR267      0.1639
    104  C         35.3420   48.5180   29.0800 C.2   267  TYR267      0.2290
    105  O         36.3330   49.0720   28.5940 O.2   267  TYR267     -0.2864
    106  CB        35.8600   49.5750   31.2990 C.3   267  TYR267      0.0560
    107  CG        35.5600   49.6450   32.7810 C.ar  267  TYR267     -0.0198
    108  CD1       34.4170   50.2910   33.2520 C.ar  267  TYR267     -0.0009
    109  CD2       36.3840   49.0170   33.7060 C.ar  267  TYR267     -0.0009
    110  CE1       34.1040   50.3070   34.6100 C.ar  267  TYR267      0.0417
    111  CE2       36.0790   49.0240   35.0630 C.ar  267  TYR267      0.0417
    112  CZ        34.9360   49.6690   35.5100 C.ar  267  TYR267      0.1957
    113  OH        34.6180   49.6540   36.8540 O.3   267  TYR267     -0.2866
    114  N         37.7080   50.7820   26.7100 N.3   270  LEU270     -0.1245
    115  CA        38.8740   51.2050   27.4620 C.3   270  LEU270      0.1561
    116  C         40.1270   50.5180   26.9350 C.2   270  LEU270      0.2260
    117  O         40.1610   49.2940   26.7750 O.2   270  LEU270     -0.2867
    118  CB        38.7000   50.8820   28.9530 C.3   270  LEU270      0.0270
    119  CG        39.9270   51.1020   29.8520 C.3   270  LEU270      0.0019
    120  CD1       40.3570   52.5640   29.7950 C.3   270  LEU270      0.0001
    121  CD2       39.6010   50.7040   31.2880 C.3   270  LEU270      0.0001
    122  N         43.6210   50.4690   28.2650 N.3   272  LEU272     -0.1245
    123  CA        44.6250   50.7690   29.2720 C.3   272  LEU272      0.1561
    124  C         45.8940   49.9340   29.0740 C.2   272  LEU272      0.2260
    125  O         45.8310   48.7270   28.8230 O.2   272  LEU272     -0.2867
    126  CB        44.0510   50.5210   30.6680 C.3   272  LEU272      0.0270
    127  CG        44.9760   50.8670   31.8370 C.3   272  LEU272      0.0019
    128  CD1       45.1830   52.3820   31.8810 C.3   272  LEU272      0.0001
    129  CD2       44.3740   50.3700   33.1430 C.3   272  LEU272      0.0001
    130  N         41.3510   62.3390   31.3540 N.3   319  LEU319     -0.1245
    131  CA        42.5990   61.8020   30.8460 C.3   319  LEU319      0.1561
    132  C         42.2570   61.0700   29.5680 C.2   319  LEU319      0.2260
    133  O         41.3540   60.2370   29.5460 O.2   319  LEU319     -0.2867
    134  CB        43.2310   60.8220   31.8320 C.3   319  LEU319      0.0270
    135  CG        44.3860   60.0230   31.2140 C.3   319  LEU319      0.0019
    136  CD1       45.5070   60.9730   30.7990 C.3   319  LEU319      0.0001
    137  CD2       44.8900   58.9850   32.2010 C.3   319  LEU319      0.0001
    138  N         40.4290   57.6740   28.9850 N.3   326  ILE326     -0.1231
    139  CA        40.8800   56.6120   29.8700 C.3   326  ILE326      0.1692
    140  C         39.9340   56.7150   31.0650 C.2   326  ILE326      0.2591
    141  O         39.3260   55.7260   31.4770 O.2   326  ILE326     -0.2718
    142  CB        42.3340   56.8260   30.3230 C.3   326  ILE326      0.0266
    143  CG1       43.2830   56.6030   29.1400 C.3   326  ILE326      0.0019
    144  CG2       42.6720   55.8750   31.4540 C.3   326  ILE326      0.0020
    145  CD1       43.1760   55.2350   28.5210 C.3   326  ILE326      0.0001
    146  N         39.8100   57.9250   31.6060 N.am  327  VAL327     -0.1980
    147  CA        38.9050   58.1890   32.7160 C.3   327  VAL327      0.1595
    148  C         38.5560   59.6720   32.7360 C.2   327  VAL327      0.2287
    149  O         39.4030   60.5280   32.4570 O.2   327  VAL327     -0.2864
    150  CB        39.5110   57.7880   34.1000 C.3   327  VAL327      0.0276
    151  CG1       40.7340   58.6350   34.4210 C.3   327  VAL327      0.0022
    152  CG2       38.4530   57.9560   35.1920 C.3   327  VAL327      0.0022
    153  N         35.2660   52.5330   37.5170 N.3   418  ARG418     -0.1231
    154  CA        36.6100   52.1970   37.0560 C.3   418  ARG418      0.1694
    155  C         37.7500   52.6700   37.9560 C.2   418  ARG418      0.2591
    156  O         38.8950   52.2530   37.7780 O.2   418  ARG418     -0.2718
    157  CB        36.8300   52.6700   35.6090 C.3   418  ARG418      0.0321
    158  CG        36.9150   54.1630   35.3860 C.3   418  ARG418      0.0489
    159  CD        37.1400   54.4480   33.8960 C.3   418  ARG418      0.2205
    160  NE        36.0120   54.0100   33.0780 N.pl3 418  ARG418     -0.0865
    161  CZ        36.0110   53.9840   31.7450 C.cat 418  ARG418      0.5346
    162  NH1       37.0800   54.3690   31.0590 N.pl3 418  ARG418      0.1354
    163  NH2       34.9390   53.5620   31.0930 N.pl3 418  ARG418      0.1354
    164  N         37.4410   53.5220   38.9300 N.am  419  LEU419     -0.1980
    165  CA        38.4640   53.9990   39.8620 C.3   419  LEU419      0.1596
    166  C         38.4200   53.2780   41.2110 C.2   419  LEU419      0.2287
    167  O         39.0560   53.7030   42.1770 O.2   419  LEU419     -0.2864
    168  CB        38.3440   55.5100   40.0780 C.3   419  LEU419      0.0297
    169  CG        38.7740   56.3760   38.8890 C.3   419  LEU419      0.0022
    170  CD1       38.6740   57.8430   39.2790 C.3   419  LEU419      0.0001
    171  CD2       40.2180   56.0290   38.4720 C.3   419  LEU419      0.0001
@<TRIPOS>BOND
     1   114   115    1
     2   117   116    2
     3   116   115    1
     4   115   118    1
     5   122   123    1
     6    82    81    2
     7   145   143    1
     8   105   104    2
     9   125   124    2
    10    81    80    1
    11   118   119    1
    12   138   139    1
    13   124   123    1
    14   104   103    1
    15   143   142    1
    16   123   126    1
    17   133   132    2
    18    80    79    1
    19   132   131    1
    20   120   119    1
    21   119   121    1
    22   139   142    1
    23   139   140    1
    24    83    84    1
    25   142   144    1
    26    92    93    2
    27    92    91    1
    28   103   102    1
    29   103   106    1
    30   126   127    1
    31   136   135    1
    32   131   130    1
    33   131   134    1
    34    84    85    1
    35    84    87    1
    36    97    98    1
    37   162   161    1
    38   102    99   am
    39   140   141    2
    40   140   146   am
    41   163   161    1
    42    85    90   am
    43    85    86    2
    44   135   134    1
    45   135   137    1
    46    90    96    1
    47    90    91    1
    48   106   107    1
    49    96    95    1
    50    91    94    1
    51    94    95    1
    52   146   147    1
    53    77    76    2
    54   161   160    2
    55    99   100    2
    56    99    98    1
    57   127   128    1
    58   127   129    1
    59    89    87    1
    60    98   101    1
    61    87    88    1
    62   149   148    2
    63    73    72    2
    64    76    75    1
    65   147   148    1
    66   147   150    1
    67   107   108   ar
    68   107   109   ar
    69   160   159    1
    70   108   110   ar
    71    72    71    1
    72    72    74   am
    73   109   111   ar
    74   159   158    1
    75    45    46    1
    76    45    44    1
    77    75    74    1
    78    75    78    1
    79    40    41    1
    80   150   151    1
    81   150   152    1
    82    71    70    1
    83    46    47    1
    84    61    60    1
    85   110   112   ar
    86    41    44    1
    87    41    42    1
    88   111   112   ar
    89    60    59    1
    90   158   157    1
    91   112   113    1
    92   157   154    1
    93    42    43    2
    94    15    14    1
    95    59    58    1
    96   154   153    1
    97   154   155    1
    98    16    14    1
    99     7     6    1
   100    65    64    2
   101    14    13    1
   102   156   155    2
   103    58    55    1
   104    39    36    1
   105   155   164   am
   106    36    35    1
   107    36    37    1
   108    38    37    2
   109    55    56    1
   110    55    54    1
   111    56    57    2
   112    32    31    2
   113    64    63    1
   114    13    10    1
   115    33    34    1
   116    33    30    1
   117   171   169    1
   118    35    31   am
   119     6     8    1
   120     6     5    1
   121    31    30    1
   122   169   170    1
   123   169   168    1
   124   164   165    1
   125    12    11    2
   126    10    11    1
   127    10     9    1
   128    63    62    1
   129    63    66    1
   130    30    29    1
   131     5     2    1
   132    11    17   am
   133   165   168    1
   134   165   166    1
   135    66    67    1
   136    17    18    1
   137    28    27    1
   138    25    27   ar
   139    25    23   ar
   140     2     3    1
   141     2     1    1
   142    69    67    1
   143    27    26   ar
   144    23    22   ar
   145    18    19    1
   146    18    21    1
   147   166   167    2
   148    20    19    2
   149     3     4    2
   150    67    68    1
   151    26    24   ar
   152    22    24   ar
   153    22    21    1
   154    52    53    1
   155    52    49    1
   156    49    50    1
   157    49    48    1
   158    50    51    2
