@<TRIPOS>MOLECULE
tmp/3dwpC00.pdb
 102 97 0 0 0
SMALL
GASTEIGER

@<TRIPOS>ATOM
      1  N        -75.0270   35.2330   17.1130 N.3     8  ASP8       -0.1225
      2  CA       -74.2130   35.7290   15.9830 C.3     8  ASP8        0.1805
      3  C        -72.8320   35.0780   16.0160 C.2     8  ASP8        0.2598
      4  O        -72.2030   35.0070   17.0810 O.2     8  ASP8       -0.2718
      5  CB       -74.0160   37.2580   16.0250 C.3     8  ASP8        0.1424
      6  CG       -75.2590   38.0430   15.6110 C.2     8  ASP8        0.3668
      7  OD1      -76.1380   37.5260   14.8730 O.co2   8  ASP8       -0.2456
      8  OD2      -75.3500   39.2020   16.0470 O.co2   8  ASP8       -0.2456
      9  N        -72.3580   34.5800   14.8770 N.am    9  GLY9       -0.1942
     10  CA       -73.1210   34.4620   13.6500 C.3     9  GLY9        0.2014
     11  C        -72.3760   33.5540   12.6940 C.2     9  GLY9        0.2639
     12  O        -71.4130   32.8600   13.0690 O.2     9  GLY9       -0.2714
     13  N        -72.8100   33.5580   11.4440 N.am   10  MET10      -0.1963
     14  CA       -72.1400   32.7540   10.4350 C.3    10  MET10       0.1736
     15  C        -72.2490   33.4140    9.0650 C.2    10  MET10       0.2616
     16  O        -73.2080   34.1320    8.7810 O.2    10  MET10      -0.2715
     17  CB       -72.7070   31.3270   10.4060 C.3    10  MET10       0.0427
     18  CG       -74.1290   31.2610    9.9100 C.3    10  MET10       0.0599
     19  SD       -74.7990   29.6150    9.9540 S.3    10  MET10      -0.1393
     20  CE       -76.3910   29.8510    9.1590 C.3    10  MET10       0.0692
     21  N        -71.2430   33.1720    8.2310 N.am   11  PHE11      -0.1960
     22  CA       -71.2440   33.6420    6.8610 C.3    11  PHE11       0.1771
     23  C        -71.0520   32.3930    6.0330 C.2    11  PHE11       0.2620
     24  O        -70.0610   31.6910    6.2230 O.2    11  PHE11      -0.2715
     25  CB       -70.0970   34.6500    6.6520 C.3    11  PHE11       0.0574
     26  CG       -70.4800   36.0930    6.9300 C.ar   11  PHE11      -0.0200
     27  CD1      -70.3270   37.0670    5.9500 C.ar   11  PHE11      -0.0042
     28  CD2      -70.9960   36.4760    8.1530 C.ar   11  PHE11      -0.0042
     29  CE1      -70.6780   38.4200    6.1930 C.ar   11  PHE11      -0.0003
     30  CE2      -71.3590   37.8140    8.4170 C.ar   11  PHE11      -0.0003
     31  CZ       -71.2070   38.7820    7.4420 C.ar   11  PHE11      -0.0000
     32  N        -72.0030   32.1090    5.1400 N.am   12  SER12      -0.1950
     33  CA       -71.9620   30.9120    4.2800 C.3    12  SER12       0.1924
     34  C        -71.4270   31.1870    2.8750 C.2    12  SER12       0.2314
     35  O        -71.5520   32.3100    2.3760 O.2    12  SER12      -0.2863
     36  CB       -73.3500   30.2950    4.1630 C.3    12  SER12       0.2116
     37  OG       -73.8150   29.9370    5.4350 O.3    12  SER12      -0.2180
     38  N        -67.8730   36.7800    0.1450 N.3    36  GLN36      -0.1245
     39  CA       -69.0970   36.1400   -0.2890 C.3    36  GLN36       0.1566
     40  C        -69.3810   36.4820   -1.7510 C.2    36  GLN36       0.2260
     41  O        -68.6690   37.2850   -2.3400 O.2    36  GLN36      -0.2867
     42  CB       -70.2450   36.5170    0.6430 C.3    36  GLN36       0.0367
     43  CG       -70.2630   35.6660    1.9020 C.3    36  GLN36       0.0905
     44  CD       -71.3030   36.1170    2.8810 C.2    36  GLN36       0.2608
     45  OE1      -71.3170   37.2770    3.2830 O.2    36  GLN36      -0.2717
     46  NE2      -72.1940   35.2060    3.2680 N.am   36  GLN36      -0.0878
     47  N        -68.8400   41.0850   -0.6030 N.3    40  SER40      -0.1217
     48  CA       -68.6700   41.5100    0.7910 C.3    40  SER40       0.1889
     49  C        -67.6650   40.6310    1.5800 C.2    40  SER40       0.2288
     50  O        -67.6070   39.3970    1.4170 O.2    40  SER40      -0.2866
     51  CB       -70.0190   41.6190    1.5120 C.3    40  SER40       0.2089
     52  OG       -70.7470   40.4050    1.4410 O.3    40  SER40      -0.2183
     53  N        -68.2720   27.7390    5.2120 N.3    75  ARG75      -0.1245
     54  CA       -68.9720   28.5170    6.2430 C.3    75  ARG75       0.1563
     55  C        -67.9920   28.9670    7.3010 C.2    75  ARG75       0.2260
     56  O        -67.2770   28.1470    7.8750 O.2    75  ARG75      -0.2867
     57  CB       -70.1000   27.7220    6.9010 C.3    75  ARG75       0.0307
     58  CG       -70.9470   28.5470    7.8960 C.3    75  ARG75       0.0489
     59  CD       -72.1380   27.7980    8.3410 C.3    75  ARG75       0.2205
     60  NE       -73.2290   27.8400    7.3630 N.pl3  75  ARG75      -0.0865
     61  CZ       -74.3450   27.1040    7.4500 C.cat  75  ARG75       0.5346
     62  NH1      -74.5230   26.2590    8.4660 N.pl3  75  ARG75       0.1354
     63  NH2      -75.2820   27.1990    6.5200 N.pl3  75  ARG75       0.1354
     64  N        -68.3680   32.6180   13.6130 N.3    78  TYR78      -0.1241
     65  CA       -67.6310   33.6240   14.3330 C.3    78  TYR78       0.1605
     66  C        -68.4210   34.1040   15.5510 C.2    78  TYR78       0.2264
     67  O        -69.6230   33.9170   15.6470 O.2    78  TYR78      -0.2867
     68  CB       -67.2550   34.7950   13.3830 C.3    78  TYR78       0.0534
     69  CG       -68.4500   35.6350   13.0100 C.ar   78  TYR78      -0.0201
     70  CD1      -68.7850   36.7580   13.7600 C.ar   78  TYR78      -0.0009
     71  CD2      -69.2780   35.2760   11.9440 C.ar   78  TYR78      -0.0009
     72  CE1      -69.8960   37.5150   13.4490 C.ar   78  TYR78       0.0417
     73  CE2      -70.3950   36.0280   11.6300 C.ar   78  TYR78       0.0417
     74  CZ       -70.7010   37.1460   12.3870 C.ar   78  TYR78       0.1957
     75  OH       -71.8070   37.9170   12.0870 O.3    78  TYR78      -0.2866
     76  N        -75.0850   28.9090    0.0410 N.3   107  THR107     -0.1218
     77  CA       -75.9850   29.1880    1.1210 C.3   107  THR107      0.1862
     78  C        -76.2050   27.9750    2.0500 C.2   107  THR107      0.2287
     79  O        -76.4200   28.1350    3.2670 O.2   107  THR107     -0.2866
     80  CB       -77.3000   29.7960    0.5130 C.3   107  THR107      0.1770
     81  OG1      -77.6110   31.0500    1.1360 O.3   107  THR107     -0.2211
     82  CG2      -78.4260   28.8850    0.5850 C.3   107  THR107      0.0375
     83  N        -75.1480   28.8210   13.0230 N.3   114  ARG114     -0.1231
     84  CA       -74.8860   29.7100   14.1400 C.3   114  ARG114      0.1694
     85  C        -75.6610   31.0000   13.8360 C.2   114  ARG114      0.2591
     86  O        -75.2240   31.8520   13.0710 O.2   114  ARG114     -0.2718
     87  CB       -73.3900   29.9450   14.3360 C.3   114  ARG114      0.0321
     88  CG       -73.0500   30.8180   15.5120 C.3   114  ARG114      0.0489
     89  CD       -71.5510   30.9430   15.6950 C.3   114  ARG114      0.2205
     90  NE       -71.2240   31.8060   16.8310 N.pl3 114  ARG114     -0.0865
     91  CZ       -71.1790   31.3940   18.0920 C.cat 114  ARG114      0.5346
     92  NH1      -71.4120   30.1120   18.3940 N.pl3 114  ARG114      0.1354
     93  NH2      -70.8840   32.2530   19.0510 N.pl3 114  ARG114      0.1354
     94  N        -76.8470   31.1020   14.4220 N.am  115  LYS115     -0.1980
     95  CA       -77.7890   32.1450   14.0680 C.3   115  LYS115      0.1596
     96  C        -78.6970   32.4560   15.2510 C.2   115  LYS115      0.2287
     97  O        -79.2760   31.5470   15.8340 O.2   115  LYS115     -0.2864
     98  CB       -78.6420   31.6780   12.8770 C.3   115  LYS115      0.0298
     99  CG       -79.4070   32.7810   12.1960 C.3   115  LYS115      0.0038
    100  CD       -80.3080   32.2990   11.0780 C.3   115  LYS115      0.0206
    101  CE       -80.7660   33.5320   10.2890 C.3   115  LYS115      0.1093
    102  NZ       -81.8310   33.2350    9.2740 N.3   115  LYS115     -0.1314
@<TRIPOS>BOND
     1    41    40    2
     2    40    39    1
     3    47    48    1
     4    39    38    1
     5    39    42    1
     6    76    77    1
     7    80    82    1
     8    80    77    1
     9    80    81    1
    10    42    43    1
    11    48    51    1
    12    48    49    1
    13    77    78    1
    14    50    49    2
    15    52    51    1
    16    43    44    1
    17    78    79    2
    18    35    34    2
    19    34    33    1
    20    44    46   am
    21    44    45    2
    22    36    33    1
    23    36    37    1
    24    33    32    1
    25    32    23   am
    26    53    54    1
    27    27    29   ar
    28    27    26   ar
    29    23    24    2
    30    23    22    1
    31    29    31   ar
    32    54    57    1
    33    54    55    1
    34    63    61    1
    35    25    22    1
    36    25    26    1
    37    22    21    1
    38    57    58    1
    39    26    28   ar
    40    55    56    2
    41    60    61    2
    42    60    59    1
    43    31    30   ar
    44    61    62    1
    45    58    59    1
    46    28    30   ar
    47    21    15   am
    48    16    15    2
    49    15    14    1
    50    20    19    1
    51   102   101    1
    52    18    19    1
    53    18    17    1
    54   101   100    1
    55    17    14    1
    56    14    13    1
    57   100    99    1
    58    13    11   am
    59    73    71   ar
    60    73    74   ar
    61    71    69   ar
    62    75    74    1
    63    99    98    1
    64    74    72   ar
    65    11    12    2
    66    11    10    1
    67    98    95    1
    68    69    68    1
    69    69    70   ar
    70    83    84    1
    71    86    85    2
    72    68    65    1
    73    72    70   ar
    74    64    65    1
    75    10     9    1
    76    85    84    1
    77    85    94   am
    78    95    94    1
    79    95    96    1
    80    84    87    1
    81    65    66    1
    82    87    88    1
    83     7     6   ar
    84     9     3   am
    85    96    97    2
    86    88    89    1
    87    66    67    2
    88     6     5    1
    89     6     8   ar
    90    89    90    1
    91     2     3    1
    92     2     5    1
    93     2     1    1
    94     3     4    2
    95    90    91    2
    96    91    92    1
    97    91    93    1
