@<TRIPOS>MOLECULE
tmp/3dwqE00.pdb
 117 112 0 0 0
SMALL
GASTEIGER

@<TRIPOS>ATOM
      1  N         80.7100  -20.8560   16.1940 N.3     8  ASP8       -0.1225
      2  CA        80.1480  -19.9560   17.1990 C.3     8  ASP8        0.1805
      3  C         78.6860  -19.6920   16.8570 C.2     8  ASP8        0.2598
      4  O         78.3700  -19.3990   15.7020 O.2     8  ASP8       -0.2718
      5  CB        80.8990  -18.6210   17.2250 C.3     8  ASP8        0.1424
      6  CG        82.2620  -18.7210   17.8780 C.2     8  ASP8        0.3668
      7  OD1       82.4560  -19.5860   18.7580 O.co2   8  ASP8       -0.2456
      8  OD2       83.1440  -17.9160   17.5100 O.co2   8  ASP8       -0.2456
      9  N         77.7840  -19.8040   17.8310 N.am    9  GLY9       -0.1942
     10  CA        78.0850  -20.2300   19.1960 C.3     9  GLY9        0.2014
     11  C         76.7910  -20.4480   19.9640 C.2     9  GLY9        0.2639
     12  O         75.7020  -20.3800   19.3860 O.2     9  GLY9       -0.2714
     13  N         76.9070  -20.7130   21.2630 N.am   10  MET10      -0.1963
     14  CA        75.7360  -20.8860   22.1270 C.3    10  MET10       0.1736
     15  C         75.9840  -20.3980   23.5530 C.2    10  MET10       0.2616
     16  O         77.1000  -20.4810   24.0590 O.2    10  MET10      -0.2715
     17  CB        75.2630  -22.3490   22.1360 C.3    10  MET10       0.0427
     18  CG        76.2430  -23.3350   22.7790 C.3    10  MET10       0.0599
     19  SD        75.7860  -25.0640   22.5600 S.3    10  MET10      -0.1393
     20  CE        77.0590  -25.8550   23.5380 C.3    10  MET10       0.0692
     21  N         74.9380  -19.8680   24.1820 N.am   11  PHE11      -0.1960
     22  CA        74.9550  -19.5490   25.6080 C.3    11  PHE11       0.1771
     23  C         73.8680  -20.3940   26.2630 C.2    11  PHE11       0.2620
     24  O         72.7030  -20.3270   25.8590 O.2    11  PHE11      -0.2715
     25  CB        74.6810  -18.0580   25.8460 C.3    11  PHE11       0.0574
     26  CG        75.8990  -17.1610   25.7350 C.ar   11  PHE11      -0.0200
     27  CD1       76.8780  -17.3740   24.7640 C.ar   11  PHE11      -0.0042
     28  CD2       76.0380  -16.0670   26.5820 C.ar   11  PHE11      -0.0042
     29  CE1       77.9840  -16.5310   24.6590 C.ar   11  PHE11      -0.0003
     30  CE2       77.1410  -15.2110   26.4810 C.ar   11  PHE11      -0.0003
     31  CZ        78.1120  -15.4450   25.5180 C.ar   11  PHE11      -0.0000
     32  N         74.2480  -21.1960   27.2550 N.am   12  SER12      -0.1950
     33  CA        73.2990  -22.0640   27.9580 C.3    12  SER12       0.1924
     34  C         72.8640  -21.4590   29.2880 C.2    12  SER12       0.2314
     35  O         73.5900  -20.6570   29.8760 O.2    12  SER12      -0.2863
     36  CB        73.9040  -23.4510   28.2000 C.3    12  SER12       0.2116
     37  OG        74.2180  -24.0990   26.9830 O.3    12  SER12      -0.2180
     38  N         72.6840  -14.8780   31.8440 N.3    36  GLN36      -0.1245
     39  CA        73.0330  -16.0470   32.6440 C.3    36  GLN36       0.1566
     40  C         73.1120  -15.5830   34.0960 C.2    36  GLN36       0.2260
     41  O         73.3310  -14.3990   34.3520 O.2    36  GLN36      -0.2867
     42  CB        74.3670  -16.6400   32.1840 C.3    36  GLN36       0.0367
     43  CG        74.3070  -17.2960   30.8060 C.3    36  GLN36       0.0905
     44  CD        75.6740  -17.6380   30.2380 C.2    36  GLN36       0.2608
     45  OE1       76.6520  -16.9250   30.4620 O.2    36  GLN36      -0.2717
     46  NE2       75.7420  -18.7290   29.4850 N.am   36  GLN36      -0.0878
     47  N         76.3010  -12.6130   32.8310 N.3    40  SER40      -0.1217
     48  CA        76.8000  -12.5900   31.4530 C.3    40  SER40       0.1889
     49  C         75.6360  -12.5010   30.4600 C.2    40  SER40       0.2288
     50  O         74.6260  -13.1880   30.6170 O.2    40  SER40      -0.2866
     51  CB        77.6560  -13.8210   31.1740 C.3    40  SER40       0.2089
     52  OG        78.3940  -13.6640   29.9750 O.3    40  SER40      -0.2183
     53  N         68.7870  -22.2750   26.1850 N.3    75  ARG75      -0.1245
     54  CA        69.9920  -22.1260   25.3800 C.3    75  ARG75       0.1563
     55  C         69.7020  -21.2740   24.1530 C.2    75  ARG75       0.2260
     56  O         68.7570  -21.5480   23.4080 O.2    75  ARG75      -0.2867
     57  CB        70.5300  -23.4980   24.9510 C.3    75  ARG75       0.0307
     58  CG        71.7210  -23.4380   23.9960 C.3    75  ARG75       0.0489
     59  CD        72.2880  -24.8180   23.7330 C.3    75  ARG75       0.2205
     60  NE        73.0260  -25.3210   24.8870 N.pl3  75  ARG75      -0.0865
     61  CZ        73.4970  -26.5570   25.0040 C.cat  75  ARG75       0.5346
     62  NH1       73.3050  -27.4440   24.0350 N.pl3  75  ARG75       0.1354
     63  NH2       74.1610  -26.9040   26.1000 N.pl3  75  ARG75       0.1354
     64  N         73.3450  -18.8760   18.3800 N.3    78  TYR78      -0.1241
     65  CA        73.5160  -17.6670   17.5800 C.3    78  TYR78       0.1605
     66  C         74.6320  -17.8210   16.5530 C.2    78  TYR78       0.2264
     67  O         75.4660  -18.7170   16.6670 O.2    78  TYR78      -0.2867
     68  CB        73.7690  -16.4460   18.4840 C.3    78  TYR78       0.0534
     69  CG        75.1140  -16.4580   19.1790 C.ar   78  TYR78      -0.0201
     70  CD1       76.2120  -15.7960   18.6270 C.ar   78  TYR78      -0.0009
     71  CD2       75.2920  -17.1360   20.3840 C.ar   78  TYR78      -0.0009
     72  CE1       77.4480  -15.8090   19.2520 C.ar   78  TYR78       0.0417
     73  CE2       76.5310  -17.1510   21.0210 C.ar   78  TYR78       0.0417
     74  CZ        77.6020  -16.4880   20.4490 C.ar   78  TYR78       0.1957
     75  OH        78.8290  -16.4990   21.0730 O.3    78  TYR78      -0.2866
     76  N         72.2370  -25.5910   34.0390 N.3   106  SER106     -0.1202
     77  CA        72.7600  -24.3140   33.5430 C.3   106  SER106      0.2020
     78  C         73.6330  -24.4370   32.2870 C.2   106  SER106      0.2619
     79  O         73.7950  -23.4650   31.5470 O.2   106  SER106     -0.2717
     80  CB        73.5360  -23.5840   34.6460 C.3   106  SER106      0.2103
     81  OG        74.6870  -24.3170   35.0360 O.3   106  SER106     -0.2182
     82  N         74.1940  -25.6250   32.0580 N.am  107  THR107     -0.1938
     83  CA        75.0940  -25.8590   30.9230 C.3   107  THR107      0.2028
     84  C         74.6260  -26.9910   30.0110 C.2   107  THR107      0.2642
     85  O         75.0750  -27.0970   28.8630 O.2   107  THR107     -0.2714
     86  CB        76.5390  -26.1670   31.3870 C.3   107  THR107      0.1808
     87  OG1       76.5500  -27.3610   32.1780 O.3   107  THR107     -0.2208
     88  CG2       77.1040  -25.0180   32.2010 C.3   107  THR107      0.0379
     89  N         73.7420  -27.8430   30.5260 N.am  108  GLU108     -0.1976
     90  CA        73.2440  -28.9800   29.7640 C.3   108  GLU108      0.1602
     91  C         71.8360  -28.7190   29.2470 C.2   108  GLU108      0.2287
     92  O         70.8870  -28.5660   30.0200 O.2   108  GLU108     -0.2864
     93  CB        73.2800  -30.2620   30.5910 C.3   108  GLU108      0.0415
     94  CG        73.1960  -31.5110   29.7420 C.3   108  GLU108      0.1163
     95  CD        73.0800  -32.7670   30.5650 C.2   108  GLU108      0.3649
     96  OE1       72.0090  -32.9640   31.1830 O.co2 108  GLU108     -0.2457
     97  OE2       74.0510  -33.5610   30.5850 O.co2 108  GLU108     -0.2457
     98  N         76.4990  -26.1350   19.5410 N.3   114  ARG114     -0.1231
     99  CA        77.0080  -25.2470   18.5070 C.3   114  ARG114      0.1694
    100  C         78.3250  -24.6960   19.0360 C.2   114  ARG114      0.2591
    101  O         78.3510  -23.7210   19.7860 O.2   114  ARG114     -0.2718
    102  CB        76.0160  -24.1310   18.1700 C.3   114  ARG114      0.0321
    103  CG        76.4650  -23.2480   17.0140 C.3   114  ARG114      0.0489
    104  CD        75.3900  -22.2710   16.5730 C.3   114  ARG114      0.2205
    105  NE        75.8700  -21.4140   15.4910 N.pl3 114  ARG114     -0.0865
    106  CZ        75.7730  -21.6990   14.1940 C.cat 114  ARG114      0.5346
    107  NH1       75.1990  -22.8260   13.7840 N.pl3 114  ARG114      0.1354
    108  NH2       76.2540  -20.8480   13.3010 N.pl3 114  ARG114      0.1354
    109  N         79.4150  -25.3490   18.6470 N.am  115  LYS115     -0.1980
    110  CA        80.7160  -25.1170   19.2550 C.3   115  LYS115      0.1596
    111  C         81.8060  -25.1340   18.1950 C.2   115  LYS115      0.2287
    112  O         81.8760  -26.0580   17.3850 O.2   115  LYS115     -0.2864
    113  CB        80.9860  -26.1950   20.3040 C.3   115  LYS115      0.0298
    114  CG        81.8470  -25.7520   21.4650 C.3   115  LYS115      0.0038
    115  CD        81.9750  -26.8570   22.5110 C.3   115  LYS115      0.0206
    116  CE        80.7480  -26.9350   23.4010 C.3   115  LYS115      0.1093
    117  NZ        80.9530  -27.8820   24.5270 N.3   115  LYS115     -0.1314
@<TRIPOS>BOND
     1   108   106    1
     2   107   106    1
     3   106   105    2
     4   105   104    1
     5     4     3    2
     6     1     2    1
     7    66    67    2
     8    66    65    1
     9   104   103    1
    10     3     2    1
    11     3     9   am
    12   103   102    1
    13     2     5    1
    14     5     6    1
    15   112   111    2
    16     8     6   ar
    17    65    64    1
    18    65    68    1
    19     9    10    1
    20     6     7   ar
    21   102    99    1
    22   111   110    1
    23    68    69    1
    24    99   100    1
    25    99    98    1
    26    70    69   ar
    27    70    72   ar
    28   109   100   am
    29   109   110    1
    30   100   101    2
    31    69    71   ar
    32    10    11    1
    33    72    74   ar
    34   110   113    1
    35    12    11    2
    36    11    13   am
    37   113   114    1
    38    71    73   ar
    39    74    73   ar
    40    74    75    1
    41    13    14    1
    42   114   115    1
    43    14    17    1
    44    14    15    1
    45    17    18    1
    46   115   116    1
    47    19    18    1
    48    19    20    1
    49   116   117    1
    50    56    55    2
    51    15    16    2
    52    15    21   am
    53    59    58    1
    54    59    60    1
    55    58    57    1
    56    62    61    1
    57    55    54    1
    58    21    22    1
    59    29    27   ar
    60    29    31   ar
    61    27    26   ar
    62    60    61    2
    63    57    54    1
    64    61    63    1
    65    54    53    1
    66    31    30   ar
    67    22    25    1
    68    22    23    1
    69    26    25    1
    70    26    28   ar
    71    24    23    2
    72    23    32   am
    73    30    28   ar
    74    37    36    1
    75    32    33    1
    76    33    36    1
    77    33    34    1
    78    85    84    2
    79    91    90    1
    80    91    92    2
    81    34    35    2
    82    46    44   am
    83    94    95    1
    84    94    93    1
    85    90    89    1
    86    90    93    1
    87    52    51    1
    88    84    89   am
    89    84    83    1
    90    44    45    2
    91    44    43    1
    92    49    50    2
    93    49    48    1
    94    95    97   ar
    95    95    96   ar
    96    43    42    1
    97    83    86    1
    98    83    82    1
    99    51    48    1
   100    86    87    1
   101    86    88    1
   102    48    47    1
   103    79    78    2
   104    38    39    1
   105    82    78   am
   106    42    39    1
   107    78    77    1
   108    39    40    1
   109    77    76    1
   110    77    80    1
   111    40    41    2
   112    80    81    1
