@<TRIPOS>MOLECULE
tmp/3dwrB00.pdb
 93 87 0 0 0
SMALL
GASTEIGER

@<TRIPOS>ATOM
      1  N          3.8350   61.0340   17.5780 N.3    37  TRP37      -0.1241
      2  CA         4.9900   61.2670   16.7100 C.3    37  TRP37       0.1605
      3  C          4.6330   61.1550   15.2270 C.2    37  TRP37       0.2264
      4  O          3.5640   60.6420   14.8690 O.2    37  TRP37      -0.2867
      5  CB         6.1060   60.2810   17.0650 C.3    37  TRP37       0.0550
      6  CG         5.6810   58.8390   17.0660 C.ar   37  TRP37       0.0003
      7  CD1        5.1270   58.1470   18.1020 C.ar   37  TRP37       0.0946
      8  CD2        5.7850   57.9180   15.9780 C.ar   37  TRP37       0.0152
      9  NE1        4.8800   56.8420   17.7290 N.ar   37  TRP37      -0.2442
     10  CE2        5.2770   56.6760   16.4280 C.ar   37  TRP37       0.0810
     11  CE3        6.2570   58.0200   14.6620 C.ar   37  TRP37       0.0012
     12  CZ2        5.2250   55.5470   15.6080 C.ar   37  TRP37       0.0191
     13  CZ3        6.2110   56.8900   13.8460 C.ar   37  TRP37       0.0001
     14  CH2        5.6940   55.6730   14.3240 C.ar   37  TRP37       0.0015
     15  N          0.6230   50.5440   21.3380 N.3    57  ASN57      -0.1240
     16  CA         1.0370   51.3950   20.2220 C.3    57  ASN57       0.1653
     17  C          0.0680   51.3660   19.0790 C.2    57  ASN57       0.2266
     18  O         -0.4140   50.3030   18.7090 O.2    57  ASN57      -0.2867
     19  CB         2.3540   50.8990   19.6420 C.3    57  ASN57       0.1155
     20  CG         3.5240   51.1830   20.5370 C.2    57  ASN57       0.2627
     21  OD1        3.4140   51.9380   21.5060 O.2    57  ASN57      -0.2716
     22  ND2        4.6550   50.5620   20.2350 N.am   57  ASN57      -0.0877
     23  N          0.4280   52.6180   15.0920 N.3    59  SER59      -0.1217
     24  CA         1.3080   53.1630   14.0510 C.3    59  SER59       0.1889
     25  C          0.6540   53.1360   12.6740 C.2    59  SER59       0.2288
     26  O         -0.1400   52.2530   12.3690 O.2    59  SER59      -0.2866
     27  CB         2.6590   52.4390   14.0220 C.3    59  SER59       0.2089
     28  OG         2.5100   51.0380   14.1340 O.3    59  SER59      -0.2183
     29  N          2.2800   53.6720    8.8490 N.3    61  VAL61      -0.1245
     30  CA         3.5680   53.8200    8.1580 C.3    61  VAL61       0.1561
     31  C          3.4400   53.7460    6.6370 C.2    61  VAL61       0.2260
     32  O          2.6220   52.9910    6.1170 O.2    61  VAL61      -0.2867
     33  CB         4.5510   52.7110    8.5970 C.3    61  VAL61       0.0252
     34  CG1        5.9020   52.8760    7.8910 C.3    61  VAL61       0.0019
     35  CG2        4.7370   52.7220   10.1010 C.3    61  VAL61       0.0019
     36  N          4.1790   50.5680    0.0670 N.3    66  PHE66      -0.1241
     37  CA         3.2160   49.9860    0.9950 C.3    66  PHE66       0.1605
     38  C          2.7320   50.9680    2.0510 C.2    66  PHE66       0.2264
     39  O          3.4400   51.9020    2.4300 O.2    66  PHE66      -0.2867
     40  CB         3.8130   48.7600    1.6870 C.3    66  PHE66       0.0534
     41  CG         4.8210   49.0930    2.7580 C.ar   66  PHE66      -0.0203
     42  CD1        6.1240   49.4390    2.4210 C.ar   66  PHE66      -0.0042
     43  CD2        4.4680   49.0630    4.1020 C.ar   66  PHE66      -0.0042
     44  CE1        7.0560   49.7460    3.4050 C.ar   66  PHE66      -0.0003
     45  CE2        5.3950   49.3680    5.0870 C.ar   66  PHE66      -0.0003
     46  CZ         6.6900   49.7110    4.7380 C.ar   66  PHE66      -0.0000
     47  N          8.4260   41.2300   13.3800 N.3   225  GLY225     -0.1225
     48  CA         7.9430   42.6060   13.4480 C.3   225  GLY225      0.1811
     49  C          8.9830   43.5420   14.0270 C.2   225  GLY225      0.2280
     50  O          9.2300   44.6350   13.5130 O.2   225  GLY225     -0.2866
     51  N         10.8180   46.5600   11.8910 N.3   229  GLY229     -0.1225
     52  CA        10.7440   47.9160   12.4420 C.3   229  GLY229      0.1811
     53  C         12.1110   48.5520   12.6030 C.2   229  GLY229      0.2280
     54  O         12.3110   49.6960   12.2020 O.2   229  GLY229     -0.2866
     55  N         13.8400   48.9970    9.0200 N.3   232  SER232     -0.1202
     56  CA        13.2040   49.9260    8.0920 C.3   232  SER232      0.2020
     57  C         13.1660   51.3770    8.6080 C.2   232  SER232      0.2619
     58  O         12.5520   52.2460    7.9750 O.2   232  SER232     -0.2717
     59  CB        11.7900   49.4370    7.7560 C.3   232  SER232      0.2103
     60  OG        10.9370   49.5240    8.8780 O.3   232  SER232     -0.2182
     61  N         13.8190   51.6360    9.7430 N.am  233  GLY233     -0.1942
     62  CA        13.9220   52.9920   10.2830 C.3   233  GLY233      0.2014
     63  C         12.7440   53.4070   11.1470 C.2   233  GLY233      0.2639
     64  O         12.4220   54.5940   11.2350 O.2   233  GLY233     -0.2714
     65  N         12.0980   52.4400   11.7920 N.am  234  GLY234     -0.1939
     66  CA        10.9640   52.7290   12.6620 C.3   234  GLY234      0.2014
     67  C         11.4180   53.4000   13.9460 C.2   234  GLY234      0.2638
     68  O         12.6110   53.4880   14.2220 O.2   234  GLY234     -0.2714
     69  N         10.4630   53.8640   14.7420 N.am  235  ARG235     -0.1977
     70  CA        10.7800   54.5630   15.9740 C.3   235  ARG235      0.1597
     71  C         11.2440   53.5790   17.0350 C.2   235  ARG235      0.2287
     72  O         10.4430   52.8110   17.5550 O.2   235  ARG235     -0.2864
     73  CB         9.5560   55.3150   16.4550 C.3   235  ARG235      0.0334
     74  CG         9.8380   56.2920   17.5590 C.3   235  ARG235      0.0492
     75  CD         8.7330   57.3070   17.5770 C.3   235  ARG235      0.2205
     76  NE         8.8950   58.3420   18.5840 N.pl3 235  ARG235     -0.0865
     77  CZ         8.6780   58.1790   19.8860 C.cat 235  ARG235      0.5346
     78  NH1        8.3170   57.0020   20.3760 N.pl3 235  ARG235      0.1354
     79  NH2        8.8280   59.2150   20.7070 N.pl3 235  ARG235      0.1354
     80  N          9.3490   53.0750   20.3690 N.3   238  SER238     -0.1202
     81  CA         8.0190   52.5270   20.1430 C.3   238  SER238      0.2020
     82  C          8.0850   51.0260   19.8370 C.2   238  SER238      0.2618
     83  O          7.2800   50.2320   20.3560 O.2   238  SER238     -0.2717
     84  CB         7.3220   53.2800   19.0070 C.3   238  SER238      0.2103
     85  OG         7.0920   54.6420   19.3570 O.3   238  SER238     -0.2182
     86  N          9.0610   50.6290   19.0220 N.am  239  ILE239     -0.1979
     87  CA         9.2400   49.2180   18.6590 C.3   239  ILE239      0.1595
     88  C          9.6220   48.3740   19.8740 C.2   239  ILE239      0.2287
     89  O          9.0930   47.2700   20.0820 O.2   239  ILE239     -0.2864
     90  CB        10.3120   49.0750   17.5410 C.3   239  ILE239      0.0276
     91  CG1        9.7850   49.7030   16.2480 C.3   239  ILE239      0.0022
     92  CG2       10.6980   47.5940   17.3160 C.3   239  ILE239      0.0022
     93  CD1       10.8540   50.0810   15.2770 C.3   239  ILE239      0.0001
@<TRIPOS>BOND
     1    36    37    1
     2    37    40    1
     3    37    38    1
     4    40    41    1
     5    38    39    2
     6    42    41   ar
     7    42    44   ar
     8    41    43   ar
     9    44    46   ar
    10    43    45   ar
    11    46    45   ar
    12    32    31    2
    13    31    30    1
    14    59    56    1
    15    59    60    1
    16    34    33    1
    17    58    57    2
    18    56    57    1
    19    56    55    1
    20    30    33    1
    21    30    29    1
    22    33    35    1
    23    57    61   am
    24    61    62    1
    25    62    63    1
    26    63    64    2
    27    63    65   am
    28    65    66    1
    29    51    52    1
    30    54    53    2
    31    26    25    2
    32    52    53    1
    33    66    67    1
    34    25    24    1
    35    47    48    1
    36    48    49    1
    37    50    49    2
    38    13    14   ar
    39    13    11   ar
    40    67    68    2
    41    67    69   am
    42    27    24    1
    43    27    28    1
    44    24    23    1
    45    14    12   ar
    46    11     8   ar
    47    69    70    1
    48     4     3    2
    49     3     2    1
    50    93    91    1
    51    12    10   ar
    52    70    73    1
    53    70    71    1
    54     8    10   ar
    55     8     6   ar
    56    91    90    1
    57    10     9   ar
    58    73    74    1
    59     2     5    1
    60     2     1    1
    61    71    72    2
    62     5     6    1
    63     6     7   ar
    64    92    90    1
    65    90    87    1
    66    74    75    1
    67    75    76    1
    68     9     7   ar
    69    76    77    2
    70    87    86    1
    71    87    88    1
    72    18    17    2
    73    84    85    1
    74    84    81    1
    75    86    82   am
    76    17    16    1
    77    19    16    1
    78    19    20    1
    79    82    81    1
    80    82    83    2
    81    88    89    2
    82    77    78    1
    83    77    79    1
    84    81    80    1
    85    16    15    1
    86    22    20   am
    87    20    21    2
