@<TRIPOS>MOLECULE
tmp/3dwrB02.pdb
 96 89 0 0 0
SMALL
GASTEIGER

@<TRIPOS>ATOM
      1  N          0.6230   50.5440   21.3380 N.3    57  ASN57      -0.1240
      2  CA         1.0370   51.3950   20.2220 C.3    57  ASN57       0.1653
      3  C          0.0680   51.3660   19.0790 C.2    57  ASN57       0.2266
      4  O         -0.4140   50.3030   18.7090 O.2    57  ASN57      -0.2867
      5  CB         2.3540   50.8990   19.6420 C.3    57  ASN57       0.1155
      6  CG         3.5240   51.1830   20.5370 C.2    57  ASN57       0.2627
      7  OD1        3.4140   51.9380   21.5060 O.2    57  ASN57      -0.2716
      8  ND2        4.6550   50.5620   20.2350 N.am   57  ASN57      -0.0877
      9  N          0.4280   52.6180   15.0920 N.3    59  SER59      -0.1217
     10  CA         1.3080   53.1630   14.0510 C.3    59  SER59       0.1889
     11  C          0.6540   53.1360   12.6740 C.2    59  SER59       0.2288
     12  O         -0.1400   52.2530   12.3690 O.2    59  SER59      -0.2866
     13  CB         2.6590   52.4390   14.0220 C.3    59  SER59       0.2089
     14  OG         2.5100   51.0380   14.1340 O.3    59  SER59      -0.2183
     15  N          2.2800   53.6720    8.8490 N.3    61  VAL61      -0.1245
     16  CA         3.5680   53.8200    8.1580 C.3    61  VAL61       0.1561
     17  C          3.4400   53.7460    6.6370 C.2    61  VAL61       0.2260
     18  O          2.6220   52.9910    6.1170 O.2    61  VAL61      -0.2867
     19  CB         4.5510   52.7110    8.5970 C.3    61  VAL61       0.0252
     20  CG1        5.9020   52.8760    7.8910 C.3    61  VAL61       0.0019
     21  CG2        4.7370   52.7220   10.1010 C.3    61  VAL61       0.0019
     22  N          4.1790   50.5680    0.0670 N.3    66  PHE66      -0.1241
     23  CA         3.2160   49.9860    0.9950 C.3    66  PHE66       0.1605
     24  C          2.7320   50.9680    2.0510 C.2    66  PHE66       0.2264
     25  O          3.4400   51.9020    2.4300 O.2    66  PHE66      -0.2867
     26  CB         3.8130   48.7600    1.6870 C.3    66  PHE66       0.0534
     27  CG         4.8210   49.0930    2.7580 C.ar   66  PHE66      -0.0203
     28  CD1        6.1240   49.4390    2.4210 C.ar   66  PHE66      -0.0042
     29  CD2        4.4680   49.0630    4.1020 C.ar   66  PHE66      -0.0042
     30  CE1        7.0560   49.7460    3.4050 C.ar   66  PHE66      -0.0003
     31  CE2        5.3950   49.3680    5.0870 C.ar   66  PHE66      -0.0003
     32  CZ         6.6900   49.7110    4.7380 C.ar   66  PHE66      -0.0000
     33  N          0.9130   50.6310    5.9520 N.3    68  ALA68      -0.1231
     34  CA         0.5930   49.6910    7.0110 C.3    68  ALA68       0.1694
     35  C          0.0800   50.4410    8.2240 C.2    68  ALA68       0.2592
     36  O          0.4980   51.5660    8.4890 O.2    68  ALA68      -0.2718
     37  CB         1.8030   48.8590    7.3620 C.3    68  ALA68       0.0304
     38  N         -0.8470   49.8200    8.9430 N.am   69  MET69      -0.1965
     39  CA        -1.3560   50.3940   10.1730 C.3    69  MET69       0.1736
     40  C         -1.6810   49.2630   11.1260 C.2    69  MET69       0.2617
     41  O         -2.0970   48.1810   10.7060 O.2    69  MET69      -0.2715
     42  CB        -2.6080   51.2290    9.9050 C.3    69  MET69       0.0427
     43  CG        -3.7220   50.4560    9.2290 C.3    69  MET69       0.0599
     44  SD        -5.1320   51.4870    8.8400 S.3    69  MET69      -0.1393
     45  CE        -4.4490   52.5360    7.5540 C.3    69  MET69       0.0692
     46  N         -1.4900   49.5050   12.4140 N.am   70  GLY70      -0.1940
     47  CA        -1.8510   48.5040   13.3850 C.3    70  GLY70       0.2014
     48  C         -1.7030   48.9680   14.8070 C.2    70  GLY70       0.2639
     49  O         -1.1950   50.0660   15.0630 O.2    70  GLY70      -0.2714
     50  N         -2.2050   48.1300   15.7120 N.am   71  VAL71      -0.1963
     51  CA        -2.0280   48.2770   17.1480 C.3    71  VAL71       0.1727
     52  C         -1.2120   47.0910   17.6310 C.2    71  VAL71       0.2616
     53  O         -1.4440   45.9570   17.2150 O.2    71  VAL71      -0.2715
     54  CB        -3.3880   48.3390   17.9030 C.3    71  VAL71       0.0290
     55  CG1       -3.1970   48.1230   19.4000 C.3    71  VAL71       0.0023
     56  CG2       -4.0750   49.6680   17.6510 C.3    71  VAL71       0.0023
     57  N         -0.2280   47.3710   18.4770 N.am   72  SER72      -0.1950
     58  CA         0.6170   46.3480   19.0810 C.3    72  SER72       0.1924
     59  C          0.7580   46.6830   20.5520 C.2    72  SER72       0.2314
     60  O          0.8670   47.8600   20.9020 O.2    72  SER72      -0.2863
     61  CB         2.0010   46.3320   18.4320 C.3    72  SER72       0.2116
     62  OG         2.0210   45.4760   17.3080 O.3    72  SER72      -0.2180
     63  N         -1.6130   41.9540   18.8770 N.3    88  ASN88      -0.1240
     64  CA        -1.3660   42.7270   17.6580 C.3    88  ASN88       0.1653
     65  C         -2.5560   42.5870   16.7070 C.2    88  ASN88       0.2266
     66  O         -3.1460   41.5230   16.6050 O.2    88  ASN88      -0.2867
     67  CB        -0.0920   42.2130   16.9800 C.3    88  ASN88       0.1155
     68  CG         0.3290   43.0470   15.7860 C.2    88  ASN88       0.2627
     69  OD1       -0.3760   43.1240   14.7870 O.2    88  ASN88      -0.2716
     70  ND2        1.5150   43.6500   15.8780 N.am   88  ASN88      -0.0877
     71  N         -3.1710   44.2180   12.6060 N.3    90  ARG90      -0.1245
     72  CA        -2.5690   45.0980   11.5980 C.3    90  ARG90       0.1563
     73  C         -3.0920   44.8660   10.1920 C.2    90  ARG90       0.2260
     74  O         -3.6380   43.8050    9.8850 O.2    90  ARG90      -0.2867
     75  CB        -1.0460   44.9490   11.6120 C.3    90  ARG90       0.0307
     76  CG        -0.5510   43.5920   11.1320 C.3    90  ARG90       0.0489
     77  CD         0.9500   43.4320   11.3600 C.3    90  ARG90       0.2205
     78  NE         1.4180   42.0820   11.0260 N.pl3  90  ARG90      -0.0865
     79  CZ         1.3020   41.0190   11.8260 C.cat  90  ARG90       0.5346
     80  NH1        0.7290   41.1190   13.0160 N.pl3  90  ARG90       0.1354
     81  NH2        1.7530   39.8380   11.4250 N.pl3  90  ARG90       0.1354
     82  N         -1.8210   45.5910    6.0760 N.3    92  PHE92      -0.1241
     83  CA        -0.8190   45.9490    5.0820 C.3    92  PHE92       0.1605
     84  C         -1.5250   46.0900    3.7410 C.2    92  PHE92       0.2264
     85  O         -2.3640   45.2600    3.3840 O.2    92  PHE92      -0.2867
     86  CB         0.2500   44.8590    4.9690 C.3    92  PHE92       0.0534
     87  CG         1.4280   45.0560    5.8770 C.ar   92  PHE92      -0.0203
     88  CD1        1.4410   44.5020    7.1430 C.ar   92  PHE92      -0.0042
     89  CD2        2.5340   45.7770    5.4520 C.ar   92  PHE92      -0.0042
     90  CE1        2.5280   44.6730    7.9750 C.ar   92  PHE92      -0.0003
     91  CE2        3.6260   45.9500    6.2860 C.ar   92  PHE92      -0.0003
     92  CZ         3.6200   45.3920    7.5470 C.ar   92  PHE92      -0.0000
     93  N          8.4260   41.2300   13.3800 N.3   225  GLY225     -0.1225
     94  CA         7.9430   42.6060   13.4480 C.3   225  GLY225      0.1811
     95  C          8.9830   43.5420   14.0270 C.2   225  GLY225      0.2280
     96  O          9.2300   44.6350   13.5130 O.2   225  GLY225     -0.2866
@<TRIPOS>BOND
     1    22    23    1
     2    23    26    1
     3    23    24    1
     4    26    27    1
     5    24    25    2
     6    28    27   ar
     7    28    30   ar
     8    27    29   ar
     9    85    84    2
    10    30    32   ar
    11    84    83    1
    12    29    31   ar
    13    32    31   ar
    14    86    83    1
    15    86    87    1
    16    83    82    1
    17    89    87   ar
    18    89    91   ar
    19    87    88   ar
    20    33    34    1
    21    18    17    2
    22    91    92   ar
    23    17    16    1
    24    34    37    1
    25    34    35    1
    26    88    90   ar
    27    92    90   ar
    28    45    44    1
    29    20    19    1
    30    16    19    1
    31    16    15    1
    32    35    36    2
    33    35    38   am
    34    19    21    1
    35    44    43    1
    36    38    39    1
    37    43    42    1
    38    74    73    2
    39    42    39    1
    40    39    40    1
    41    73    72    1
    42    41    40    2
    43    78    77    1
    44    78    79    2
    45    40    46   am
    46    76    77    1
    47    76    75    1
    48    81    79    1
    49    72    75    1
    50    72    71    1
    51    79    80    1
    52    12    11    2
    53    46    47    1
    54    11    10    1
    55    93    94    1
    56    47    48    1
    57    94    95    1
    58    96    95    2
    59    13    10    1
    60    13    14    1
    61    10     9    1
    62    69    68    2
    63    48    49    2
    64    48    50   am
    65    50    51    1
    66    68    70   am
    67    68    67    1
    68    66    65    2
    69    65    64    1
    70    67    64    1
    71    51    52    1
    72    51    54    1
    73    53    52    2
    74    62    61    1
    75    52    57   am
    76    56    54    1
    77    64    63    1
    78    54    55    1
    79    61    58    1
    80    57    58    1
    81     4     3    2
    82     3     2    1
    83    58    59    1
    84     5     2    1
    85     5     6    1
    86     2     1    1
    87     8     6   am
    88     6     7    2
    89    59    60    2
