@<TRIPOS>MOLECULE
tmp/3dwrB01.pdb
 104 95 0 0 0
SMALL
GASTEIGER

@<TRIPOS>ATOM
      1  N          0.6230   50.5440   21.3380 N.3    57  ASN57      -0.1240
      2  CA         1.0370   51.3950   20.2220 C.3    57  ASN57       0.1653
      3  C          0.0680   51.3660   19.0790 C.2    57  ASN57       0.2266
      4  O         -0.4140   50.3030   18.7090 O.2    57  ASN57      -0.2867
      5  CB         2.3540   50.8990   19.6420 C.3    57  ASN57       0.1155
      6  CG         3.5240   51.1830   20.5370 C.2    57  ASN57       0.2627
      7  OD1        3.4140   51.9380   21.5060 O.2    57  ASN57      -0.2716
      8  ND2        4.6550   50.5620   20.2350 N.am   57  ASN57      -0.0877
      9  N          0.4280   52.6180   15.0920 N.3    59  SER59      -0.1217
     10  CA         1.3080   53.1630   14.0510 C.3    59  SER59       0.1889
     11  C          0.6540   53.1360   12.6740 C.2    59  SER59       0.2288
     12  O         -0.1400   52.2530   12.3690 O.2    59  SER59      -0.2866
     13  CB         2.6590   52.4390   14.0220 C.3    59  SER59       0.2089
     14  OG         2.5100   51.0380   14.1340 O.3    59  SER59      -0.2183
     15  N         -0.2280   47.3710   18.4770 N.3    72  SER72      -0.1202
     16  CA         0.6170   46.3480   19.0810 C.3    72  SER72       0.2020
     17  C          0.7580   46.6830   20.5520 C.2    72  SER72       0.2619
     18  O          0.8670   47.8600   20.9020 O.2    72  SER72      -0.2717
     19  CB         2.0010   46.3320   18.4320 C.3    72  SER72       0.2103
     20  OG         2.0210   45.4760   17.3080 O.3    72  SER72      -0.2182
     21  N          0.8040   45.6610   21.4000 N.am   73  LEU73      -0.1965
     22  CA         0.8890   45.8830   22.8440 C.3    73  LEU73       0.1728
     23  C          1.5970   44.7560   23.5440 C.2    73  LEU73       0.2616
     24  O          1.5080   43.6040   23.1280 O.2    73  LEU73      -0.2715
     25  CB        -0.4990   46.0510   23.4660 C.3    73  LEU73       0.0311
     26  CG        -1.4530   44.8570   23.4370 C.3    73  LEU73       0.0022
     27  CD1       -1.3220   43.9870   24.6930 C.3    73  LEU73       0.0001
     28  CD2       -2.8860   45.3710   23.3330 C.3    73  LEU73       0.0001
     29  N          2.2870   45.1130   24.6170 N.am   74  VAL74      -0.1977
     30  CA         2.9110   44.1410   25.5140 C.3    74  VAL74       0.1596
     31  C          2.7360   44.6600   26.9310 C.2    74  VAL74       0.2287
     32  O          3.0160   45.8260   27.2090 O.2    74  VAL74      -0.2864
     33  CB         4.3880   43.9270   25.2180 C.3    74  VAL74       0.0276
     34  CG1        5.0250   42.9920   26.2710 C.3    74  VAL74       0.0022
     35  CG2        4.5930   43.3760   23.7930 C.3    74  VAL74       0.0022
     36  N          0.6080   39.8000   25.1930 N.3    86  HIS86      -0.1241
     37  CA         0.8970   40.5250   23.9780 C.3    86  HIS86       0.1621
     38  C         -0.2760   40.3590   23.0370 C.2    86  HIS86       0.2264
     39  O         -0.9410   39.3150   23.0200 O.2    86  HIS86      -0.2867
     40  CB         2.1680   39.9670   23.3400 C.3    86  HIS86       0.0745
     41  CG         2.3230   40.3000   21.8880 C.ar   86  HIS86       0.0817
     42  ND1        2.0560   39.3840   20.8940 N.ar   86  HIS86      -0.2268
     43  CD2        2.7020   41.4410   21.2610 C.ar   86  HIS86       0.1154
     44  CE1        2.2830   39.9480   19.7140 C.ar   86  HIS86       0.1986
     45  NE2        2.6750   41.1920   19.9090 N.ar   86  HIS86      -0.2212
     46  N         -1.6130   41.9540   18.8770 N.3    88  ASN88      -0.1240
     47  CA        -1.3660   42.7270   17.6580 C.3    88  ASN88       0.1653
     48  C         -2.5560   42.5870   16.7070 C.2    88  ASN88       0.2266
     49  O         -3.1460   41.5230   16.6050 O.2    88  ASN88      -0.2867
     50  CB        -0.0920   42.2130   16.9800 C.3    88  ASN88       0.1155
     51  CG         0.3290   43.0470   15.7860 C.2    88  ASN88       0.2627
     52  OD1       -0.3760   43.1240   14.7870 O.2    88  ASN88      -0.2716
     53  ND2        1.5150   43.6500   15.8780 N.am   88  ASN88      -0.0877
     54  N         11.7720   37.7400   16.6450 N.3   223  ASP223     -0.1239
     55  CA        10.5020   38.3530   16.2570 C.3   223  ASP223      0.1674
     56  C         10.6330   39.1330   14.9640 C.2   223  ASP223      0.2266
     57  O         11.4720   40.0140   14.8540 O.2   223  ASP223     -0.2867
     58  CB         9.9690   39.2720   17.3580 C.3   223  ASP223      0.1410
     59  CG         8.6170   39.8520   17.0100 C.2   223  ASP223      0.3668
     60  OD1        7.6880   39.0600   16.7970 O.co2 223  ASP223     -0.2456
     61  OD2        8.4790   41.0880   16.9310 O.co2 223  ASP223     -0.2456
     62  N          8.4260   41.2300   13.3800 N.3   225  GLY225     -0.1210
     63  CA         7.9430   42.6060   13.4480 C.3   225  GLY225      0.1956
     64  C          8.9830   43.5420   14.0270 C.2   225  GLY225      0.2612
     65  O          9.2300   44.6350   13.5130 O.2   225  GLY225     -0.2717
     66  N          9.6090   43.0890   15.1030 N.am  226  THR226     -0.1952
     67  CA        10.6800   43.8480   15.7350 C.3   226  THR226      0.1897
     68  C         11.8290   44.0910   14.7720 C.2   226  THR226      0.2313
     69  O         12.2810   45.2250   14.6090 O.2   226  THR226     -0.2863
     70  CB        11.1740   43.1200   16.9950 C.3   226  THR226      0.1794
     71  OG1       10.0920   43.0090   17.9220 O.3   226  THR226     -0.2208
     72  CG2       12.3270   43.8850   17.6520 C.3   226  THR226      0.0378
     73  N         10.8180   46.5600   11.8910 N.3   229  GLY229     -0.1225
     74  CA        10.7440   47.9160   12.4420 C.3   229  GLY229      0.1811
     75  C         12.1110   48.5520   12.6030 C.2   229  GLY229      0.2280
     76  O         12.3110   49.6960   12.2020 O.2   229  GLY229     -0.2866
     77  N          9.3490   53.0750   20.3690 N.3   238  SER238     -0.1202
     78  CA         8.0190   52.5270   20.1430 C.3   238  SER238      0.2020
     79  C          8.0850   51.0260   19.8370 C.2   238  SER238      0.2618
     80  O          7.2800   50.2320   20.3560 O.2   238  SER238     -0.2717
     81  CB         7.3220   53.2800   19.0070 C.3   238  SER238      0.2103
     82  OG         7.0920   54.6420   19.3570 O.3   238  SER238     -0.2182
     83  N          9.0610   50.6290   19.0220 N.am  239  ILE239     -0.1979
     84  CA         9.2400   49.2180   18.6590 C.3   239  ILE239      0.1595
     85  C          9.6220   48.3740   19.8740 C.2   239  ILE239      0.2287
     86  O          9.0930   47.2700   20.0820 O.2   239  ILE239     -0.2864
     87  CB        10.3120   49.0750   17.5410 C.3   239  ILE239      0.0276
     88  CG1        9.7850   49.7030   16.2480 C.3   239  ILE239      0.0022
     89  CG2       10.6980   47.5940   17.3160 C.3   239  ILE239      0.0022
     90  CD1       10.8540   50.0810   15.2770 C.3   239  ILE239      0.0001
     91  N          9.1270   48.8220   23.1310 N.3   241  ILE241     -0.1231
     92  CA         8.2580   48.7930   24.3330 C.3   241  ILE241      0.1692
     93  C          7.9940   47.3740   24.8290 C.2   241  ILE241      0.2592
     94  O          7.6420   47.1590   26.0000 O.2   241  ILE241     -0.2718
     95  CB         6.8950   49.4810   24.0960 C.3   241  ILE241      0.0266
     96  CG1        6.1240   48.7960   22.9470 C.3   241  ILE241      0.0019
     97  CG2        7.1300   50.9340   23.8380 C.3   241  ILE241      0.0020
     98  CD1        4.5860   48.7730   23.0550 C.3   241  ILE241      0.0001
     99  N          8.1690   46.4060   23.9340 N.am  242  SER242     -0.1952
    100  CA         7.9540   45.0050   24.2580 C.3   242  SER242      0.1924
    101  C          8.9640   44.4860   25.2730 C.2   242  SER242      0.2314
    102  O          8.7220   43.4790   25.9300 O.2   242  SER242     -0.2863
    103  CB         8.0260   44.1630   22.9870 C.3   242  SER242      0.2116
    104  OG         9.3440   44.1340   22.4540 O.3   242  SER242     -0.2180
@<TRIPOS>BOND
     1    73    74    1
     2    76    75    2
     3    12    11    2
     4    74    75    1
     5    11    10    1
     6    62    63    1
     7    63    64    1
     8    65    64    2
     9    13    10    1
    10    13    14    1
    11    64    66   am
    12    10     9    1
    13    69    68    2
    14    68    67    1
    15    52    51    2
    16    57    56    2
    17    56    55    1
    18    66    67    1
    19    90    88    1
    20    67    70    1
    21    51    53   am
    22    51    50    1
    23    88    87    1
    24    55    54    1
    25    55    58    1
    26    49    48    2
    27    48    47    1
    28    60    59   ar
    29    61    59   ar
    30    50    47    1
    31    70    72    1
    32    70    71    1
    33    59    58    1
    34    20    19    1
    35    89    87    1
    36    87    84    1
    37    47    46    1
    38    19    16    1
    39    15    16    1
    40    84    83    1
    41    84    85    1
    42     4     3    2
    43    81    82    1
    44    81    78    1
    45    83    79   am
    46     3     2    1
    47    16    17    1
    48     5     2    1
    49     5     6    1
    50    44    45   ar
    51    44    42   ar
    52    79    78    1
    53    79    80    2
    54    85    86    2
    55    45    43   ar
    56    78    77    1
    57     2     1    1
    58     8     6   am
    59     6     7    2
    60    17    18    2
    61    17    21   am
    62    42    41   ar
    63    43    41   ar
    64    21    22    1
    65    41    40    1
    66   104   103    1
    67    22    25    1
    68    22    23    1
    69    96    98    1
    70    96    95    1
    71   103   100    1
    72    39    38    2
    73    38    37    1
    74    24    23    2
    75    91    92    1
    76    28    26    1
    77    40    37    1
    78    26    25    1
    79    26    27    1
    80    23    29   am
    81    35    33    1
    82    97    95    1
    83    99   100    1
    84    99    93   am
    85    37    36    1
    86    95    92    1
    87   100   101    1
    88    92    93    1
    89    29    30    1
    90    93    94    2
    91    33    30    1
    92    33    34    1
    93   101   102    2
    94    30    31    1
    95    31    32    2
