@<TRIPOS>MOLECULE
tmp/3dwsB00.pdb
 122 117 0 0 0
SMALL
GASTEIGER

@<TRIPOS>ATOM
      1  N         39.4740   55.5470   27.5070 N.3    78  ARG78      -0.1245
      2  CA        40.7000   55.6360   26.7100 C.3    78  ARG78       0.1563
      3  C         40.4360   56.3640   25.3810 C.2    78  ARG78       0.2260
      4  O         41.3710   56.8790   24.7570 O.2    78  ARG78      -0.2867
      5  CB        41.2830   54.2400   26.4450 C.3    78  ARG78       0.0307
      6  CG        42.7870   54.2310   26.1640 C.3    78  ARG78       0.0489
      7  CD        43.2340   52.9320   25.4900 C.3    78  ARG78       0.2205
      8  NE        44.6800   52.7180   25.5900 N.pl3  78  ARG78      -0.0865
      9  CZ        45.3300   51.6680   25.0860 C.cat  78  ARG78       0.5346
     10  NH1       44.6710   50.7090   24.4380 N.pl3  78  ARG78       0.1354
     11  NH2       46.6480   51.5700   25.2390 N.pl3  78  ARG78       0.1354
     12  N         40.4410   35.9810   16.4110 N.3    92  SER92      -0.1217
     13  CA        41.0470   35.6860   17.6930 C.3    92  SER92       0.1889
     14  C         40.9140   34.2000   17.9310 C.2    92  SER92       0.2288
     15  O         39.8500   33.6240   17.6830 O.2    92  SER92      -0.2866
     16  CB        40.3090   36.4620   18.7870 C.3    92  SER92       0.2089
     17  OG        40.8060   36.1670   20.0710 O.3    92  SER92      -0.2183
     18  N         47.7910   31.0930   21.3230 N.3   106  HIS106     -0.1241
     19  CA        46.8380   32.1580   21.1320 C.3   106  HIS106      0.1621
     20  C         47.3410   33.0870   20.0420 C.2   106  HIS106      0.2264
     21  O         48.5350   33.3270   19.9090 O.2   106  HIS106     -0.2867
     22  CB        46.6460   32.9180   22.4510 C.3   106  HIS106      0.0745
     23  CG        46.1060   34.2970   22.2750 C.ar  106  HIS106      0.0817
     24  ND1       46.8970   35.4180   22.3820 N.ar  106  HIS106     -0.2268
     25  CD2       44.8610   34.7370   21.9700 C.ar  106  HIS106      0.1154
     26  CE1       46.1580   36.4940   22.1670 C.ar  106  HIS106      0.1986
     27  NE2       44.9190   36.1070   21.9100 N.ar  106  HIS106     -0.2212
     28  N         45.8020   36.6850   17.5310 N.3   108  ASN108     -0.1240
     29  CA        44.8110   37.7220   17.3450 C.3   108  ASN108      0.1653
     30  C         45.2930   38.7150   16.2860 C.2   108  ASN108      0.2266
     31  O         46.4470   39.1530   16.3030 O.2   108  ASN108     -0.2867
     32  CB        44.5880   38.4340   18.6810 C.3   108  ASN108      0.1155
     33  CG        43.5800   39.5740   18.5910 C.2   108  ASN108      0.2627
     34  OD1       43.8460   40.6620   19.0780 O.2   108  ASN108     -0.2716
     35  ND2       42.4250   39.3240   17.9890 N.am  108  ASN108     -0.0877
     36  N         43.3430   42.2730   14.5720 N.3   110  ARG110     -0.1245
     37  CA        42.1400   43.1030   14.5470 C.3   110  ARG110      0.1563
     38  C         42.3820   44.5040   13.9940 C.2   110  ARG110      0.2260
     39  O         43.5210   44.9740   13.9360 O.2   110  ARG110     -0.2867
     40  CB        41.5810   43.2240   15.9620 C.3   110  ARG110      0.0307
     41  CG        42.4840   43.9820   16.9060 C.3   110  ARG110      0.0489
     42  CD        41.8930   44.0260   18.2950 C.3   110  ARG110      0.2205
     43  NE        42.6250   44.9350   19.1740 N.pl3 110  ARG110     -0.0865
     44  CZ        43.7760   44.6430   19.7730 C.cat 110  ARG110      0.5346
     45  NH1       44.3510   43.4600   19.5980 N.pl3 110  ARG110      0.1354
     46  NH2       44.3580   45.5380   20.5580 N.pl3 110  ARG110      0.1354
     47  N         52.9800   42.4350   28.6270 N.3   170  TYR170     -0.1227
     48  CA        51.5450   42.2220   28.6090 C.3   170  TYR170      0.1736
     49  C         51.2130   40.8900   29.2590 C.2   170  TYR170      0.2595
     50  O         50.7290   40.8720   30.3820 O.2   170  TYR170     -0.2718
     51  CB        50.9730   42.2990   27.1790 C.3   170  TYR170      0.0548
     52  CG        49.4730   42.2810   27.1940 C.ar  170  TYR170     -0.0200
     53  CD1       48.7530   43.4150   27.5510 C.ar  170  TYR170     -0.0009
     54  CD2       48.7680   41.1270   26.9110 C.ar  170  TYR170     -0.0009
     55  CE1       47.3710   43.4090   27.6080 C.ar  170  TYR170      0.0417
     56  CE2       47.3760   41.1120   26.9570 C.ar  170  TYR170      0.0417
     57  CZ        46.6870   42.2570   27.3130 C.ar  170  TYR170      0.1957
     58  OH        45.3140   42.2480   27.3660 O.3   170  TYR170     -0.2866
     59  N         51.5020   39.7760   28.5820 N.am  171  PHE171     -0.1976
     60  CA        51.1270   38.4430   29.0920 C.3   171  PHE171      0.1639
     61  C         51.9830   38.0400   30.2970 C.2   171  PHE171      0.2290
     62  O         52.8630   37.1930   30.2030 O.2   171  PHE171     -0.2864
     63  CB        51.2060   37.3830   27.9870 C.3   171  PHE171      0.0560
     64  CG        50.2180   37.5990   26.8900 C.ar  171  PHE171     -0.0200
     65  CD1       48.8650   37.3790   27.1090 C.ar  171  PHE171     -0.0042
     66  CD2       50.6240   38.0730   25.6570 C.ar  171  PHE171     -0.0042
     67  CE1       47.9320   37.6100   26.1030 C.ar  171  PHE171     -0.0003
     68  CE2       49.6870   38.3080   24.6340 C.ar  171  PHE171     -0.0003
     69  CZ        48.3520   38.0690   24.8540 C.ar  171  PHE171     -0.0000
     70  N         53.2080   40.8270   20.4870 N.3   186  PHE186     -0.1241
     71  CA        52.0400   41.5790   20.9020 C.3   186  PHE186      0.1605
     72  C         52.1960   43.0300   20.4940 C.2   186  PHE186      0.2264
     73  O         53.2620   43.6030   20.6470 O.2   186  PHE186     -0.2867
     74  CB        51.8720   41.4890   22.4120 C.3   186  PHE186      0.0534
     75  CG        50.6450   42.1990   22.9350 C.ar  186  PHE186     -0.0203
     76  CD1       50.7500   43.4490   23.5160 C.ar  186  PHE186     -0.0042
     77  CD2       49.4030   41.6060   22.8650 C.ar  186  PHE186     -0.0042
     78  CE1       49.6380   44.0960   24.0200 C.ar  186  PHE186     -0.0003
     79  CE2       48.2880   42.2440   23.3660 C.ar  186  PHE186     -0.0003
     80  CZ        48.4030   43.4900   23.9430 C.ar  186  PHE186     -0.0000
     81  N         49.5850   46.8540   20.0240 N.3   188  ASP188     -0.1239
     82  CA        48.3110   47.5390   19.9900 C.3   188  ASP188      0.1674
     83  C         48.5220   48.9790   19.5480 C.2   188  ASP188      0.2266
     84  O         49.6550   49.4630   19.5260 O.2   188  ASP188     -0.2867
     85  CB        47.6740   47.5030   21.3770 C.3   188  ASP188      0.1410
     86  CG        46.1970   47.8130   21.3510 C.2   188  ASP188      0.3668
     87  OD1       45.6640   48.2310   20.2880 O.co2 188  ASP188     -0.2456
     88  OD2       45.5600   47.6240   22.4010 O.co2 188  ASP188     -0.2456
     89  N         43.6690   40.1540   31.2750 N.3   247  ASP247     -0.1225
     90  CA        43.4270   40.4490   29.8600 C.3   247  ASP247      0.1805
     91  C         42.3980   41.5810   29.6410 C.2   247  ASP247      0.2598
     92  O         41.2870   41.5050   30.1350 O.2   247  ASP247     -0.2718
     93  CB        42.9830   39.1780   29.1240 C.3   247  ASP247      0.1424
     94  CG        43.0170   39.3390   27.6350 C.2   247  ASP247      0.3668
     95  OD1       44.1200   39.6120   27.1150 O.co2 247  ASP247     -0.2456
     96  OD2       41.9520   39.2050   26.9900 O.co2 247  ASP247     -0.2456
     97  N         42.7910   42.6220   28.9060 N.am  248  ARG248     -0.1966
     98  CA        41.9200   43.7870   28.6020 C.3   248  ARG248      0.1729
     99  C         40.8020   43.4470   27.6290 C.2   248  ARG248      0.2616
    100  O         39.6690   43.9200   27.7690 O.2   248  ARG248     -0.2715
    101  CB        42.7330   44.9400   28.0220 C.3   248  ARG248      0.0348
    102  CG        43.6870   45.5630   29.0060 C.3   248  ARG248      0.0492
    103  CD        44.6220   46.5200   28.3080 C.3   248  ARG248      0.2205
    104  NE        45.7600   46.8420   29.1520 N.pl3 248  ARG248     -0.0865
    105  CZ        46.9880   47.0260   28.6890 C.cat 248  ARG248      0.5346
    106  NH1       47.2270   46.9100   27.3870 N.pl3 248  ARG248      0.1354
    107  NH2       47.9690   47.3160   29.5330 N.pl3 248  ARG248      0.1354
    108  N         41.1490   42.6630   26.6150 N.am  249  GLY249     -0.1955
    109  CA        40.1950   42.2200   25.6180 C.3   249  GLY249      0.1869
    110  C         39.0320   41.4800   26.2340 C.2   249  GLY249      0.2309
    111  O         37.8860   41.7120   25.8460 O.2   249  GLY249     -0.2863
    112  N         37.1490   44.1840   28.5150 N.3   252  PHE252     -0.1241
    113  CA        36.3490   45.1210   27.7170 C.3   252  PHE252      0.1605
    114  C         35.1550   44.4420   27.0250 C.2   252  PHE252      0.2264
    115  O         34.0270   44.9400   27.1110 O.2   252  PHE252     -0.2867
    116  CB        37.2400   45.8390   26.6850 C.3   252  PHE252      0.0534
    117  CG        36.4970   46.3740   25.4860 C.ar  252  PHE252     -0.0203
    118  CD1       35.8760   47.6030   25.5300 C.ar  252  PHE252     -0.0042
    119  CD2       36.4480   45.6490   24.3110 C.ar  252  PHE252     -0.0042
    120  CE1       35.2110   48.0900   24.4320 C.ar  252  PHE252     -0.0003
    121  CE2       35.7830   46.1320   23.2160 C.ar  252  PHE252     -0.0003
    122  CZ        35.1640   47.3530   23.2760 C.ar  252  PHE252     -0.0000
@<TRIPOS>BOND
     1    39    38    2
     2    38    37    1
     3    37    36    1
     4    37    40    1
     5    40    41    1
     6    30    31    2
     7    30    29    1
     8    12    13    1
     9    41    42    1
    10    29    28    1
    11    29    32    1
    12    15    14    2
    13    13    14    1
    14    13    16    1
    15    35    33   am
    16    42    43    1
    17    33    32    1
    18    33    34    2
    19    16    17    1
    20    43    44    2
    21    84    83    2
    22    83    82    1
    23    45    44    1
    24    44    46    1
    25    21    20    2
    26    82    81    1
    27    82    85    1
    28    20    19    1
    29    87    86   ar
    30    70    71    1
    31    72    73    2
    32    72    71    1
    33    71    74    1
    34    19    18    1
    35    19    22    1
    36    86    85    1
    37    86    88   ar
    38    27    25   ar
    39    27    26   ar
    40    25    23   ar
    41    26    24   ar
    42    23    24   ar
    43    23    22    1
    44    74    75    1
    45    77    75   ar
    46    77    79   ar
    47    75    76   ar
    48   121   122   ar
    49   121   119   ar
    50   122   120   ar
    51    79    80   ar
    52    76    78   ar
    53    80    78   ar
    54   119   117   ar
    55   120   118   ar
    56    10     9    1
    57    68    69   ar
    58    68    66   ar
    59     4     3    2
    60    69    67   ar
    61     9    11    1
    62     9     8    2
    63     3     2    1
    64   117   118   ar
    65   117   116    1
    66     7     8    1
    67     7     6    1
    68   109   110    1
    69   109   108    1
    70    66    64   ar
    71   111   110    2
    72    67    65   ar
    73     6     5    1
    74     5     2    1
    75   108    99   am
    76   116   113    1
    77     2     1    1
    78    64    65   ar
    79    64    63    1
    80    54    56   ar
    81    54    52   ar
    82    56    57   ar
    83    96    94   ar
    84   114   115    2
    85   114   113    1
    86    95    94   ar
    87    51    52    1
    88    51    48    1
    89    52    53   ar
    90    57    58    1
    91    57    55   ar
    92   106   105    1
    93    53    55   ar
    94    99   100    2
    95    99    98    1
    96    94    93    1
    97   113   112    1
    98    63    60    1
    99   101    98    1
   100   101   102    1
   101   103   102    1
   102   103   104    1
   103    59    60    1
   104    59    49   am
   105    98    97    1
   106    48    47    1
   107    48    49    1
   108   105   104    2
   109   105   107    1
   110    97    91   am
   111    60    61    1
   112    93    90    1
   113    49    50    2
   114    91    90    1
   115    91    92    2
   116    90    89    1
   117    62    61    2
