@<TRIPOS>MOLECULE
tmp/3dwwA00.pdb
 80 76 0 0 0
SMALL
GASTEIGER

@<TRIPOS>ATOM
      1  N         79.4350  -37.9720    7.4860 N.3    18  TYR18      -0.1241
      2  CA        78.6780  -39.0120    8.1710 C.3    18  TYR18       0.1605
      3  C         79.3230  -40.4140    8.4080 C.2    18  TYR18       0.2264
      4  O         78.7220  -41.2300    9.1290 O.2    18  TYR18      -0.2867
      5  CB        77.2470  -39.0950    7.6470 C.3    18  TYR18       0.0534
      6  CG        76.2400  -39.0610    8.7730 C.ar   18  TYR18      -0.0201
      7  CD1       75.5760  -37.8880    9.0910 C.ar   18  TYR18      -0.0009
      8  CD2       75.9700  -40.1930    9.5400 C.ar   18  TYR18      -0.0009
      9  CE1       74.6570  -37.8400   10.1160 C.ar   18  TYR18       0.0417
     10  CE2       75.0560  -40.1520   10.5780 C.ar   18  TYR18       0.0417
     11  CZ        74.4030  -38.9710   10.8540 C.ar   18  TYR18       0.1957
     12  OH        73.4880  -38.8970   11.8700 O.3    18  TYR18      -0.2866
     13  N         80.8630  -39.4460   11.5250 N.3    21  ALA21      -0.1231
     14  CA        79.7070  -39.4170   12.4120 C.3    21  ALA21       0.1694
     15  C         79.4450  -40.8040   13.0120 C.2    21  ALA21       0.2591
     16  O         79.2550  -40.9410   14.2210 O.2    21  ALA21      -0.2718
     17  CB        78.4880  -38.9290   11.6540 C.3    21  ALA21       0.0304
     18  N         79.4570  -41.8240   12.1570 N.am   22  ILE22      -0.1980
     19  CA        79.1760  -43.2040   12.5640 C.3    22  ILE22       0.1595
     20  C         80.3480  -43.8620   13.3350 C.2    22  ILE22       0.2287
     21  O         80.1190  -44.6660   14.2330 O.2    22  ILE22      -0.2864
     22  CB        78.6610  -44.0750   11.3440 C.3    22  ILE22       0.0276
     23  CG1       77.3550  -43.4920   10.7780 C.3    22  ILE22       0.0022
     24  CG2       78.4860  -45.5660   11.7220 C.3    22  ILE22       0.0022
     25  CD1       77.0150  -43.8800    9.3610 C.3    22  ILE22       0.0001
     26  N         83.1430  -42.0830   15.2680 N.3    24  THR24      -0.1203
     27  CA        83.1630  -41.3230   16.5290 C.3    24  THR24       0.1994
     28  C         82.1410  -41.8340   17.5480 C.2    24  THR24       0.2618
     29  O         82.5190  -42.4600   18.5500 O.2    24  THR24      -0.2717
     30  CB        82.9050  -39.7820   16.3230 C.3    24  THR24       0.1784
     31  OG1       81.7810  -39.5730   15.4520 O.3    24  THR24      -0.2211
     32  CG2       84.1480  -39.0590   15.7700 C.3    24  THR24       0.0376
     33  N         80.8570  -41.5780   17.2620 N.am   25  GLY25      -0.1942
     34  CA        79.7390  -41.8590   18.1680 C.3    25  GLY25       0.2014
     35  C         79.5220  -43.3150   18.5090 C.2    25  GLY25       0.2638
     36  O         79.2310  -43.6490   19.6590 O.2    25  GLY25      -0.2714
     37  N         79.6540  -44.1830   17.5070 N.am   26  GLN26      -0.1977
     38  CA        79.6100  -45.6250   17.7340 C.3    26  GLN26       0.1601
     39  C         80.7590  -46.0490   18.6450 C.2    26  GLN26       0.2287
     40  O         80.5320  -46.8400   19.5670 O.2    26  GLN26      -0.2864
     41  CB        79.6540  -46.4130   16.4240 C.3    26  GLN26       0.0394
     42  CG        78.4560  -46.2040   15.5020 C.3    26  GLN26       0.0908
     43  CD        77.2650  -47.1030   15.8200 C.2    26  GLN26       0.2608
     44  OE1       77.3240  -47.9540   16.7110 O.2    26  GLN26      -0.2717
     45  NE2       76.1660  -46.9060   15.0900 N.am   26  GLN26      -0.0878
     46  N         82.1560  -44.1930   20.7360 N.3    28  ARG28      -0.1231
     47  CA        81.8220  -43.5390   22.0100 C.3    28  ARG28       0.1694
     48  C         80.8110  -44.3270   22.8490 C.2    28  ARG28       0.2591
     49  O         81.0530  -44.5750   24.0330 O.2    28  ARG28      -0.2718
     50  CB        81.3420  -42.0870   21.8080 C.3    28  ARG28       0.0321
     51  CG        81.1470  -41.3100   23.1190 C.3    28  ARG28       0.0489
     52  CD        80.6180  -39.9000   22.8910 C.3    28  ARG28       0.2205
     53  NE        79.8220  -39.4260   24.0300 N.pl3  28  ARG28      -0.0865
     54  CZ        79.0240  -38.3560   24.0280 C.cat  28  ARG28       0.5346
     55  NH1       78.8820  -37.5990   22.9430 N.pl3  28  ARG28       0.1354
     56  NH2       78.3590  -38.0510   25.1290 N.pl3  28  ARG28       0.1354
     57  N         79.7000  -44.7460   22.2460 N.am   29  LEU29      -0.1980
     58  CA        78.6420  -45.4250   23.0050 C.3    29  LEU29       0.1596
     59  C         79.0690  -46.7850   23.5650 C.2    29  LEU29       0.2287
     60  O         78.3910  -47.3480   24.4300 O.2    29  LEU29      -0.2864
     61  CB        77.3280  -45.4950   22.2010 C.3    29  LEU29       0.0297
     62  CG        76.4000  -44.2720   22.4160 C.3    29  LEU29       0.0022
     63  CD1       75.7990  -43.6820   21.1190 C.3    29  LEU29       0.0001
     64  CD2       75.3080  -44.5640   23.4570 C.3    29  LEU29       0.0001
     65  N         84.5890  -35.1260   19.8120 N.3    58  CYS58      -0.1235
     66  CA        83.2010  -35.1790   19.3940 C.3    58  CYS58       0.1677
     67  C         82.7690  -33.8210   18.8400 C.2    58  CYS58       0.2270
     68  O         82.1860  -33.7350   17.7640 O.2    58  CYS58      -0.2867
     69  CB        82.3170  -35.6130   20.5570 C.3    58  CYS58       0.0956
     70  SG        82.5990  -37.3020   21.0720 S.3    58  CYS58      -0.0801
     71  N         82.9900  -33.2750   14.7420 N.3    62  HIS62      -0.1241
     72  CA        81.7310  -32.7180   14.2310 C.3    62  HIS62       0.1621
     73  C         81.9230  -31.3310   13.6660 C.2    62  HIS62       0.2264
     74  O         81.3100  -30.9960   12.6520 O.2    62  HIS62      -0.2867
     75  CB        80.7000  -32.6180   15.3430 C.3    62  HIS62       0.0745
     76  CG        79.9390  -33.8750   15.5580 C.ar   62  HIS62       0.0817
     77  ND1       80.2300  -34.7570   16.5730 N.ar   62  HIS62      -0.2268
     78  CD2       78.9090  -34.4130   14.8700 C.ar   62  HIS62       0.1154
     79  CE1       79.3990  -35.7790   16.5110 C.ar   62  HIS62       0.1986
     80  NE2       78.5850  -35.5950   15.4870 N.ar   62  HIS62      -0.2212
@<TRIPOS>BOND
     1     1     2    1
     2     5     2    1
     3     5     6    1
     4     2     3    1
     5     3     4    2
     6     6     7   ar
     7     6     8   ar
     8     7     9   ar
     9    25    23    1
    10     8    10   ar
    11     9    11   ar
    12    10    11   ar
    13    23    22    1
    14    11    12    1
    15    22    24    1
    16    22    19    1
    17    13    14    1
    18    17    14    1
    19    18    19    1
    20    18    15   am
    21    14    15    1
    22    19    20    1
    23    74    73    2
    24    15    16    2
    25    20    21    2
    26    73    72    1
    27    72    71    1
    28    72    75    1
    29    78    80   ar
    30    78    76   ar
    31    45    43   am
    32    26    27    1
    33    75    76    1
    34    31    30    1
    35    80    79   ar
    36    42    43    1
    37    42    41    1
    38    76    77   ar
    39    32    30    1
    40    43    44    2
    41    30    27    1
    42    41    38    1
    43    79    77   ar
    44    27    28    1
    45    33    28   am
    46    33    34    1
    47    37    38    1
    48    37    35   am
    49    28    29    2
    50    38    39    1
    51    68    67    2
    52    34    35    1
    53    35    36    2
    54    39    40    2
    55    67    66    1
    56    66    65    1
    57    66    69    1
    58    69    70    1
    59    46    47    1
    60    63    62    1
    61    50    47    1
    62    50    51    1
    63    47    48    1
    64    61    62    1
    65    61    58    1
    66    57    48   am
    67    57    58    1
    68    62    64    1
    69    48    49    2
    70    52    51    1
    71    52    53    1
    72    55    54    1
    73    58    59    1
    74    59    60    2
    75    54    53    2
    76    54    56    1
