@<TRIPOS>MOLECULE
tmp/3dwzA00.pdb
 128 120 0 0 0
SMALL
GASTEIGER

@<TRIPOS>ATOM
      1  N        -17.8520   12.4400   -3.9200 N.3    41  CYS41      -0.1221
      2  CA       -16.4030   12.4070   -3.9700 C.3    41  CYS41       0.1808
      3  C        -16.0220   11.9410   -5.3510 C.2    41  CYS41       0.2598
      4  O        -16.5930   12.3710   -6.3600 O.2    41  CYS41      -0.2717
      5  CB       -15.8050   11.4840   -2.9110 C.3    41  CYS41       0.0970
      6  SG       -16.2800   11.9750   -1.2380 S.3    41  CYS41      -0.0800
      7  N        -14.8870   10.9720   -5.7100 N.am   42  SER42      -0.2005
      8  CA       -14.3230   10.8220   -7.0600 C.3    42  SER42       0.1610
      9  C        -15.3350    9.9480   -7.7590 C.3    42  SER42       0.2063
     10  O        -14.9790    9.6030   -9.0400 O.3    42  SER42      -0.2184
     11  CB       -13.0100   10.0800   -6.9110 C.3    42  SER42       0.2063
     12  OG       -12.1500   11.1400   -6.4550 O.3    42  SER42      -0.2184
     13  N        -16.4040   10.6320  -11.4610 N.3    45  LYS45      -0.1245
     14  CA       -15.4860   10.4950  -12.6000 C.3    45  LYS45       0.1561
     15  C        -15.9230    9.4170  -13.5920 C.2    45  LYS45       0.2260
     16  O        -15.5650    9.4980  -14.7690 O.2    45  LYS45      -0.2867
     17  CB       -14.0200   10.2770  -12.1460 C.3    45  LYS45       0.0271
     18  CG       -13.4440   11.4800  -11.3810 C.3    45  LYS45       0.0035
     19  CD       -12.1750   11.1360  -10.6090 C.3    45  LYS45       0.0206
     20  CE       -11.8450   12.2440   -9.6170 C.3    45  LYS45       0.1093
     21  NZ       -10.5420   11.8520   -9.0140 N.3    45  LYS45      -0.1314
     22  N         -4.9140   18.7980   -6.2860 N.3    74  SER74      -0.1202
     23  CA        -5.5530   17.6710   -5.5950 C.3    74  SER74       0.2020
     24  C         -4.7240   16.4400   -5.9080 C.2    74  SER74       0.2618
     25  O         -3.8390   16.5140   -6.7380 O.2    74  SER74      -0.2717
     26  CB        -7.0080   17.4870   -6.0630 C.3    74  SER74       0.2103
     27  OG        -7.0700   17.2730   -7.4740 O.3    74  SER74      -0.2182
     28  N         -5.0010   15.3200   -5.2400 N.am   75  ILE75      -0.1979
     29  CA        -4.2880   14.0560   -5.4850 C.3    75  ILE75       0.1595
     30  C         -4.3630   13.7120   -6.9720 C.2    75  ILE75       0.2287
     31  O         -5.4530   13.6440   -7.5390 O.2    75  ILE75      -0.2864
     32  CB        -4.8990   12.8870   -4.6490 C.3    75  ILE75       0.0276
     33  CG1       -4.6410   13.1290   -3.1560 C.3    75  ILE75       0.0022
     34  CG2       -4.3320   11.5020   -5.1150 C.3    75  ILE75       0.0022
     35  CD1       -5.6260   12.3750   -2.2200 C.3    75  ILE75       0.0001
     36  N         -1.9900   11.2520   -9.1490 N.3    77  PRO77      -0.2116
     37  CA        -0.8440   10.3380   -9.2130 C.3    77  PRO77       0.1372
     38  C         -0.2280   10.2480  -10.6080 C.2    77  PRO77       0.2244
     39  O          1.0030   10.0600  -10.7410 O.2    77  PRO77      -0.2868
     40  CB        -1.4500    8.9820   -8.8020 C.3    77  PRO77       0.0268
     41  CG        -2.6990    9.3130   -8.0790 C.3    77  PRO77       0.0207
     42  CD        -3.2190   10.5580   -8.7260 C.3    77  PRO77       0.0892
     43  N         -6.7440    5.6410  -11.4630 N.3    99  TYR99      -0.1227
     44  CA        -5.9540    6.1690  -10.3330 C.3    99  TYR99       0.1736
     45  C         -6.7030    7.2490   -9.5560 C.2    99  TYR99       0.2596
     46  O         -6.1800    7.8330   -8.5870 O.2    99  TYR99      -0.2718
     47  CB        -4.5890    6.6920  -10.8070 C.3    99  TYR99       0.0548
     48  CG        -3.7140    5.5400  -11.2380 C.ar   99  TYR99      -0.0200
     49  CD1       -3.6900    5.1110  -12.5760 C.ar   99  TYR99      -0.0009
     50  CD2       -2.9670    4.8360  -10.3050 C.ar   99  TYR99      -0.0009
     51  CE1       -2.9060    4.0140  -12.9650 C.ar   99  TYR99       0.0417
     52  CE2       -2.1870    3.7490  -10.6860 C.ar   99  TYR99       0.0417
     53  CZ        -2.1600    3.3490  -12.0040 C.ar   99  TYR99       0.1957
     54  OH        -1.3690    2.2640  -12.3410 O.3    99  TYR99      -0.2866
     55  N         -7.9440    7.4800   -9.9710 N.am  100  SER100     -0.1952
     56  CA        -8.8060    8.5160   -9.4080 C.3   100  SER100      0.1924
     57  C         -8.0540    9.8500   -9.3840 C.2   100  SER100      0.2314
     58  O         -8.0120   10.5390   -8.3730 O.2   100  SER100     -0.2863
     59  CB        -9.3520    8.1280   -8.0230 C.3   100  SER100      0.2116
     60  OG       -10.4740    8.9480   -7.7060 O.3   100  SER100     -0.2180
     61  N         -7.2020   13.5820   -9.7220 N.3   102  GLY102     -0.1225
     62  CA        -8.0420   14.7860   -9.5530 C.3   102  GLY102      0.1811
     63  C         -7.8280   15.8290  -10.6410 C.2   102  GLY102      0.2280
     64  O         -8.7880   16.4440  -11.1450 O.2   102  GLY102     -0.2866
     65  N        -12.3290   19.6490   -8.2690 N.3   140  GLU140     -0.1231
     66  CA       -11.3580   19.2550   -7.2480 C.3   140  GLU140      0.1684
     67  C        -10.5100   20.4490   -6.8280 C.2   140  GLU140      0.2434
     68  O        -10.1540   21.2780   -7.6700 O.2   140  GLU140     -0.2733
     69  CB       -10.4340   18.1670   -7.7710 C.3   140  GLU140      0.0402
     70  CG       -11.1420   16.9710   -8.4020 C.3   140  GLU140      0.1161
     71  CD       -11.5580   15.9220   -7.4040 C.2   140  GLU140      0.3649
     72  OE1      -11.5130   16.1790   -6.1750 O.co2 140  GLU140     -0.2457
     73  OE2      -11.9450   14.8170   -7.8610 O.co2 140  GLU140     -0.2457
     74  N        -10.1650   20.5370   -5.5290 N.am  141  PRO141     -0.2729
     75  CA       -10.5200   19.6570   -4.4160 C.3   141  PRO141      0.1401
     76  C        -11.8280   20.0080   -3.6940 C.2   141  PRO141      0.2269
     77  O        -12.2410   19.2700   -2.7950 O.2   141  PRO141     -0.2865
     78  CB        -9.3600   19.8880   -3.4400 C.3   141  PRO141      0.0296
     79  CG        -9.0420   21.3050   -3.6140 C.3   141  PRO141      0.0237
     80  CD        -9.2530   21.6090   -5.0950 C.3   141  PRO141      0.0939
     81  N        -15.0970   17.6280   -2.5810 N.3   144  ASN144     -0.1240
     82  CA       -15.0090   16.6680   -1.4470 C.3   144  ASN144      0.1653
     83  C        -15.2200   17.2420   -0.0450 C.2   144  ASN144      0.2266
     84  O        -15.2230   16.4830    0.9760 O.2   144  ASN144     -0.2867
     85  CB       -13.6580   15.9420   -1.4910 C.3   144  ASN144      0.1155
     86  CG       -13.3710   15.3920   -2.8560 C.2   144  ASN144      0.2627
     87  OD1      -14.0120   14.4270   -3.2870 O.2   144  ASN144     -0.2716
     88  ND2      -12.4300   16.0220   -3.5730 N.am  144  ASN144     -0.0877
     89  N         -7.7400    1.2410   -7.6160 N.3   190  THR190     -0.1218
     90  CA        -7.9790    1.8200   -6.2950 C.3   190  THR190      0.1862
     91  C         -9.0230    1.0680   -5.4650 C.2   190  THR190      0.2287
     92  O         -9.3200    1.4870   -4.3440 O.2   190  THR190     -0.2866
     93  CB        -8.4450    3.2910   -6.3920 C.3   190  THR190      0.1770
     94  OG1       -9.7750    3.3050   -6.9180 O.3   190  THR190     -0.2211
     95  CG2       -7.5280    4.1240   -7.2800 C.3   190  THR190      0.0375
     96  N        -12.5050   -2.6720   -1.3510 N.3   194  ARG194     -0.1245
     97  CA       -13.8790   -2.2240   -1.2400 C.3   194  ARG194      0.1563
     98  C        -14.8360   -3.2680   -1.7700 C.2   194  ARG194      0.2260
     99  O        -14.8310   -4.4110   -1.2710 O.2   194  ARG194     -0.2867
    100  CB       -14.0390   -0.8150   -1.8290 C.3   194  ARG194      0.0307
    101  CG       -13.2210    0.1940   -0.9930 C.3   194  ARG194      0.0489
    102  CD       -13.2320    1.6180   -1.5650 C.3   194  ARG194      0.2205
    103  NE       -12.2560    2.4590   -0.8580 N.pl3 194  ARG194     -0.0865
    104  CZ       -12.3080    3.7950   -0.7770 C.cat 194  ARG194      0.5346
    105  NH1      -11.3540    4.4440   -0.1300 N.pl3 194  ARG194      0.1354
    106  NH2      -13.3220    4.4860   -1.3010 N.pl3 194  ARG194      0.1354
    107  N        -14.0090    4.2710   -7.1920 N.3   209  THR209     -0.1203
    108  CA       -14.0570    4.5870   -5.7570 C.3   209  THR209      0.1994
    109  C        -14.2310    6.0990   -5.5500 C.2   209  THR209      0.2618
    110  O        -14.1080    6.8910   -6.4870 O.2   209  THR209     -0.2717
    111  CB       -12.7390    4.1480   -5.0700 C.3   209  THR209      0.1784
    112  OG1      -11.6540    4.7440   -5.7830 O.3   209  THR209     -0.2211
    113  CG2      -12.5720    2.5860   -5.0910 C.3   209  THR209      0.0376
    114  N        -14.5520    6.4780   -4.3210 N.am  210  GLY210     -0.1942
    115  CA       -14.5080    7.8750   -3.9110 C.3   210  GLY210      0.2014
    116  C        -14.0740    7.9050   -2.4620 C.2   210  GLY210      0.2640
    117  O        -14.4680    7.0450   -1.6790 O.2   210  GLY210     -0.2714
    118  N        -13.2700    8.9030   -2.1010 N.am  211  THR211     -0.1936
    119  CA       -12.7900    9.0560   -0.7310 C.3   211  THR211      0.2028
    120  C        -12.7390   10.5680   -0.4780 C.2   211  THR211      0.2642
    121  O        -12.4050   11.3240   -1.3810 O.2   211  THR211     -0.2714
    122  CB       -11.3600    8.4530   -0.5500 C.3   211  THR211      0.1808
    123  OG1      -11.3530    7.0840   -0.9890 O.3   211  THR211     -0.2208
    124  CG2      -10.9650    8.5000    0.8840 C.3   211  THR211      0.0379
    125  N        -13.0820   10.9870    0.7360 N.am  212  GLY212     -0.1954
    126  CA       -13.1730   12.4030    1.0430 C.3   212  GLY212      0.1869
    127  C        -13.1290   12.7210    2.5170 C.2   212  GLY212      0.2309
    128  O        -12.9030   11.8470    3.3600 O.2   212  GLY212     -0.2863
@<TRIPOS>BOND
     1    16    15    2
     2    15    14    1
     3    51    49   ar
     4    51    53   ar
     5    14    17    1
     6    14    13    1
     7    49    48   ar
     8    54    53    1
     9    17    18    1
    10    53    52   ar
    11    43    44    1
    12    18    19    1
    13    48    47    1
    14    48    50   ar
    15    64    63    2
    16    47    44    1
    17    39    38    2
    18    52    50   ar
    19    63    62    1
    20    19    20    1
    21    38    37    1
    22    44    45    1
    23    55    45   am
    24    55    56    1
    25    61    62    1
    26    20    21    1
    27    45    46    2
    28    56    57    1
    29    56    59    1
    30    57    58    2
    31    37    36    1
    32    37    40    1
    33    36    42    1
    34    10     9    1
    35    40    41    1
    36    42    41    1
    37    70    69    1
    38    70    71    1
    39    65    66    1
    40    59    60    1
    41    73    71   ar
    42    69    66    1
    43     9     8    1
    44    68    67    2
    45    89    90    1
    46    31    30    2
    47    27    26    1
    48    71    72   ar
    49    95    93    1
    50    66    67    1
    51   107   108    1
    52     8    11    1
    53     8     7    1
    54    30    29    1
    55    94    93    1
    56    11    12    1
    57    67    74   am
    58    25    24    2
    59   110   109    2
    60    93    90    1
    61     4     3    2
    62    90    91    1
    63    22    23    1
    64    26    23    1
    65    24    23    1
    66    24    28   am
    67   112   111    1
    68   108   109    1
    69   108   111    1
    70     7     3   am
    71   109   114   am
    72    74    80    1
    73    74    75    1
    74    29    28    1
    75    29    32    1
    76    91    92    2
    77     3     2    1
    78    34    32    1
    79    80    79    1
    80   113   111    1
    81    32    33    1
    82    75    76    1
    83    75    78    1
    84   114   115    1
    85     2     1    1
    86     2     5    1
    87   115   116    1
    88    76    77    2
    89    79    78    1
    90    88    86   am
    91    87    86    2
    92    33    35    1
    93     5     6    1
    94    86    85    1
    95    81    82    1
    96   116   118   am
    97   116   117    2
    98   118   119    1
    99   100    97    1
   100   100   101    1
   101    98    99    2
   102    98    97    1
   103   102   101    1
   104   102   103    1
   105    85    82    1
   106    82    83    1
   107   121   120    2
   108    96    97    1
   109   106   104    1
   110   123   122    1
   111   103   104    2
   112   104   105    1
   113   119   122    1
   114   119   120    1
   115   122   124    1
   116   120   125   am
   117    83    84    2
   118   125   126    1
   119   126   127    1
   120   127   128    2
