@<TRIPOS>MOLECULE
tmp/3dx5A00.pdb
 155 149 0 0 0
SMALL
GASTEIGER

@<TRIPOS>ATOM
      1  N         67.7870   75.4130    9.6880 N.3     7  ILE7       -0.1245
      2  CA        68.1760   74.2350   10.4760 C.3     7  ILE7        0.1561
      3  C         69.6790   74.2520   10.8960 C.2     7  ILE7        0.2260
      4  O         70.0310   73.6860   11.9130 O.2     7  ILE7       -0.2867
      5  CB        67.8250   72.9010    9.7490 C.3     7  ILE7        0.0252
      6  CG1       67.7970   71.7120   10.7390 C.3     7  ILE7        0.0019
      7  CG2       68.7220   72.6610    8.4930 C.3     7  ILE7        0.0019
      8  CD1       67.1780   70.3580   10.1070 C.3     7  ILE7        0.0001
      9  N         58.3250   67.5650    8.0090 N.3    67  TYR67      -0.1241
     10  CA        58.2990   66.1090    8.1870 C.3    67  TYR67       0.1605
     11  C         56.8270   65.7720    8.2460 C.2    67  TYR67       0.2264
     12  O         56.1340   66.2160    9.1530 O.2    67  TYR67      -0.2867
     13  CB        58.9790   65.6970    9.5370 C.3    67  TYR67       0.0534
     14  CG        60.3370   66.3750    9.7680 C.ar   67  TYR67      -0.0201
     15  CD1       61.5340   65.7600    9.3430 C.ar   67  TYR67      -0.0009
     16  CD2       60.4240   67.6550   10.3770 C.ar   67  TYR67      -0.0009
     17  CE1       62.7810   66.4030    9.5180 C.ar   67  TYR67       0.0417
     18  CE2       61.6470   68.3000   10.5130 C.ar   67  TYR67       0.0417
     19  CZ        62.8190   67.6690   10.0930 C.ar   67  TYR67       0.1957
     20  OH        64.0450   68.3070   10.2600 O.3    67  TYR67      -0.2866
     21  N         59.1620   70.5260    1.8580 N.3    99  ARG99      -0.1245
     22  CA        60.0240   69.3620    1.8310 C.3    99  ARG99       0.1563
     23  C         59.5060   68.3310    2.8410 C.2    99  ARG99       0.2260
     24  O         59.1970   68.6600    3.9900 O.2    99  ARG99      -0.2867
     25  CB        61.4600   69.8020    2.1990 C.3    99  ARG99       0.0307
     26  CG        62.5750   68.7090    2.1450 C.3    99  ARG99       0.0489
     27  CD        62.5170   67.5930    3.2540 C.3    99  ARG99       0.2205
     28  NE        62.4160   68.0170    4.6600 N.pl3  99  ARG99      -0.0865
     29  CZ        63.4610   68.3260    5.4230 C.cat  99  ARG99       0.5346
     30  NH1       63.2700   68.6790    6.7030 N.pl3  99  ARG99       0.1354
     31  NH2       64.6970   68.2870    4.8970 N.pl3  99  ARG99       0.1354
     32  N         59.8640   63.7530    3.8310 N.3   101  PHE101     -0.1241
     33  CA        60.5850   62.4890    3.6340 C.3   101  PHE101      0.1605
     34  C         59.5810   61.4070    3.3170 C.2   101  PHE101      0.2264
     35  O         58.4430   61.4670    3.7920 O.2   101  PHE101     -0.2867
     36  CB        61.3890   62.1210    4.8890 C.3   101  PHE101      0.0534
     37  CG        62.5240   63.0760    5.1520 C.ar  101  PHE101     -0.0203
     38  CD1       63.6830   63.0280    4.3820 C.ar  101  PHE101     -0.0042
     39  CD2       62.4140   64.0570    6.1310 C.ar  101  PHE101     -0.0042
     40  CE1       64.7160   63.9250    4.5880 C.ar  101  PHE101     -0.0003
     41  CE2       63.4670   64.9490    6.3580 C.ar  101  PHE101     -0.0003
     42  CZ        64.5970   64.8880    5.5880 C.ar  101  PHE101     -0.0000
     43  N         62.7550   64.4580   -0.2630 N.3   137  GLU137     -0.1245
     44  CA        64.2110   64.5610   -0.1810 C.3   137  GLU137      0.1567
     45  C         64.8350   63.1540   -0.3710 C.2   137  GLU137      0.2260
     46  O         64.3310   62.1870    0.1640 O.2   137  GLU137     -0.2867
     47  CB        64.6010   65.1930    1.1670 C.3   137  GLU137      0.0388
     48  CG        66.0940   65.4210    1.2980 C.3   137  GLU137      0.1160
     49  CD        66.4100   66.4510    2.3420 C.2   137  GLU137      0.3649
     50  OE1       65.6520   67.4320    2.4960 O.co2 137  GLU137     -0.2457
     51  OE2       67.4370   66.2770    3.0000 O.co2 137  GLU137     -0.2457
     52  N         67.0830   60.4210    0.6600 N.3   139  HIS139     -0.1241
     53  CA        67.5850   60.1090    1.9970 C.3   139  HIS139      0.1621
     54  C         67.7060   58.6140    2.2690 C.2   139  HIS139      0.2264
     55  O         66.8130   57.8610    1.8750 O.2   139  HIS139     -0.2867
     56  CB        66.6110   60.6440    3.0450 C.3   139  HIS139      0.0745
     57  CG        67.2200   61.6790    3.9070 C.ar  139  HIS139      0.0817
     58  ND1       67.2890   61.5640    5.2770 N.ar  139  HIS139     -0.2268
     59  CD2       67.8840   62.8180    3.5810 C.ar  139  HIS139      0.1154
     60  CE1       67.8930   62.6340    5.7650 C.ar  139  HIS139      0.1986
     61  NE2       68.2690   63.4050    4.7530 N.ar  139  HIS139     -0.2212
     62  N         69.4780   65.6640   -2.7060 N.3   167  ASP167     -0.1239
     63  CA        70.5400   65.8340   -1.6930 C.3   167  ASP167      0.1674
     64  C         71.6970   64.9500   -2.1860 C.2   167  ASP167      0.2266
     65  O         71.6740   63.7250   -2.0460 O.2   167  ASP167     -0.2867
     66  CB        69.9810   65.4230   -0.3230 C.3   167  ASP167      0.1410
     67  CG        70.9530   65.6680    0.8320 C.2   167  ASP167      0.3668
     68  OD1       72.1740   65.4450    0.6910 O.co2 167  ASP167     -0.2456
     69  OD2       70.4680   66.0530    1.9110 O.co2 167  ASP167     -0.2456
     70  N         73.5840   62.2440   -0.0270 N.3   170  HIS170     -0.1241
     71  CA        72.8550   61.0180    0.1890 C.3   170  HIS170      0.1621
     72  C         72.7330   60.1740   -1.0510 C.2   170  HIS170      0.2264
     73  O         72.6850   58.9540   -0.9620 O.2   170  HIS170     -0.2867
     74  CB        71.4920   61.2860    0.8350 C.3   170  HIS170      0.0745
     75  CG        71.6270   61.8240    2.2260 C.ar  170  HIS170      0.0817
     76  ND1       72.3950   61.1900    3.1840 N.ar  170  HIS170     -0.2268
     77  CD2       71.1660   62.9610    2.7990 C.ar  170  HIS170      0.1154
     78  CE1       72.3630   61.8960    4.3040 C.ar  170  HIS170      0.1986
     79  NE2       71.6240   62.9740    4.0990 N.ar  170  HIS170     -0.2212
     80  N         70.1400   70.1130   -1.9950 N.3   193  HIS193     -0.1241
     81  CA        70.9260   70.2330   -0.7610 C.3   193  HIS193      0.1621
     82  C         72.3540   69.8890   -1.1060 C.2   193  HIS193      0.2264
     83  O         72.5980   68.8550   -1.7410 O.2   193  HIS193     -0.2867
     84  CB        70.4150   69.2380    0.3060 C.3   193  HIS193      0.0745
     85  CG        69.2500   69.7520    1.0910 C.ar  193  HIS193      0.0817
     86  ND1       68.6840   69.0510    2.1450 N.ar  193  HIS193     -0.2268
     87  CD2       68.5510   70.9090    0.9840 C.ar  193  HIS193      0.1154
     88  CE1       67.6950   69.7660    2.6560 C.ar  193  HIS193      0.1986
     89  NE2       67.5920   70.8960    1.9670 N.ar  193  HIS193     -0.2212
     90  N         75.9420   69.1540    0.7680 N.3   195  LYS195     -0.1245
     91  CA        76.8060   69.0180    1.9480 C.3   195  LYS195      0.1561
     92  C         77.8400   67.9540    1.5970 C.2   195  LYS195      0.2260
     93  O         77.6790   67.2400    0.6010 O.2   195  LYS195     -0.2867
     94  CB        76.0000   68.6950    3.2440 C.3   195  LYS195      0.0271
     95  CG        75.1310   67.3910    3.1980 C.3   195  LYS195      0.0035
     96  CD        74.4800   67.1460    4.5820 C.3   195  LYS195      0.0206
     97  CE        73.6530   65.8420    4.6260 C.3   195  LYS195      0.1093
     98  NZ        72.4680   65.8810    3.6960 N.3   195  LYS195     -0.1314
     99  N         75.3450   61.8870    9.7690 N.3   206  PHE206     -0.1241
    100  CA        74.1050   62.4310    9.2330 C.3   206  PHE206      0.1605
    101  C         72.8240   61.7310    9.6490 C.2   206  PHE206      0.2264
    102  O         71.7430   62.1370    9.2290 O.2   206  PHE206     -0.2867
    103  CB        74.1560   62.5530    7.7170 C.3   206  PHE206      0.0534
    104  CG        75.2360   63.4680    7.2470 C.ar  206  PHE206     -0.0203
    105  CD1       75.3360   64.7810    7.7510 C.ar  206  PHE206     -0.0042
    106  CD2       76.1770   63.0240    6.3390 C.ar  206  PHE206     -0.0042
    107  CE1       76.3560   65.6400    7.3140 C.ar  206  PHE206     -0.0003
    108  CE2       77.1950   63.8850    5.8900 C.ar  206  PHE206     -0.0003
    109  CZ        77.2840   65.1840    6.3790 C.ar  206  PHE206     -0.0000
    110  N         69.5760   61.3080   11.4810 N.3   208  PRO208     -0.2116
    111  CA        68.7600   62.3920   12.0450 C.3   208  PRO208      0.1372
    112  C         68.9170   62.5180   13.5560 C.2   208  PRO208      0.2244
    113  O         69.0970   63.6210   14.0550 O.2   208  PRO208     -0.2868
    114  CB        67.3240   62.0200   11.6060 C.3   208  PRO208      0.0268
    115  CG        67.5680   61.4030   10.2100 C.3   208  PRO208      0.0207
    116  CD        68.8270   60.5240   10.4510 C.3   208  PRO208      0.0892
    117  N         72.1460   64.3040   14.1860 N.3   211  VAL211     -0.1231
    118  CA        72.0220   65.6800   13.7230 C.3   211  VAL211      0.1692
    119  C         71.2150   66.5420   14.7120 C.2   211  VAL211      0.2592
    120  O         71.6280   67.6790   15.0090 O.2   211  VAL211     -0.2718
    121  CB        71.4280   65.7650   12.2970 C.3   211  VAL211      0.0266
    122  CG1       71.0030   67.2420   11.9380 C.3   211  VAL211      0.0020
    123  CG2       72.4430   65.2500   11.2650 C.3   211  VAL211      0.0020
    124  N         70.0960   66.0140   15.2370 N.am  212  TYR212     -0.1976
    125  CA        69.2260   66.8290   16.1020 C.3   212  TYR212      0.1639
    126  C         69.7530   67.0240   17.5270 C.2   212  TYR212      0.2290
    127  O         69.3660   67.9950   18.1760 O.2   212  TYR212     -0.2864
    128  CB        67.7720   66.3080   16.1670 C.3   212  TYR212      0.0560
    129  CG        67.1660   66.0350   14.8020 C.ar  212  TYR212     -0.0198
    130  CD1       67.4410   66.8730   13.6980 C.ar  212  TYR212     -0.0009
    131  CD2       66.2950   64.9470   14.6220 C.ar  212  TYR212     -0.0009
    132  CE1       66.8850   66.5980   12.4150 C.ar  212  TYR212      0.0417
    133  CE2       65.7310   64.6880   13.3710 C.ar  212  TYR212      0.0417
    134  CZ        66.0380   65.4890   12.2770 C.ar  212  TYR212      0.1957
    135  OH        65.4460   65.1720   11.0590 O.3   212  TYR212     -0.2866
    136  N         73.6010   72.9160    3.2050 N.3   247  GLU247     -0.1245
    137  CA        73.0170   72.2490    4.3560 C.3   247  GLU247      0.1567
    138  C         74.0870   71.8830    5.3640 C.2   247  GLU247      0.2260
    139  O         74.4930   70.7040    5.4560 O.2   247  GLU247     -0.2867
    140  CB        72.3000   70.9760    3.9090 C.3   247  GLU247      0.0388
    141  CG        71.3220   70.4340    4.9600 C.3   247  GLU247      0.1160
    142  CD        70.6230   69.1610    4.4900 C.2   247  GLU247      0.3649
    143  OE1       71.2490   68.4020    3.7160 O.co2 247  GLU247     -0.2457
    144  OE2       69.4490   68.9310    4.8880 O.co2 247  GLU247     -0.2457
    145  N         75.4080   71.0720    9.0050 N.3   249  PHE249     -0.1241
    146  CA        74.9320   70.5850   10.2900 C.3   249  PHE249      0.1605
    147  C         76.0340   70.6770   11.3720 C.2   249  PHE249      0.2264
    148  O         75.8150   70.2670   12.4970 O.2   249  PHE249     -0.2867
    149  CB        74.4910   69.1300   10.1460 C.3   249  PHE249      0.0534
    150  CG        73.2190   68.9530    9.3700 C.ar  249  PHE249     -0.0203
    151  CD1       72.1030   69.7470    9.6550 C.ar  249  PHE249     -0.0042
    152  CD2       73.1200   67.9730    8.3900 C.ar  249  PHE249     -0.0042
    153  CE1       70.9160   69.5700    9.0110 C.ar  249  PHE249     -0.0003
    154  CE2       71.9140   67.7770    7.7110 C.ar  249  PHE249     -0.0003
    155  CZ        70.8100   68.5930    8.0090 C.ar  249  PHE249     -0.0000
@<TRIPOS>BOND
     1    62    63    1
     2    64    65    2
     3    64    63    1
     4    80    81    1
     5    83    82    2
     6    63    66    1
     7    82    81    1
     8    72    73    2
     9    72    71    1
    10    81    84    1
    11    45    44    1
    12    45    46    2
    13    66    67    1
    14    43    44    1
    15    44    47    1
    16    70    71    1
    17    71    74    1
    18    84    85    1
    19    93    92    2
    20    52    53    1
    21    68    67   ar
    22    90    91    1
    23    67    69   ar
    24    74    75    1
    25    87    85   ar
    26    87    89   ar
    27    85    86   ar
    28    47    48    1
    29    48    49    1
    30    92    91    1
    31    22    21    1
    32    22    25    1
    33    22    23    1
    34    55    54    2
    35    91    94    1
    36    89    88   ar
    37    53    54    1
    38    53    56    1
    39    86    88   ar
    40    26    25    1
    41    26    27    1
    42    75    77   ar
    43    75    76   ar
    44    49    50   ar
    45    49    51   ar
    46    77    79   ar
    47    23    24    2
    48    56    57    1
    49    76    78   ar
    50    95    94    1
    51    95    96    1
    52   136   137    1
    53    27    28    1
    54    34    33    1
    55    34    35    2
    56    59    57   ar
    57    59    61   ar
    58    33    32    1
    59    33    36    1
    60    98    97    1
    61   143   142   ar
    62    57    58   ar
    63   140   137    1
    64   140   141    1
    65    79    78   ar
    66   137   138    1
    67    38    40   ar
    68    38    37   ar
    69   142   144   ar
    70   142   141    1
    71    96    97    1
    72    40    42   ar
    73    28    29    2
    74    61    60   ar
    75    36    37    1
    76    31    29    1
    77    37    39   ar
    78    58    60   ar
    79   138   139    2
    80    29    30    1
    81    42    41   ar
    82   108   106   ar
    83   108   109   ar
    84    39    41   ar
    85   106   104   ar
    86   109   107   ar
    87   104   103    1
    88   104   105   ar
    89   107   105   ar
    90   154   155   ar
    91   154   152   ar
    92   103   100    1
    93   155   153   ar
    94     9    10    1
    95    10    11    1
    96    10    13    1
    97    11    12    2
    98   152   150   ar
    99     7     5    1
   100   145   146    1
   101   153   151   ar
   102   102   101    2
   103   100   101    1
   104   100    99    1
   105    15    17   ar
   106    15    14   ar
   107   150   151   ar
   108   150   149    1
   109    17    19   ar
   110    13    14    1
   111     1     2    1
   112     5     2    1
   113     5     6    1
   114    14    16   ar
   115    19    20    1
   116    19    18   ar
   117     8     6    1
   118   149   146    1
   119   115   116    1
   120   115   114    1
   121   146   147    1
   122    16    18   ar
   123   116   110    1
   124     2     3    1
   125     3     4    2
   126   135   134    1
   127   123   121    1
   128   147   148    2
   129   110   111    1
   130   114   111    1
   131   122   121    1
   132   111   112    1
   133   134   132   ar
   134   134   133   ar
   135   121   118    1
   136   132   130   ar
   137   133   131   ar
   138   112   113    2
   139   130   129   ar
   140   118   117    1
   141   118   119    1
   142   131   129   ar
   143   119   120    2
   144   119   124   am
   145   129   128    1
   146   124   125    1
   147   125   128    1
   148   125   126    1
   149   126   127    2
