@<TRIPOS>MOLECULE
tmp/3dx7A00.pdb
 265 251 0 0 0
SMALL
GASTEIGER

@<TRIPOS>ATOM
      1  N         14.0490  -18.3900  -28.4130 N.3     5  MET5       -0.1245
      2  CA        13.6830  -17.1360  -29.0580 C.3     5  MET5        0.1570
      3  C         12.2510  -16.8520  -28.6610 C.2     5  MET5        0.2261
      4  O         11.4170  -17.7430  -28.7200 O.2     5  MET5       -0.2867
      5  CB        13.7700  -17.2290  -30.5830 C.3     5  MET5        0.0387
      6  CG        13.3960  -15.9210  -31.2600 C.3     5  MET5        0.0595
      7  SD        13.8110  -15.8860  -33.0080 S.3     5  MET5       -0.1393
      8  CE        12.6230  -17.0610  -33.6500 C.3     5  MET5        0.0692
      9  N          9.0770  -13.6680  -28.7810 N.3     7  TYR7       -0.1241
     10  CA         8.5510  -12.3440  -29.0940 C.3     7  TYR7        0.1605
     11  C          7.4570  -12.0550  -28.0900 C.2     7  TYR7        0.2264
     12  O          6.6760  -12.9480  -27.7520 O.2     7  TYR7       -0.2867
     13  CB         7.9780  -12.2580  -30.5070 C.3     7  TYR7        0.0534
     14  CG         9.0350  -12.2860  -31.5710 C.ar    7  TYR7       -0.0201
     15  CD1        9.3620  -13.4730  -32.2170 C.ar    7  TYR7       -0.0009
     16  CD2        9.7230  -11.1320  -31.9270 C.ar    7  TYR7       -0.0009
     17  CE1       10.3430  -13.5090  -33.1830 C.ar    7  TYR7        0.0417
     18  CE2       10.7090  -11.1590  -32.8950 C.ar    7  TYR7        0.0417
     19  CZ        11.0090  -12.3580  -33.5220 C.ar    7  TYR7        0.1957
     20  OH        11.9760  -12.4210  -34.4930 O.3     7  TYR7       -0.2866
     21  N          4.4210   -9.2530  -27.1800 N.3     9  TYR9       -0.1241
     22  CA         3.5420   -8.1590  -27.6060 C.3     9  TYR9        0.1605
     23  C          2.8400   -7.5650  -26.3980 C.2     9  TYR9        0.2264
     24  O          2.3750   -8.3050  -25.5310 O.2     9  TYR9       -0.2867
     25  CB         2.4180   -8.6670  -28.5020 C.3     9  TYR9        0.0534
     26  CG         2.7710   -9.2360  -29.8460 C.ar    9  TYR9       -0.0201
     27  CD1        4.0900   -9.3760  -30.2810 C.ar    9  TYR9       -0.0009
     28  CD2        1.7580   -9.6790  -30.6830 C.ar    9  TYR9       -0.0009
     29  CE1        4.3650   -9.9120  -31.5470 C.ar    9  TYR9        0.0417
     30  CE2        2.0250  -10.2100  -31.9260 C.ar    9  TYR9        0.0417
     31  CZ         3.3210  -10.3300  -32.3550 C.ar    9  TYR9        0.1957
     32  OH         3.5690  -10.8740  -33.5990 O.3     9  TYR9       -0.2866
     33  N          6.3140   -4.4420  -29.5940 N.3    24  THR24      -0.1218
     34  CA         6.8890   -5.7810  -29.7110 C.3    24  THR24       0.1862
     35  C          8.3560   -5.7120  -29.3350 C.2    24  THR24       0.2287
     36  O          9.0560   -4.7800  -29.7310 O.2    24  THR24      -0.2866
     37  CB         6.7490   -6.3320  -31.1450 C.3    24  THR24       0.1770
     38  OG1        5.3610   -6.5420  -31.4310 O.3    24  THR24      -0.2211
     39  CG2        7.4960   -7.6670  -31.2990 C.3    24  THR24       0.0375
     40  N         10.5460   -1.8890  -37.1260 N.3    45  LYS45      -0.1245
     41  CA        11.3350   -2.8380  -36.3580 C.3    45  LYS45       0.1561
     42  C         12.7610   -2.3020  -36.3560 C.2    45  LYS45       0.2260
     43  O         13.2920   -1.9510  -37.4080 O.2    45  LYS45      -0.2867
     44  CB        11.2810   -4.2300  -36.9830 C.3    45  LYS45       0.0271
     45  CG        10.0540   -5.0330  -36.5800 C.3    45  LYS45       0.0035
     46  CD        10.3790   -5.9870  -35.4500 C.3    45  LYS45       0.0206
     47  CE         9.1800   -6.7780  -34.9850 C.3    45  LYS45       0.1093
     48  NZ         8.5130   -7.5400  -36.0670 N.3    45  LYS45      -0.1314
     49  N         14.3030   -8.2120  -44.8940 N.3    59  TYR59      -0.1241
     50  CA        14.0230   -8.6410  -43.5260 C.3    59  TYR59       0.1605
     51  C         13.3250   -7.5300  -42.7490 C.2    59  TYR59       0.2264
     52  O         12.2510   -7.7370  -42.1700 O.2    59  TYR59      -0.2867
     53  CB        15.3380   -9.0230  -42.8340 C.3    59  TYR59       0.0534
     54  CG        15.1960   -9.4300  -41.3820 C.ar   59  TYR59      -0.0201
     55  CD1       15.0990  -10.7670  -41.0200 C.ar   59  TYR59      -0.0009
     56  CD2       15.1650   -8.4750  -40.3800 C.ar   59  TYR59      -0.0009
     57  CE1       14.9700  -11.1380  -39.6770 C.ar   59  TYR59       0.0417
     58  CE2       15.0430   -8.8400  -39.0400 C.ar   59  TYR59       0.0417
     59  CZ        14.9430  -10.1660  -38.7030 C.ar   59  TYR59       0.1957
     60  OH        14.8120  -10.5030  -37.3660 O.3    59  TYR59      -0.2866
     61  N          9.8170   -6.5980  -44.0840 N.3    62  ARG62      -0.1231
     62  CA         8.8440   -7.6310  -43.7450 C.3    62  ARG62       0.1694
     63  C          8.5040   -7.5780  -42.2540 C.2    62  ARG62       0.2591
     64  O          7.3380   -7.6160  -41.8660 O.2    62  ARG62      -0.2718
     65  CB         9.3850   -9.0120  -44.1130 C.3    62  ARG62       0.0321
     66  CG         8.4500  -10.1650  -43.8210 C.3    62  ARG62       0.0489
     67  CD         8.9870  -11.4990  -44.3480 C.3    62  ARG62       0.2205
     68  NE        10.3340  -11.7990  -43.8480 N.pl3  62  ARG62      -0.0865
     69  CZ        11.4750  -11.5570  -44.5000 C.cat  62  ARG62       0.5346
     70  NH1       11.4830  -11.0230  -45.7190 N.pl3  62  ARG62       0.1354
     71  NH2       12.6320  -11.8720  -43.9290 N.pl3  62  ARG62       0.1354
     72  N          9.5350   -7.4860  -41.4250 N.am   63  GLU63      -0.1979
     73  CA         9.3420   -7.4400  -39.9740 C.3    63  GLU63       0.1602
     74  C          8.5330   -6.2280  -39.5390 C.2    63  GLU63       0.2287
     75  O          7.6920   -6.3190  -38.6370 O.2    63  GLU63      -0.2864
     76  CB        10.6970   -7.4660  -39.2670 C.3    63  GLU63       0.0415
     77  CG        11.3380   -8.8210  -39.3050 C.3    63  GLU63       0.1163
     78  CD        10.6930   -9.8040  -38.3310 C.2    63  GLU63       0.3649
     79  OE1       10.4270   -9.3980  -37.1770 O.co2  63  GLU63      -0.2457
     80  OE2       10.4600  -10.9690  -38.7130 O.co2  63  GLU63      -0.2457
     81  N          6.3550   -4.5710  -41.4930 N.3    65  GLN65      -0.1231
     82  CA         4.9790   -4.7620  -41.9650 C.3    65  GLN65       0.1698
     83  C          4.1720   -5.6610  -41.0320 C.2    65  GLN65       0.2592
     84  O          3.0000   -5.3950  -40.7610 O.2    65  GLN65      -0.2718
     85  CB         4.9390   -5.3200  -43.3900 C.3    65  GLN65       0.0381
     86  CG         3.5320   -5.4520  -43.9640 C.3    65  GLN65       0.0905
     87  CD         2.7060   -4.1750  -43.8310 C.2    65  GLN65       0.2608
     88  OE1        1.5550   -4.2120  -43.3950 O.2    65  GLN65      -0.2717
     89  NE2        3.2960   -3.0400  -44.1940 N.am   65  GLN65      -0.0878
     90  N          4.8010   -6.7250  -40.5460 N.am   66  ILE66      -0.1966
     91  CA         4.1610   -7.6260  -39.5940 C.3    66  ILE66       0.1727
     92  C          3.6900   -6.8160  -38.3890 C.2    66  ILE66       0.2616
     93  O          2.5230   -6.8940  -37.9880 O.2    66  ILE66      -0.2715
     94  CB         5.1230   -8.7530  -39.1480 C.3    66  ILE66       0.0290
     95  CG1        5.3240   -9.7550  -40.2880 C.3    66  ILE66       0.0022
     96  CG2        4.5660   -9.4840  -37.9360 C.3    66  ILE66       0.0023
     97  CD1        6.4320  -10.7520  -40.0450 C.3    66  ILE66       0.0001
     98  N          4.5900   -6.0070  -37.8450 N.am   67  SER67      -0.1950
     99  CA         4.2760   -5.2200  -36.6590 C.3    67  SER67       0.1924
    100  C          3.2260   -4.1430  -36.9250 C.2    67  SER67       0.2314
    101  O          2.3810   -3.8860  -36.0760 O.2    67  SER67      -0.2863
    102  CB         5.5400   -4.6080  -36.0740 C.3    67  SER67       0.2116
    103  OG         6.3910   -5.6380  -35.6200 O.3    67  SER67      -0.2180
    104  N          0.8700   -4.2780  -39.2300 N.3    69  THR69      -0.1203
    105  CA        -0.3730   -5.0230  -39.3370 C.3    69  THR69       0.1994
    106  C         -0.8770   -5.4130  -37.9490 C.2    69  THR69       0.2617
    107  O         -2.0600   -5.2450  -37.6500 O.2    69  THR69      -0.2717
    108  CB        -0.2090   -6.2710  -40.2070 C.3    69  THR69       0.1784
    109  OG1        0.1620   -5.8730  -41.5370 O.3    69  THR69      -0.2211
    110  CG2       -1.5060   -7.0620  -40.2600 C.3    69  THR69       0.0376
    111  N          0.0230   -5.9100  -37.1020 N.am   70  ASN70      -0.1974
    112  CA        -0.3480   -6.2850  -35.7310 C.3    70  ASN70       0.1688
    113  C         -0.9210   -5.1170  -34.9390 C.2    70  ASN70       0.2292
    114  O         -1.8340   -5.2990  -34.1380 O.2    70  ASN70      -0.2864
    115  CB         0.8500   -6.8520  -34.9610 C.3    70  ASN70       0.1181
    116  CG         1.1930   -8.2830  -35.3410 C.2    70  ASN70       0.2629
    117  OD1        2.3380   -8.7170  -35.1630 O.2    70  ASN70      -0.2716
    118  ND2        0.2170   -9.0240  -35.8530 N.am   70  ASN70      -0.0877
    119  N         -4.4910   -5.1090  -35.9290 N.3    73  THR73      -0.1218
    120  CA        -5.1490   -6.3390  -35.4850 C.3    73  THR73       0.1862
    121  C         -5.4180   -6.3260  -33.9860 C.2    73  THR73       0.2287
    122  O         -6.5100   -6.6920  -33.5400 O.2    73  THR73      -0.2866
    123  CB        -4.2890   -7.5600  -35.8420 C.3    73  THR73       0.1770
    124  OG1       -4.1900   -7.6630  -37.2730 O.3    73  THR73      -0.2211
    125  CG2       -4.8730   -8.8390  -35.2560 C.3    73  THR73       0.0375
    126  N         -8.6280   -6.5700  -31.6000 N.3    77  ASN77      -0.1240
    127  CA        -8.7250   -7.5710  -30.5250 C.3    77  ASN77       0.1653
    128  C         -9.1230   -6.9340  -29.2070 C.2    77  ASN77       0.2266
    129  O         -9.8350   -7.5450  -28.4190 O.2    77  ASN77      -0.2867
    130  CB        -7.4160   -8.3300  -30.3290 C.3    77  ASN77       0.1155
    131  CG        -7.0760   -9.2690  -31.4880 C.2    77  ASN77       0.2627
    132  OD1       -5.9140   -9.6390  -31.6580 O.2    77  ASN77      -0.2716
    133  ND2       -8.0700   -9.6750  -32.2520 N.am   77  ASN77      -0.0877
    134  N          0.9380  -11.0570  -25.5950 N.3    97  ARG97      -0.1245
    135  CA         1.2040  -12.3320  -26.2490 C.3    97  ARG97       0.1563
    136  C          2.6790  -12.6250  -26.0950 C.2    97  ARG97       0.2260
    137  O          3.4980  -11.7280  -26.2070 O.2    97  ARG97      -0.2867
    138  CB         0.8700  -12.2660  -27.7360 C.3    97  ARG97       0.0307
    139  CG         1.0630  -13.5850  -28.4800 C.3    97  ARG97       0.0489
    140  CD         0.9680  -13.3930  -29.9850 C.3    97  ARG97       0.2205
    141  NE         1.1800  -14.6430  -30.7120 N.pl3  97  ARG97      -0.0865
    142  CZ         1.3840  -14.7200  -32.0280 C.cat  97  ARG97       0.5346
    143  NH1        1.4630  -13.6230  -32.7800 N.pl3  97  ARG97       0.1354
    144  NH2        1.5570  -15.9060  -32.5990 N.pl3  97  ARG97       0.1354
    145  N          5.3230  -15.6990  -27.6450 N.3    99  TYR99      -0.1241
    146  CA         5.4350  -16.8840  -28.4820 C.3    99  TYR99       0.1605
    147  C          6.8590  -17.0750  -28.9340 C.2    99  TYR99       0.2264
    148  O          7.6570  -16.1460  -28.9230 O.2    99  TYR99      -0.2867
    149  CB         4.4830  -16.8160  -29.6860 C.3    99  TYR99       0.0534
    150  CG         4.9470  -15.9770  -30.8610 C.ar   99  TYR99      -0.0201
    151  CD1        5.6240  -16.5570  -31.9320 C.ar   99  TYR99      -0.0009
    152  CD2        4.6650  -14.6200  -30.9320 C.ar   99  TYR99      -0.0009
    153  CE1        6.0240  -15.7980  -33.0210 C.ar   99  TYR99       0.0417
    154  CE2        5.0680  -13.8520  -32.0190 C.ar   99  TYR99       0.0417
    155  CZ         5.7410  -14.4490  -33.0680 C.ar   99  TYR99       0.1957
    156  OH         6.1530  -13.7150  -34.1630 O.3    99  TYR99      -0.2866
    157  N          2.9500  -20.4370  -27.5570 N.3   114  ASP114     -0.1239
    158  CA         2.1390  -19.3050  -27.9860 C.3   114  ASP114      0.1674
    159  C          1.0610  -19.1040  -26.9440 C.2   114  ASP114      0.2266
    160  O          0.1830  -19.9440  -26.7920 O.2   114  ASP114     -0.2867
    161  CB         1.5180  -19.5410  -29.3690 C.3   114  ASP114      0.1410
    162  CG         0.9630  -18.2670  -29.9890 C.2   114  ASP114      0.3668
    163  OD1        0.9310  -17.2180  -29.3100 O.co2 114  ASP114     -0.2456
    164  OD2        0.5480  -18.3130  -31.1690 O.co2 114  ASP114     -0.2456
    165  N        -13.1280  -20.1180  -32.6820 N.3   146  LYS146     -0.1231
    166  CA       -12.7220  -19.4440  -33.9140 C.3   146  LYS146      0.1693
    167  C        -11.4170  -20.0170  -34.4470 C.2   146  LYS146      0.2592
    168  O        -11.2660  -20.2460  -35.6450 O.2   146  LYS146     -0.2718
    169  CB       -12.5050  -17.9480  -33.6700 C.3   146  LYS146      0.0285
    170  CG       -13.7550  -17.1260  -33.4570 C.3   146  LYS146      0.0035
    171  CD       -13.3940  -15.6490  -33.5460 C.3   146  LYS146      0.0206
    172  CE       -14.5480  -14.7540  -33.1890 C.3   146  LYS146      0.1093
    173  NZ       -14.1560  -13.3260  -33.3460 N.3   146  LYS146     -0.1314
    174  N        -10.4610  -20.2200  -33.5480 N.am  147  TRP147     -0.1976
    175  CA        -9.1350  -20.6900  -33.9420 C.3   147  TRP147      0.1640
    176  C         -9.1290  -22.1560  -34.3440 C.2   147  TRP147      0.2290
    177  O         -8.3850  -22.5440  -35.2450 O.2   147  TRP147     -0.2864
    178  CB        -8.1240  -20.3990  -32.8310 C.3   147  TRP147      0.0576
    179  CG        -7.8500  -18.9360  -32.6930 C.ar  147  TRP147      0.0006
    180  CD1       -8.4410  -17.9130  -33.3880 C.ar  147  TRP147      0.0946
    181  CD2       -6.9300  -18.3270  -31.7910 C.ar  147  TRP147      0.0152
    182  NE1       -7.9410  -16.7070  -32.9730 N.ar  147  TRP147     -0.2442
    183  CE2       -7.0070  -16.9330  -31.9940 C.ar  147  TRP147      0.0810
    184  CE3       -6.0490  -18.8220  -30.8240 C.ar  147  TRP147      0.0012
    185  CZ2       -6.2340  -16.0310  -31.2690 C.ar  147  TRP147      0.0191
    186  CZ3       -5.2830  -17.9230  -30.1030 C.ar  147  TRP147      0.0001
    187  CH2       -5.3850  -16.5430  -30.3300 C.ar  147  TRP147      0.0015
    188  N        -10.5750  -22.2620  -37.8970 N.3   150  ALA150     -0.1245
    189  CA        -9.6100  -21.8000  -38.8940 C.3   150  ALA150      0.1562
    190  C         -8.2950  -22.5950  -38.9030 C.2   150  ALA150      0.2260
    191  O         -7.3820  -22.2490  -39.6430 O.2   150  ALA150     -0.2867
    192  CB        -9.3160  -20.3230  -38.6830 C.3   150  ALA150      0.0290
    193  N         -5.8400  -22.6440  -36.8280 N.3   152  VAL152     -0.1245
    194  CA        -4.7450  -21.7420  -36.4780 C.3   152  VAL152      0.1561
    195  C         -3.5680  -22.4970  -35.8650 C.2   152  VAL152      0.2260
    196  O         -2.4050  -22.1790  -36.1370 O.2   152  VAL152     -0.2867
    197  CB        -5.2430  -20.6260  -35.5200 C.3   152  VAL152      0.0252
    198  CG1       -4.0820  -19.8290  -34.9380 C.3   152  VAL152      0.0019
    199  CG2       -6.2200  -19.7050  -36.2640 C.3   152  VAL152      0.0019
    200  N         -1.1650  -23.7880  -38.4520 N.3   155  GLN155     -0.1231
    201  CA        -0.3300  -22.7250  -39.0220 C.3   155  GLN155      0.1698
    202  C          0.8150  -22.3660  -38.0710 C.2   155  GLN155      0.2592
    203  O          1.9600  -22.1740  -38.4960 O.2   155  GLN155     -0.2718
    204  CB        -1.1590  -21.4680  -39.3080 C.3   155  GLN155      0.0381
    205  CG        -2.2300  -21.6330  -40.3740 C.3   155  GLN155      0.0905
    206  CD        -2.8080  -20.3040  -40.8280 C.2   155  GLN155      0.2608
    207  OE1       -3.4380  -19.5860  -40.0480 O.2   155  GLN155     -0.2717
    208  NE2       -2.6010  -19.9710  -42.0990 N.am  155  GLN155     -0.0878
    209  N          0.4940  -22.2560  -36.7850 N.am  156  LEU156     -0.1980
    210  CA         1.5070  -21.9640  -35.7620 C.3   156  LEU156      0.1596
    211  C          2.5560  -23.0590  -35.6780 C.2   156  LEU156      0.2287
    212  O          3.7530  -22.7800  -35.5810 O.2   156  LEU156     -0.2864
    213  CB         0.8690  -21.8100  -34.3810 C.3   156  LEU156      0.0297
    214  CG         0.5410  -20.4050  -33.9080 C.3   156  LEU156      0.0022
    215  CD1       -0.1370  -20.5320  -32.5700 C.3   156  LEU156      0.0001
    216  CD2        1.8030  -19.5630  -33.8080 C.3   156  LEU156      0.0001
    217  N          5.0730  -22.7730  -38.3680 N.3   159  TYR159     -0.1241
    218  CA         6.0350  -21.7130  -38.0750 C.3   159  TYR159      0.1605
    219  C          7.0290  -22.1720  -37.0060 C.2   159  TYR159      0.2264
    220  O          8.2400  -21.9810  -37.1440 O.2   159  TYR159     -0.2867
    221  CB         5.3130  -20.4440  -37.5870 C.3   159  TYR159      0.0534
    222  CG         6.2460  -19.4760  -36.9110 C.ar  159  TYR159     -0.0201
    223  CD1        7.1170  -18.6800  -37.6490 C.ar  159  TYR159     -0.0009
    224  CD2        6.2700  -19.3580  -35.5220 C.ar  159  TYR159     -0.0009
    225  CE1        7.9820  -17.7970  -37.0190 C.ar  159  TYR159      0.0417
    226  CE2        7.1340  -18.4980  -34.8990 C.ar  159  TYR159      0.0417
    227  CZ         7.9860  -17.7120  -35.6440 C.ar  159  TYR159      0.1957
    228  OH         8.8370  -16.8560  -34.9810 O.3   159  TYR159     -0.2866
    229  N         10.2740  -21.8320  -39.5740 N.3   163  LEU163     -0.1245
    230  CA        10.9300  -20.5240  -39.5560 C.3   163  LEU163      0.1561
    231  C         11.4600  -20.1280  -38.1770 C.2   163  LEU163      0.2260
    232  O         12.5250  -19.5150  -38.0770 O.2   163  LEU163     -0.2867
    233  CB         9.9790  -19.4460  -40.0670 C.3   163  LEU163      0.0270
    234  CG        10.5120  -18.0110  -40.1010 C.3   163  LEU163      0.0019
    235  CD1       11.7720  -17.8900  -40.9570 C.3   163  LEU163      0.0001
    236  CD2        9.4100  -17.0880  -40.5840 C.3   163  LEU163      0.0001
    237  N         15.3610  -19.4560  -38.1240 N.3   167  SER167     -0.1217
    238  CA        15.8750  -18.1130  -37.8500 C.3   167  SER167      0.1889
    239  C         16.7070  -18.0880  -36.5640 C.2   167  SER167      0.2288
    240  O         17.7640  -17.4610  -36.5230 O.2   167  SER167     -0.2866
    241  CB        14.7460  -17.0800  -37.8020 C.3   167  SER167      0.2089
    242  OG        13.8020  -17.3840  -36.7930 O.3   167  SER167     -0.2183
    243  N         20.1170  -19.2980  -37.2370 N.3   170  ARG170     -0.1231
    244  CA        20.9110  -18.2850  -37.9300 C.3   170  ARG170      0.1694
    245  C         21.4060  -17.2290  -36.9500 C.2   170  ARG170      0.2592
    246  O         22.5770  -16.8320  -36.9900 O.2   170  ARG170     -0.2718
    247  CB        20.1120  -17.6110  -39.0530 C.3   170  ARG170      0.0321
    248  CG        20.9420  -16.6110  -39.8410 C.3   170  ARG170      0.0489
    249  CD        20.2370  -16.1080  -41.0960 C.3   170  ARG170      0.2205
    250  NE        19.1230  -15.2100  -40.7870 N.pl3 170  ARG170     -0.0865
    251  CZ        17.8380  -15.5610  -40.7840 C.cat 170  ARG170      0.5346
    252  NH1       17.4690  -16.7990  -41.0810 N.pl3 170  ARG170      0.1354
    253  NH2       16.9060  -14.6590  -40.4920 N.pl3 170  ARG170      0.1354
    254  N         20.5190  -16.7740  -36.0700 N.am  171  TYR171     -0.1976
    255  CA        20.8800  -15.7770  -35.0670 C.3   171  TYR171      0.1639
    256  C         21.9970  -16.2820  -34.1520 C.2   171  TYR171      0.2290
    257  O         22.9350  -15.5480  -33.8460 O.2   171  TYR171     -0.2864
    258  CB        19.6510  -15.3860  -34.2290 C.3   171  TYR171      0.0560
    259  CG        18.4910  -14.7900  -35.0190 C.ar  171  TYR171     -0.0198
    260  CD1       18.6820  -14.2040  -36.2710 C.ar  171  TYR171     -0.0009
    261  CD2       17.2030  -14.7910  -34.4950 C.ar  171  TYR171     -0.0009
    262  CE1       17.6160  -13.6510  -36.9720 C.ar  171  TYR171      0.0417
    263  CE2       16.1430  -14.2360  -35.1810 C.ar  171  TYR171      0.0417
    264  CZ        16.3470  -13.6750  -36.4230 C.ar  171  TYR171      0.1957
    265  OH        15.2670  -13.1450  -37.0950 O.3   171  TYR171     -0.2866
@<TRIPOS>BOND
     1    70    69    1
     2    49    50    1
     3    69    71    1
     4    69    68    2
     5    67    68    1
     6    67    66    1
     7    89    87   am
     8    65    66    1
     9    65    62    1
    10    61    62    1
    11    86    87    1
    12    86    85    1
    13    87    88    2
    14    62    63    1
    15    50    53    1
    16    50    51    1
    17    85    82    1
    18    53    54    1
    19    51    52    2
    20    63    64    2
    21    63    72   am
    22   208   206   am
    23    82    81    1
    24    82    83    1
    25   109   108    1
    26    72    73    1
    27    54    55   ar
    28    54    56   ar
    29   249   250    1
    30   249   248    1
    31   252   251    1
    32    83    84    2
    33    83    90   am
    34    55    57   ar
    35   235   234    1
    36   206   205    1
    37   206   207    2
    38   250   251    2
    39   251   253    1
    40   236   234    1
    41    90    91    1
    42    56    58   ar
    43   205   204    1
    44    95    97    1
    45    95    94    1
    46   110   108    1
    47   108   105    1
    48   234   233    1
    49   233   230    1
    50    73    74    1
    51    73    76    1
    52   248   247    1
    53    57    59   ar
    54   191   190    2
    55    91    94    1
    56    91    92    1
    57   229   230    1
    58   230   231    1
    59    74    75    2
    60   105   104    1
    61   105   106    1
    62   204   201    1
    63    77    76    1
    64    77    78    1
    65    94    96    1
    66   247   244    1
    67    58    59   ar
    68   201   200    1
    69   201   202    1
    70   190   189    1
    71   189   192    1
    72   189   188    1
    73    80    78   ar
    74    59    60    1
    75   203   202    2
    76    92    93    2
    77    92    98   am
    78   217   218    1
    79    78    79   ar
    80   231   232    2
    81   237   238    1
    82   218   221    1
    83   218   219    1
    84   202   209   am
    85   106   107    2
    86   106   111   am
    87   244   243    1
    88   244   245    1
    89   238   241    1
    90   238   239    1
    91    98    99    1
    92   241   242    1
    93   223   225   ar
    94   223   222   ar
    95   221   222    1
    96    43    42    2
    97   124   123    1
    98   220   219    2
    99    40    41    1
   100   111   112    1
   101   265   264    1
   102   225   227   ar
   103   246   245    2
   104    44    45    1
   105    44    41    1
   106   262   264   ar
   107   262   260   ar
   108   245   254   am
   109   100    99    1
   110   100   101    2
   111   222   224   ar
   112   193   194    1
   113   209   210    1
   114    99   102    1
   115    45    46    1
   116   239   240    2
   117   194   195    1
   118   194   197    1
   119   264   263   ar
   120    41    42    1
   121   260   259   ar
   122   199   197    1
   123   196   195    2
   124   102   103    1
   125   254   255    1
   126    48    47    1
   127   119   120    1
   128   118   116   am
   129   123   120    1
   130   123   125    1
   131   210   211    1
   132   210   213    1
   133   112   115    1
   134   112   113    1
   135   211   212    2
   136   168   167    2
   137   227   228    1
   138   227   226   ar
   139   224   226   ar
   140   197   198    1
   141   120   121    1
   142    46    47    1
   143   116   117    2
   144   116   115    1
   145   177   176    2
   146   263   261   ar
   147   255   258    1
   148   255   256    1
   149   259   261   ar
   150   259   258    1
   151   113   114    2
   152    20    19    1
   153   167   166    1
   154   167   174   am
   155   213   214    1
   156   176   175    1
   157   156   155    1
   158   256   257    2
   159   121   122    2
   160   175   174    1
   161   175   178    1
   162   166   169    1
   163   166   165    1
   164   214   216    1
   165   214   215    1
   166   169   170    1
   167     8     7    1
   168    32    31    1
   169   171   170    1
   170   171   172    1
   171    19    17   ar
   172    19    18   ar
   173   180   182   ar
   174   180   179   ar
   175   173   172    1
   176    17    15   ar
   177   155   153   ar
   178   155   154   ar
   179   153   151   ar
   180     7     6    1
   181   182   183   ar
   182    18    16   ar
   183   178   179    1
   184   143   142    1
   185   179   181   ar
   186   144   142    1
   187    31    30   ar
   188    31    29   ar
   189   133   131   am
   190    15    14   ar
   191   142   141    2
   192   154   152   ar
   193   183   181   ar
   194   183   185   ar
   195   151   150   ar
   196    16    14   ar
   197    30    28   ar
   198   181   184   ar
   199   132   131    2
   200   126   127    1
   201    14    13    1
   202    29    27   ar
   203   131   130    1
   204    38    37    1
   205    39    37    1
   206   185   187   ar
   207     6     5    1
   208   164   162   ar
   209    37    34    1
   210   152   150   ar
   211   150   149    1
   212   184   186   ar
   213   141   140    1
   214    28    26   ar
   215     5     2    1
   216   127   130    1
   217   127   128    1
   218    13    10    1
   219   187   186   ar
   220    27    26   ar
   221   162   161    1
   222   162   163   ar
   223   140   139    1
   224    26    25    1
   225    36    35    2
   226    34    33    1
   227    34    35    1
   228   149   146    1
   229   161   158    1
   230   128   129    2
   231    10     9    1
   232    10    11    1
   233     2     3    1
   234     2     1    1
   235   147   148    2
   236   147   146    1
   237     4     3    2
   238    25    22    1
   239   146   145    1
   240   139   138    1
   241    11    12    2
   242   158   157    1
   243   158   159    1
   244   138   135    1
   245    22    21    1
   246    22    23    1
   247   159   160    2
   248    23    24    2
   249   135   136    1
   250   135   134    1
   251   137   136    2
