@<TRIPOS>MOLECULE
tmp/3dxaJ00.pdb
 95 95 0 0 0
SMALL
GASTEIGER

@<TRIPOS>ATOM
      1  N        -36.2070   54.9920   48.6220 N.3    29  ASN29      -0.1225
      2  CA       -36.0430   54.8480   50.0540 C.3    29  ASN29       0.1785
      3  C        -36.7930   53.6380   50.5640 C.2    29  ASN29       0.2597
      4  O        -36.2300   52.7830   51.2410 O.2    29  ASN29      -0.2718
      5  CB       -36.5750   56.0960   50.7590 C.3    29  ASN29       0.1169
      6  CG       -35.8930   56.3480   52.0750 C.2    29  ASN29       0.2627
      7  OD1      -34.8550   55.7530   52.3680 O.2    29  ASN29      -0.2716
      8  ND2      -36.4640   57.2410   52.8830 N.am   29  ASN29      -0.0877
      9  N        -38.0690   53.5830   50.2030 N.am   30  ARG30      -0.1979
     10  CA       -39.0170   52.6400   50.7590 C.3    30  ARG30       0.1597
     11  C        -39.4100   51.5860   49.7240 C.2    30  ARG30       0.2287
     12  O        -39.4970   51.8860   48.5350 O.2    30  ARG30      -0.2864
     13  CB       -40.2550   53.4100   51.2110 C.3    30  ARG30       0.0334
     14  CG       -39.9650   54.4600   52.2840 C.3    30  ARG30       0.0492
     15  CD       -40.6160   55.8040   51.9720 C.3    30  ARG30       0.2205
     16  NE       -40.1790   56.8520   52.8990 N.pl3  30  ARG30      -0.0865
     17  CZ       -40.8080   57.2080   54.0210 C.cat  30  ARG30       0.5346
     18  NH1      -41.9350   56.6120   54.4000 N.pl3  30  ARG30       0.1354
     19  NH2      -40.3030   58.1790   54.7730 N.pl3  30  ARG30       0.1354
     20  N        -40.8890   53.5990   46.4630 N.3    94  ARG94      -0.1231
     21  CA       -41.0910   55.0400   46.4680 C.3    94  ARG94       0.1694
     22  C        -39.7500   55.7580   46.3910 C.2    94  ARG94       0.2592
     23  O        -38.7510   55.2740   46.9300 O.2    94  ARG94      -0.2718
     24  CB       -41.7780   55.4580   47.7570 C.3    94  ARG94       0.0321
     25  CG       -43.2560   55.2120   47.7770 C.3    94  ARG94       0.0489
     26  CD       -43.8330   55.5670   49.1330 C.3    94  ARG94       0.2205
     27  NE       -43.6700   56.9880   49.4450 N.pl3  94  ARG94      -0.0865
     28  CZ       -44.0400   57.5590   50.5860 C.cat  94  ARG94       0.5346
     29  NH1      -44.5960   56.8430   51.5530 N.pl3  94  ARG94       0.1354
     30  NH2      -43.8540   58.8560   50.7620 N.pl3  94  ARG94       0.1354
     31  N        -39.7340   56.9210   45.7450 N.am   95  TYR95      -0.1962
     32  CA       -38.5420   57.7670   45.6960 C.3    95  TYR95       0.1771
     33  C        -38.1810   58.2500   47.1020 C.2    95  TYR95       0.2619
     34  O        -38.9790   58.1360   48.0350 O.2    95  TYR95      -0.2715
     35  CB       -38.7860   58.9500   44.7530 C.3    95  TYR95       0.0574
     36  CG       -37.6050   59.8810   44.5740 C.ar   95  TYR95      -0.0198
     37  CD1      -37.6090   61.1570   45.1360 C.ar   95  TYR95      -0.0009
     38  CD2      -36.4800   59.4820   43.8510 C.ar   95  TYR95      -0.0009
     39  CE1      -36.5270   62.0160   44.9760 C.ar   95  TYR95       0.0417
     40  CE2      -35.3870   60.3320   43.6890 C.ar   95  TYR95       0.0417
     41  CZ       -35.4160   61.5970   44.2510 C.ar   95  TYR95       0.1957
     42  OH       -34.3350   62.4350   44.0820 O.3    95  TYR95      -0.2866
     43  N        -36.9660   58.7630   47.2600 N.am   96  ARG96      -0.1963
     44  CA       -36.5260   59.2730   48.5500 C.3    96  ARG96       0.1729
     45  C        -36.7230   60.7770   48.6880 C.2    96  ARG96       0.2616
     46  O        -35.7740   61.5020   48.9580 O.2    96  ARG96      -0.2715
     47  CB       -35.0660   58.8890   48.8310 C.3    96  ARG96       0.0348
     48  CG       -34.0400   59.3810   47.8240 C.3    96  ARG96       0.0492
     49  CD       -32.6400   59.1900   48.3520 C.3    96  ARG96       0.2205
     50  NE       -31.6370   59.5180   47.3480 N.pl3  96  ARG96      -0.0865
     51  CZ       -30.3230   59.4630   47.5460 C.cat  96  ARG96       0.5346
     52  NH1      -29.8300   59.0860   48.7190 N.pl3  96  ARG96       0.1354
     53  NH2      -29.4940   59.7900   46.5640 N.pl3  96  ARG96       0.1354
     54  N        -37.9560   61.2470   48.5060 N.am   97  ASP97      -0.1957
     55  CA       -38.3360   62.5930   48.9780 C.3    97  ASP97       0.1840
     56  C        -39.7440   62.6440   49.6480 C.2    97  ASP97       0.2622
     57  O        -39.8100   62.8800   50.8670 O.2    97  ASP97      -0.2715
     58  CB       -38.1340   63.6750   47.8920 C.3    97  ASP97       0.1450
     59  CG       -36.7680   64.3550   47.9700 C.2    97  ASP97       0.3671
     60  OD1      -36.2080   64.4970   49.0770 O.co2  97  ASP97      -0.2456
     61  OD2      -36.2610   64.7710   46.9140 O.co2  97  ASP97      -0.2456
     62  N        -40.8530   62.4410   48.9210 N.am   98  ASP98      -0.1957
     63  CA       -40.8910   62.3250   47.4640 C.3    98  ASP98       0.1840
     64  C        -41.1710   63.6470   46.7280 C.2    98  ASP98       0.2623
     65  O        -40.3330   64.0440   45.9260 O.2    98  ASP98      -0.2715
     66  CB       -41.9010   61.2700   46.9910 C.3    98  ASP98       0.1450
     67  CG       -41.7700   59.9470   47.7190 C.2    98  ASP98       0.3671
     68  OD1      -41.4500   59.9540   48.9270 O.co2  98  ASP98      -0.2456
     69  OD2      -42.0050   58.8960   47.0730 O.co2  98  ASP98      -0.2456
     70  N        -42.2730   64.3720   46.9740 N.am   99  SER99      -0.1936
     71  CA       -43.0960   64.3530   48.1970 C.3    99  SER99       0.2055
     72  C        -44.1800   63.2600   48.3520 C.2    99  SER99       0.2643
     73  O        -43.9600   62.2720   49.0540 O.2    99  SER99      -0.2714
     74  CB       -43.7730   65.7170   48.3330 C.3    99  SER99       0.2130
     75  OG       -44.7800   65.8660   47.3520 O.3    99  SER99      -0.2179
     76  N        -45.3390   63.4460   47.7180 N.am  100  TYR100     -0.1959
     77  CA       -46.5340   62.6170   47.9650 C.3   100  TYR100      0.1771
     78  C        -46.3260   61.0960   47.8970 C.2   100  TYR100      0.2619
     79  O        -45.2840   60.6340   47.4490 O.2   100  TYR100     -0.2715
     80  CB       -47.6690   63.0420   47.0300 C.3   100  TYR100      0.0574
     81  CG       -47.3240   63.1440   45.5470 C.ar  100  TYR100     -0.0198
     82  CD1      -46.8150   64.3230   45.0040 C.ar  100  TYR100     -0.0009
     83  CD2      -47.5550   62.0860   44.6850 C.ar  100  TYR100     -0.0009
     84  CE1      -46.5170   64.4270   43.6580 C.ar  100  TYR100      0.0417
     85  CE2      -47.2570   62.1840   43.3370 C.ar  100  TYR100      0.0417
     86  CZ       -46.7390   63.3580   42.8320 C.ar  100  TYR100      0.1957
     87  OH       -46.4430   63.4630   41.4930 O.3   100  TYR100     -0.2866
     88  N        -47.3220   60.3290   48.3490 N.am  101  ASN101     -0.1972
     89  CA       -47.2310   58.8490   48.4200 C.3   101  ASN101      0.1688
     90  C        -47.3880   58.1440   47.0500 C.2   101  ASN101      0.2292
     91  O        -48.4170   57.5260   46.7570 O.2   101  ASN101     -0.2864
     92  CB       -48.2600   58.3030   49.4340 C.3   101  ASN101      0.1181
     93  CG       -48.0670   56.8130   49.7520 C.2   101  ASN101      0.2629
     94  OD1      -47.2860   56.1140   49.1020 O.2   101  ASN101     -0.2716
     95  ND2      -48.7930   56.3250   50.7560 N.am  101  ASN101     -0.0877
@<TRIPOS>BOND
     1    87    86    1
     2    86    85   ar
     3    86    84   ar
     4    85    83   ar
     5    84    82   ar
     6    40    38   ar
     7    40    41   ar
     8    38    36   ar
     9    42    41    1
    10    41    39   ar
    11    36    35    1
    12    36    37   ar
    13    83    81   ar
    14    35    32    1
    15    39    37   ar
    16    82    81   ar
    17    81    80    1
    18    32    31    1
    19    32    33    1
    20    31    22   am
    21    65    64    2
    22    22    21    1
    23    22    23    2
    24    20    21    1
    25    21    24    1
    26    53    51    1
    27    64    70   am
    28    64    63    1
    29    91    90    2
    30    61    59   ar
    31    70    71    1
    32    66    63    1
    33    66    67    1
    34    80    77    1
    35    90    89    1
    36    69    67   ar
    37    33    43   am
    38    33    34    2
    39    43    44    1
    40    50    51    2
    41    50    49    1
    42    75    74    1
    43    79    78    2
    44    63    62    1
    45    51    52    1
    46    76    77    1
    47    76    72   am
    48    67    68   ar
    49    24    25    1
    50    25    26    1
    51    48    49    1
    52    48    47    1
    53    58    59    1
    54    58    55    1
    55    78    77    1
    56    78    88   am
    57    59    60   ar
    58    71    74    1
    59    71    72    1
    60    88    89    1
    61    72    73    2
    62    89    92    1
    63    54    45   am
    64    54    55    1
    65    12    11    2
    66    44    45    1
    67    44    47    1
    68     1     2    1
    69    45    46    2
    70    62    56   am
    71    55    56    1
    72    94    93    2
    73    26    27    1
    74    92    93    1
    75    27    28    2
    76    56    57    2
    77    11    10    1
    78    93    95   am
    79     2     3    1
    80     2     5    1
    81     9     3   am
    82     9    10    1
    83     3     4    2
    84    28    30    1
    85    28    29    1
    86     5     6    1
    87    10    13    1
    88    13    14    1
    89    15    14    1
    90    15    16    1
    91     6     7    2
    92     6     8   am
    93    16    17    2
    94    17    18    1
    95    17    19    1
