@<TRIPOS>MOLECULE
tmp/3dxgA01.pdb
 114 107 0 0 0
SMALL
GASTEIGER

@<TRIPOS>ATOM
      1  N         32.9410   13.7540   14.9470 N.3     4  ALA4       -0.1245
      2  CA        33.0950   12.3150   15.1530 C.3     4  ALA4        0.1562
      3  C         31.8410   11.5640   14.6880 C.2     4  ALA4        0.2260
      4  O         31.9350   10.5140   14.0640 O.2     4  ALA4       -0.2867
      5  CB        33.3820   12.0230   16.6200 C.3     4  ALA4        0.0290
      6  N         31.8480   11.5780   10.8660 N.3     7  LYS7       -0.1245
      7  CA        32.8650   10.6240   10.4280 C.3     7  LYS7        0.1561
      8  C         32.3580    9.1830   10.5190 C.2     7  LYS7        0.2260
      9  O         32.6140    8.3910    9.6190 O.2     7  LYS7       -0.2867
     10  CB        34.1490   10.7880   11.2330 C.3     7  LYS7        0.0271
     11  CG        35.3200    9.9880   10.7090 C.3     7  LYS7        0.0035
     12  CD        36.5700   10.3230   11.4880 C.3     7  LYS7        0.0206
     13  CE        37.7400    9.4890   11.0280 C.3     7  LYS7        0.1093
     14  NZ        38.9790    9.8770   11.7420 N.3     7  LYS7       -0.1314
     15  N         32.1110    6.7210    7.3110 N.3    11  GLN11      -0.1231
     16  CA        32.8680    5.4780    7.3140 C.3    11  GLN11       0.1698
     17  C         32.0110    4.2300    7.4480 C.2    11  GLN11       0.2592
     18  O         32.4300    3.1670    7.0100 O.2    11  GLN11      -0.2718
     19  CB        33.9160    5.5030    8.4240 C.3    11  GLN11       0.0381
     20  CG        34.9290    6.6420    8.2770 C.3    11  GLN11       0.0905
     21  CD        35.9850    6.6330    9.3620 C.2    11  GLN11       0.2608
     22  OE1       37.1330    7.0150    9.1260 O.2    11  GLN11      -0.2717
     23  NE2       35.6090    6.1840   10.5510 N.am   11  GLN11      -0.0878
     24  N         30.8230    4.3370    8.0520 N.am   12  HIS12      -0.1976
     25  CA        30.1080    3.1230    8.4560 C.3    12  HIS12       0.1656
     26  C         28.6460    3.0440    8.0880 C.2    12  HIS12       0.2291
     27  O         28.0440    1.9890    8.2480 O.2    12  HIS12      -0.2864
     28  CB        30.2650    2.8670    9.9610 C.3    12  HIS12       0.0771
     29  CG        31.6840    2.6920   10.3810 C.ar   12  HIS12       0.0820
     30  ND1       32.4420    1.6000   10.0140 N.ar   12  HIS12      -0.2267
     31  CD2       32.4790    3.4600   11.1630 C.ar   12  HIS12       0.1154
     32  CE1       33.6560    1.7210   10.5270 C.ar   12  HIS12       0.1986
     33  NE2       33.7090    2.8500   11.2130 N.ar   12  HIS12      -0.2212
     34  N         33.8650   -2.3560   25.3500 N.3    65  CYS65      -0.1235
     35  CA        34.5290   -2.1950   24.0670 C.3    65  CYS65       0.1677
     36  C         35.8000   -3.0140   24.0270 C.2    65  CYS65       0.2270
     37  O         36.4140   -3.2630   25.0670 O.2    65  CYS65      -0.2867
     38  CB        34.9180   -0.7190   23.8410 C.3    65  CYS65       0.0956
     39  SG        33.5790    0.4610   23.9640 S.3    65  CYS65      -0.0801
     40  N         38.7770   -2.1710   23.4250 N.3    67  ASN67      -0.1240
     41  CA        39.9280   -1.5290   24.0580 C.3    67  ASN67       0.1653
     42  C         39.7380   -1.3280   25.5600 C.2    67  ASN67       0.2266
     43  O         40.5920   -0.7060   26.2200 O.2    67  ASN67      -0.2867
     44  CB        40.2560   -0.1920   23.3840 C.3    67  ASN67       0.1155
     45  CG        39.2050    0.8760   23.6630 C.2    67  ASN67       0.2627
     46  OD1       38.2100    0.6520   24.3730 O.2    67  ASN67      -0.2716
     47  ND2       39.4400    2.0740   23.1240 N.am   67  ASN67      -0.0877
     48  N         37.2710    0.3390   27.0870 N.3    69  GLN69      -0.1245
     49  CA        36.3070    1.4060   27.3720 C.3    69  GLN69       0.1566
     50  C         34.9180    0.7980   27.6370 C.2    69  GLN69       0.2260
     51  O         34.6370   -0.3600   27.2340 O.2    69  GLN69      -0.2867
     52  CB        36.2520    2.4390   26.2270 C.3    69  GLN69       0.0367
     53  CG        37.5680    3.2750   26.0560 C.3    69  GLN69       0.0905
     54  CD        37.4820    4.3760   24.9600 C.2    69  GLN69       0.2608
     55  OE1       36.6440    5.2680   25.0390 O.2    69  GLN69      -0.2717
     56  NE2       38.3840    4.3260   23.9700 N.am   69  GLN69      -0.0878
     57  N         31.8530    2.3110   26.9520 N.3    71  ASN71      -0.1240
     58  CA        30.7930    2.9740   26.2010 C.3    71  ASN71       0.1653
     59  C         30.4030    2.3000   24.8970 C.2    71  ASN71       0.2266
     60  O         30.1040    2.9860   23.9350 O.2    71  ASN71      -0.2867
     61  CB        31.1830    4.4390   25.9140 C.3    71  ASN71       0.1155
     62  CG        32.3830    4.5620   24.9960 C.2    71  ASN71       0.2627
     63  OD1       33.3720    3.8310   25.1340 O.2    71  ASN71      -0.2716
     64  ND2       32.3270    5.5200   24.0680 N.am   71  ASN71      -0.0877
     65  N         30.5670    2.2560   19.6680 N.3   109  ALA109     -0.1245
     66  CA        30.8360    3.0980   20.8250 C.3   109  ALA109      0.1562
     67  C         30.1040    4.4120   20.6210 C.2   109  ALA109      0.2260
     68  O         30.1110    4.9410   19.4950 O.2   109  ALA109     -0.2867
     69  CB        32.3170    3.3660   21.0010 C.3   109  ALA109      0.0290
     70  N         29.2420    8.4930   22.1200 N.3   111  GLU111     -0.1245
     71  CA        29.7580    9.6210   22.9000 C.3   111  GLU111      0.1567
     72  C         28.9700   10.8790   22.5930 C.2   111  GLU111      0.2260
     73  O         28.3360   10.9580   21.5390 O.2   111  GLU111     -0.2867
     74  CB        31.2230    9.9140   22.5750 C.3   111  GLU111      0.0388
     75  CG        32.2050    8.8200   22.9910 C.3   111  GLU111      0.1160
     76  CD        33.6510    9.2360   22.8680 C.2   111  GLU111      0.3649
     77  OE1       33.9990    9.9030   21.8720 O.co2 111  GLU111     -0.2457
     78  OE2       34.4500    8.8600   23.7510 O.co2 111  GLU111     -0.2457
     79  N         30.0990    6.9250   17.4810 N.3   118  VAL118     -0.1231
     80  CA        31.3110    7.5590   17.0030 C.3   118  VAL118      0.1692
     81  C         32.3740    6.5440   16.5490 C.2   118  VAL118      0.2592
     82  O         33.4110    6.9200   16.0230 O.2   118  VAL118     -0.2718
     83  CB        31.9000    8.5040   18.0490 C.3   118  VAL118      0.0266
     84  CG1       30.9630    9.6700   18.3380 C.3   118  VAL118      0.0020
     85  CG2       32.2150    7.7860   19.3270 C.3   118  VAL118      0.0020
     86  N         32.1300    5.2500   16.7530 N.am  119  HIS119     -0.1962
     87  CA        33.1340    4.2050   16.4500 C.3   119  HIS119      0.1787
     88  C         32.4040    2.9010   16.2330 C.2   119  HIS119      0.2620
     89  O         31.4340    2.5880   16.9380 O.2   119  HIS119     -0.2715
     90  CB        34.0970    4.1180   17.6370 C.3   119  HIS119      0.0785
     91  CG        34.8540    2.8420   17.7440 C.ar  119  HIS119      0.0821
     92  ND1       36.0040    2.5990   17.0300 N.ar  119  HIS119     -0.2267
     93  CD2       34.6590    1.7600   18.5420 C.ar  119  HIS119      0.1154
     94  CE1       36.4580    1.3960   17.3420 C.ar  119  HIS119      0.1986
     95  NE2       35.6680    0.8750   18.2670 N.ar  119  HIS119     -0.2212
     96  N         32.8200    2.1750   15.2060 N.am  120  PHE120     -0.1960
     97  CA        32.3410    0.8390   14.9960 C.3   120  PHE120      0.1771
     98  C         33.3110   -0.1400   15.6430 C.2   120  PHE120      0.2619
     99  O         34.4750   -0.2310   15.2450 O.2   120  PHE120     -0.2715
    100  CB        32.1950    0.5310   13.5000 C.3   120  PHE120      0.0574
    101  CG        31.4120   -0.7080   13.2350 C.ar  120  PHE120     -0.0200
    102  CD1       30.0420   -0.6540   12.9540 C.ar  120  PHE120     -0.0042
    103  CD2       32.0460   -1.9500   13.2740 C.ar  120  PHE120     -0.0042
    104  CE1       29.3130   -1.8330   12.7480 C.ar  120  PHE120     -0.0003
    105  CE2       31.3100   -3.1330   13.0610 C.ar  120  PHE120     -0.0003
    106  CZ        29.9440   -3.0520   12.7830 C.ar  120  PHE120     -0.0000
    107  N         32.8400   -0.9000   16.6370 N.am  121  ASP121     -0.1971
    108  CA        33.7360   -1.7900   17.3830 C.3   121  ASP121      0.1709
    109  C         33.8170   -3.2100   16.8420 C.2   121  ASP121      0.2293
    110  O         34.9220   -3.7560   16.7300 O.2   121  ASP121     -0.2864
    111  CB        33.3610   -1.7910   18.8710 C.3   121  ASP121      0.1436
    112  CG        34.5390   -2.1010   19.7760 C.2   121  ASP121      0.3671
    113  OD1       35.5960   -1.4540   19.6150 O.co2 121  ASP121     -0.2456
    114  OD2       34.4100   -2.9830   20.6500 O.co2 121  ASP121     -0.2456
@<TRIPOS>BOND
     1    18    17    2
     2    15    16    1
     3    16    17    1
     4    16    19    1
     5    17    24   am
     6    24    25    1
     7    26    27    2
     8    26    25    1
     9    20    19    1
    10    20    21    1
    11    25    28    1
    12    22    21    2
    13    21    23   am
    14     9     8    2
    15    28    29    1
    16    30    29   ar
    17    30    32   ar
    18    29    31   ar
    19     7     8    1
    20     7     6    1
    21     7    10    1
    22    32    33   ar
    23    11    10    1
    24    11    12    1
    25    13    12    1
    26    13    14    1
    27    31    33   ar
    28   104   106   ar
    29   104   102   ar
    30   106   105   ar
    31   102   101   ar
    32   105   103   ar
    33   101   103   ar
    34   101   100    1
    35   100    97    1
    36     4     3    2
    37     3     2    1
    38     1     2    1
    39    97    96    1
    40    97    98    1
    41     2     5    1
    42    96    88   am
    43    99    98    2
    44    98   107   am
    45    82    81    2
    46    88    87    1
    47    88    89    2
    48    87    86    1
    49    87    90    1
    50    81    86   am
    51    81    80    1
    52   107   108    1
    53   110   109    2
    54   109   108    1
    55    80    79    1
    56    80    83    1
    57    92    94   ar
    58    92    91   ar
    59    94    95   ar
    60   108   111    1
    61    90    91    1
    62    91    93   ar
    63    83    84    1
    64    83    85    1
    65    95    93   ar
    66   111   112    1
    67    68    67    2
    68   113   112   ar
    69    65    66    1
    70   112   114   ar
    71    67    66    1
    72    66    69    1
    73    73    72    2
    74    77    76   ar
    75    70    71    1
    76    74    71    1
    77    74    75    1
    78    72    71    1
    79    76    75    1
    80    76    78   ar
    81    47    45   am
    82    44    45    1
    83    44    41    1
    84    40    41    1
    85    45    46    2
    86    38    39    1
    87    38    35    1
    88    60    59    2
    89    56    54   am
    90    36    35    1
    91    36    37    2
    92    41    42    1
    93    35    34    1
    94    64    62   am
    95    59    58    1
    96    54    55    2
    97    54    53    1
    98    62    63    2
    99    62    61    1
   100    42    43    2
   101    61    58    1
   102    53    52    1
   103    58    57    1
   104    52    49    1
   105    48    49    1
   106    51    50    2
   107    49    50    1
