@<TRIPOS>MOLECULE
tmp/3dxhA01.pdb
 123 115 0 0 0
SMALL
GASTEIGER

@<TRIPOS>ATOM
      1  N         32.8440   13.8220   14.9430 N.3     4  ALA4       -0.1245
      2  CA        33.0200   12.3890   15.1610 C.3     4  ALA4        0.1562
      3  C         31.7980   11.6100   14.6710 C.2     4  ALA4        0.2260
      4  O         31.9350   10.5620   14.0570 O.2     4  ALA4       -0.2867
      5  CB        33.2480   12.1220   16.6260 C.3     4  ALA4        0.0290
      6  N         31.8730   11.5760   10.8050 N.3     7  LYS7       -0.1245
      7  CA        32.8510   10.5910   10.3670 C.3     7  LYS7        0.1561
      8  C         32.3230    9.1610   10.4760 C.2     7  LYS7        0.2260
      9  O         32.5550    8.3450    9.5830 O.2     7  LYS7       -0.2867
     10  CB        34.1600   10.7390   11.1260 C.3     7  LYS7        0.0271
     11  CG        35.2280    9.8010   10.6250 C.3     7  LYS7        0.0035
     12  CD        36.5570   10.1100   11.2590 C.3     7  LYS7        0.0206
     13  CE        37.5820    9.0530   10.9280 C.3     7  LYS7        0.1093
     14  NZ        38.9520    9.5380   11.2480 N.3     7  LYS7       -0.1314
     15  N         32.0550    6.7100    7.3100 N.3    11  GLN11      -0.1231
     16  CA        32.8130    5.4660    7.2990 C.3    11  GLN11       0.1698
     17  C         31.9540    4.2210    7.3730 C.2    11  GLN11       0.2592
     18  O         32.3550    3.1660    6.8880 O.2    11  GLN11      -0.2718
     19  CB        33.7980    5.4390    8.4430 C.3    11  GLN11       0.0381
     20  CG        34.9340    6.4050    8.3240 C.3    11  GLN11       0.0905
     21  CD        36.0420    5.9980    9.2600 C.2    11  GLN11       0.2608
     22  OE1       37.1000    5.5060    8.8380 O.2    11  GLN11      -0.2717
     23  NE2       35.7870    6.1360   10.5430 N.am   11  GLN11      -0.0878
     24  N         30.7750    4.3270    7.9830 N.am   12  HIS12      -0.1976
     25  CA        30.0650    3.1200    8.3820 C.3    12  HIS12       0.1656
     26  C         28.6060    3.0490    8.0090 C.2    12  HIS12       0.2291
     27  O         28.0090    2.0000    8.1740 O.2    12  HIS12      -0.2864
     28  CB        30.2090    2.8570    9.8920 C.3    12  HIS12       0.0771
     29  CG        31.6250    2.6800   10.3300 C.ar   12  HIS12       0.0820
     30  ND1       32.3950    1.6070    9.9380 N.ar   12  HIS12      -0.2267
     31  CD2       32.4100    3.4400   11.1280 C.ar   12  HIS12       0.1154
     32  CE1       33.6030    1.7200   10.4720 C.ar   12  HIS12       0.1986
     33  NE2       33.6420    2.8350   11.1810 N.ar   12  HIS12      -0.2212
     34  N         42.6140    1.4670    4.0680 N.3    41  LYS41      -0.1245
     35  CA        42.0990    1.0440    5.3740 C.3    41  LYS41       0.1561
     36  C         41.8920   -0.4820    5.3160 C.2    41  LYS41       0.2260
     37  O         41.2220   -0.9810    4.4170 O.2    41  LYS41      -0.2867
     38  CB        40.7990    1.7780    5.7260 C.3    41  LYS41       0.0271
     39  CG        40.3530    1.5500    7.1670 C.3    41  LYS41       0.0035
     40  CD        39.0780    2.2950    7.5210 C.3    41  LYS41       0.0206
     41  CE        38.6850    1.9850    8.9720 C.3    41  LYS41       0.1093
     42  NZ        37.4550    2.7180    9.3950 N.3    41  LYS41      -0.1314
     43  N         33.9780   -2.3910   25.2770 N.3    65  CYS65      -0.1235
     44  CA        34.6310   -2.1970   23.9870 C.3    65  CYS65       0.1677
     45  C         35.9030   -2.9970   23.9440 C.2    65  CYS65       0.2270
     46  O         36.5190   -3.2410   24.9860 O.2    65  CYS65      -0.2867
     47  CB        35.0260   -0.7220   23.8030 C.3    65  CYS65       0.0956
     48  SG        33.6660    0.4360   23.9440 S.3    65  CYS65      -0.0801
     49  N         38.8620   -2.1490   23.3210 N.3    67  ASN67      -0.1240
     50  CA        39.9980   -1.4430   23.9360 C.3    67  ASN67       0.1653
     51  C         39.8480   -1.2540   25.4380 C.2    67  ASN67       0.2266
     52  O         40.6790   -0.5950   26.0750 O.2    67  ASN67      -0.2867
     53  CB        40.2230   -0.0820   23.2570 C.3    67  ASN67       0.1155
     54  CG        39.1440    0.9470   23.5990 C.2    67  ASN67       0.2627
     55  OD1       38.2000    0.6650   24.3240 O.2    67  ASN67      -0.2716
     56  ND2       39.2980    2.1690   23.0640 N.am   67  ASN67      -0.0877
     57  N         37.3920    0.3540   27.0080 N.3    69  GLN69      -0.1245
     58  CA        36.4280    1.4080   27.3240 C.3    69  GLN69       0.1566
     59  C         35.0420    0.7930   27.5530 C.2    69  GLN69       0.2260
     60  O         34.7810   -0.3480   27.1220 O.2    69  GLN69      -0.2867
     61  CB        36.3650    2.4590   26.2030 C.3    69  GLN69       0.0367
     62  CG        37.6570    3.3070   26.0390 C.3    69  GLN69       0.0905
     63  CD        37.5360    4.3760   24.9370 C.2    69  GLN69       0.2608
     64  OE1       38.2830    4.3730   23.9630 O.2    69  GLN69      -0.2717
     65  NE2       36.6060    5.2970   25.1150 N.am   69  GLN69      -0.0878
     66  N         31.9580    2.2530   26.8980 N.3    71  ASN71      -0.1240
     67  CA        30.8830    2.9270   26.1650 C.3    71  ASN71       0.1653
     68  C         30.4840    2.2710   24.8480 C.2    71  ASN71       0.2266
     69  O         30.1610    2.9670   23.8860 O.2    71  ASN71      -0.2867
     70  CB        31.2510    4.4040   25.9180 C.3    71  ASN71       0.1155
     71  CG        32.4770    4.5520   25.0190 C.2    71  ASN71       0.2627
     72  OD1       33.4870    3.8490   25.1720 O.2    71  ASN71      -0.2716
     73  ND2       32.3990    5.4680   24.0760 N.am   71  ASN71      -0.0877
     74  N         30.6700    2.2060   19.6030 N.3   109  ALA109     -0.1245
     75  CA        30.9070    3.0940   20.7490 C.3   109  ALA109      0.1562
     76  C         30.1680    4.4030   20.5490 C.2   109  ALA109      0.2260
     77  O         30.1550    4.9480   19.4300 O.2   109  ALA109     -0.2867
     78  CB        32.3710    3.3550   20.9600 C.3   109  ALA109      0.0290
     79  N         29.3470    8.4750   22.0590 N.3   111  GLU111     -0.1245
     80  CA        29.8870    9.5950   22.8210 C.3   111  GLU111      0.1567
     81  C         29.0840   10.8390   22.5170 C.2   111  GLU111      0.2260
     82  O         28.4060   10.9040   21.4960 O.2   111  GLU111     -0.2867
     83  CB        31.3420    9.9010   22.4350 C.3   111  GLU111      0.0388
     84  CG        32.3400    8.8270   22.8580 C.3   111  GLU111      0.1160
     85  CD        33.7680    9.2510   22.6770 C.2   111  GLU111      0.3649
     86  OE1       34.1050    9.7230   21.5790 O.co2 111  GLU111     -0.2457
     87  OE2       34.5710    9.0390   23.6070 O.co2 111  GLU111     -0.2457
     88  N         30.1140    6.8940   17.3880 N.3   118  VAL118     -0.1231
     89  CA        31.3300    7.5230   16.8940 C.3   118  VAL118      0.1692
     90  C         32.3900    6.5160   16.4370 C.2   118  VAL118      0.2592
     91  O         33.4250    6.8980   15.8970 O.2   118  VAL118     -0.2718
     92  CB        31.9360    8.4800   17.9450 C.3   118  VAL118      0.0266
     93  CG1       30.9910    9.6320   18.2750 C.3   118  VAL118      0.0020
     94  CG2       32.2700    7.7430   19.2360 C.3   118  VAL118      0.0020
     95  N         32.1560    5.2250   16.6740 N.am  119  HIS119     -0.1962
     96  CA        33.1520    4.1960   16.3490 C.3   119  HIS119      0.1787
     97  C         32.4310    2.8880   16.1460 C.2   119  HIS119      0.2620
     98  O         31.5100    2.5490   16.8940 O.2   119  HIS119     -0.2715
     99  CB        34.1590    4.1130   17.5010 C.3   119  HIS119      0.0785
    100  CG        34.9200    2.8270   17.5990 C.ar  119  HIS119      0.0821
    101  ND1       36.0600    2.5660   16.8690 N.ar  119  HIS119     -0.2267
    102  CD2       34.7350    1.7540   18.4110 C.ar  119  HIS119      0.1154
    103  CE1       36.5240    1.3720   17.2020 C.ar  119  HIS119      0.1986
    104  NE2       35.7350    0.8560   18.1320 N.ar  119  HIS119     -0.2212
    105  N         32.8440    2.1600   15.1200 N.am  120  PHE120     -0.1960
    106  CA        32.3560    0.8160   14.9010 C.3   120  PHE120      0.1771
    107  C         33.3340   -0.1650   15.5440 C.2   120  PHE120      0.2619
    108  O         34.4920   -0.2170   15.1520 O.2   120  PHE120     -0.2715
    109  CB        32.1950    0.4970   13.4150 C.3   120  PHE120      0.0574
    110  CG        31.4190   -0.7590   13.1700 C.ar  120  PHE120     -0.0200
    111  CD1       30.0500   -0.7210   12.9000 C.ar  120  PHE120     -0.0042
    112  CD2       32.0560   -1.9930   13.2330 C.ar  120  PHE120     -0.0042
    113  CE1       29.3390   -1.9060   12.7010 C.ar  120  PHE120     -0.0003
    114  CE2       31.3340   -3.1810   13.0310 C.ar  120  PHE120     -0.0003
    115  CZ        29.9810   -3.1200   12.7760 C.ar  120  PHE120     -0.0000
    116  N         32.8690   -0.9410   16.5350 N.am  121  ASP121     -0.1971
    117  CA        33.7800   -1.8240   17.2790 C.3   121  ASP121      0.1709
    118  C         33.8580   -3.2590   16.7620 C.2   121  ASP121      0.2293
    119  O         34.9510   -3.8150   16.6760 O.2   121  ASP121     -0.2864
    120  CB        33.4280   -1.8150   18.7780 C.3   121  ASP121      0.1436
    121  CG        34.6280   -2.1250   19.6690 C.2   121  ASP121      0.3671
    122  OD1       35.6880   -1.4890   19.4760 O.co2 121  ASP121     -0.2456
    123  OD2       34.5110   -2.9740   20.5870 O.co2 121  ASP121     -0.2456
@<TRIPOS>BOND
     1    34    35    1
     2    37    36    2
     3    36    35    1
     4    35    38    1
     5    38    39    1
     6    18    17    2
     7    39    40    1
     8    16    15    1
     9    16    17    1
    10    16    19    1
    11    17    24   am
    12    40    41    1
    13    24    25    1
    14    26    27    2
    15    26    25    1
    16    20    19    1
    17    20    21    1
    18    25    28    1
    19    22    21    2
    20    41    42    1
    21    21    23   am
    22     9     8    2
    23    28    29    1
    24    30    29   ar
    25    30    32   ar
    26    29    31   ar
    27     7     8    1
    28     7     6    1
    29     7    10    1
    30    32    33   ar
    31    11    10    1
    32    11    12    1
    33    13    14    1
    34    13    12    1
    35    31    33   ar
    36   113   115   ar
    37   113   111   ar
    38   115   114   ar
    39   111   110   ar
    40   114   112   ar
    41   110   112   ar
    42   110   109    1
    43   109   106    1
    44     4     3    2
    45     3     2    1
    46   106   105    1
    47   106   107    1
    48     1     2    1
    49   105    97   am
    50   108   107    2
    51     2     5    1
    52   107   116   am
    53    91    90    2
    54    97    96    1
    55    97    98    2
    56    96    95    1
    57    96    99    1
    58    90    95   am
    59    90    89    1
    60   116   117    1
    61   119   118    2
    62   118   117    1
    63   101   103   ar
    64   101   100   ar
    65    89    88    1
    66    89    92    1
    67   103   104   ar
    68   117   120    1
    69    99   100    1
    70   100   102   ar
    71    92    93    1
    72    92    94    1
    73   104   102   ar
    74   120   121    1
    75    77    76    2
    76   122   121   ar
    77    74    75    1
    78   121   123   ar
    79    76    75    1
    80    75    78    1
    81    82    81    2
    82    86    85   ar
    83    79    80    1
    84    83    80    1
    85    83    84    1
    86    81    80    1
    87    85    84    1
    88    85    87   ar
    89    56    54   am
    90    53    54    1
    91    53    50    1
    92    49    50    1
    93    54    55    2
    94    47    48    1
    95    47    44    1
    96    69    68    2
    97    50    51    1
    98    45    44    1
    99    45    46    2
   100    64    63    2
   101    44    43    1
   102    73    71   am
   103    68    67    1
   104    63    65   am
   105    63    62    1
   106    71    72    2
   107    71    70    1
   108    51    52    2
   109    70    67    1
   110    62    61    1
   111    67    66    1
   112    61    58    1
   113    57    58    1
   114    60    59    2
   115    58    59    1
