@<TRIPOS>MOLECULE
tmp/3dxhA00.pdb
 107 104 0 0 0
SMALL
GASTEIGER

@<TRIPOS>ATOM
      1  N         32.0550    6.7100    7.3100 N.3    11  GLN11      -0.1231
      2  CA        32.8130    5.4660    7.2990 C.3    11  GLN11       0.1698
      3  C         31.9540    4.2210    7.3730 C.2    11  GLN11       0.2592
      4  O         32.3550    3.1660    6.8880 O.2    11  GLN11      -0.2718
      5  CB        33.7980    5.4390    8.4430 C.3    11  GLN11       0.0381
      6  CG        34.9340    6.4050    8.3240 C.3    11  GLN11       0.0905
      7  CD        36.0420    5.9980    9.2600 C.2    11  GLN11       0.2608
      8  OE1       37.1000    5.5060    8.8380 O.2    11  GLN11      -0.2717
      9  NE2       35.7870    6.1360   10.5430 N.am   11  GLN11      -0.0878
     10  N         30.7750    4.3270    7.9830 N.am   12  HIS12      -0.1976
     11  CA        30.0650    3.1200    8.3820 C.3    12  HIS12       0.1656
     12  C         28.6060    3.0490    8.0090 C.2    12  HIS12       0.2291
     13  O         28.0090    2.0000    8.1740 O.2    12  HIS12      -0.2864
     14  CB        30.2090    2.8570    9.8920 C.3    12  HIS12       0.0771
     15  CG        31.6250    2.6800   10.3300 C.ar   12  HIS12       0.0820
     16  ND1       32.3950    1.6070    9.9380 N.ar   12  HIS12      -0.2267
     17  CD2       32.4100    3.4400   11.1280 C.ar   12  HIS12       0.1154
     18  CE1       33.6030    1.7200   10.4720 C.ar   12  HIS12       0.1986
     19  NE2       33.6420    2.8350   11.1810 N.ar   12  HIS12      -0.2212
     20  N         42.6140    1.4670    4.0680 N.3    41  LYS41      -0.1245
     21  CA        42.0990    1.0440    5.3740 C.3    41  LYS41       0.1561
     22  C         41.8920   -0.4820    5.3160 C.2    41  LYS41       0.2260
     23  O         41.2220   -0.9810    4.4170 O.2    41  LYS41      -0.2867
     24  CB        40.7990    1.7780    5.7260 C.3    41  LYS41       0.0271
     25  CG        40.3530    1.5500    7.1670 C.3    41  LYS41       0.0035
     26  CD        39.0780    2.2950    7.5210 C.3    41  LYS41       0.0206
     27  CE        38.6850    1.9850    8.9720 C.3    41  LYS41       0.1093
     28  NZ        37.4550    2.7180    9.3950 N.3    41  LYS41      -0.1314
     29  N         40.2760   -2.9050    7.2260 N.3    43  VAL43      -0.1231
     30  CA        38.9970   -3.5430    7.5470 C.3    43  VAL43       0.1692
     31  C         37.9930   -2.4400    7.8370 C.2    43  VAL43       0.2592
     32  O         38.2910   -1.5080    8.5820 O.2    43  VAL43      -0.2718
     33  CB        39.1060   -4.4390    8.8190 C.3    43  VAL43       0.0266
     34  CG1       37.7570   -5.0590    9.1860 C.3    43  VAL43       0.0020
     35  CG2       40.1740   -5.5280    8.6400 C.3    43  VAL43       0.0020
     36  N         36.8050   -2.5280    7.2500 N.am   44  ASN44      -0.1960
     37  CA        35.7760   -1.5280    7.4850 C.3    44  ASN44       0.1819
     38  C         34.4130   -2.1160    7.2290 C.2    44  ASN44       0.2621
     39  O         34.2310   -2.7790    6.2230 O.2    44  ASN44      -0.2715
     40  CB        35.9710   -0.3450    6.5490 C.3    44  ASN44       0.1195
     41  CG        35.1280    0.8300    6.9470 C.2    44  ASN44       0.2630
     42  OD1       35.3960    1.4810    7.9620 O.2    44  ASN44      -0.2716
     43  ND2       34.0820    1.0870    6.1860 N.am   44  ASN44      -0.0877
     44  N         33.4530   -1.8270    8.1050 N.am   45  THR45      -0.1951
     45  CA        32.0890   -2.3200    7.9870 C.3    45  THR45       0.1897
     46  C         31.1020   -1.2080    7.6660 C.2    45  THR45       0.2313
     47  O         31.1370   -0.1330    8.2700 O.2    45  THR45      -0.2863
     48  CB        31.6790   -2.9870    9.3240 C.3    45  THR45       0.1794
     49  OG1       32.6500   -3.9880    9.6530 O.3    45  THR45      -0.2208
     50  CG2       30.2830   -3.6320    9.2500 C.3    45  THR45       0.0378
     51  N         36.3620   -3.3290   22.7410 N.3    66  LYS66      -0.1245
     52  CA        37.5910   -4.1050   22.5980 C.3    66  LYS66       0.1561
     53  C         38.8000   -3.4830   23.2930 C.2    66  LYS66       0.2260
     54  O         39.6540   -4.2080   23.8030 O.2    66  LYS66      -0.2867
     55  CB        37.8940   -4.3470   21.1200 C.3    66  LYS66       0.0271
     56  CG        37.0200   -5.4010   20.4620 C.3    66  LYS66       0.0035
     57  CD        37.1720   -5.3870   18.9390 C.3    66  LYS66       0.0206
     58  CE        36.4240   -6.5380   18.2940 C.3    66  LYS66       0.1093
     59  NZ        36.4170   -6.4040   16.8040 N.3    66  LYS66      -0.1314
     60  N         31.0180   -6.3330    5.4010 N.3    83  ASP83      -0.1239
     61  CA        32.4120   -6.2100    5.8100 C.3    83  ASP83       0.1674
     62  C         33.3000   -6.0980    4.5910 C.2    83  ASP83       0.2266
     63  O         33.1300   -6.8500    3.6230 O.2    83  ASP83      -0.2867
     64  CB        32.8620   -7.4160    6.6310 C.3    83  ASP83       0.1410
     65  CG        32.2220   -7.4710    7.9880 C.2    83  ASP83       0.3668
     66  OD1       32.1270   -6.4140    8.6280 O.co2  83  ASP83      -0.2456
     67  OD2       31.8250   -8.5850    8.4050 O.co2  83  ASP83      -0.2456
     68  N         32.1560    5.2250   16.6740 N.3   119  HIS119     -0.1226
     69  CA        33.1520    4.1960   16.3490 C.3   119  HIS119      0.1752
     70  C         32.4310    2.8880   16.1460 C.2   119  HIS119      0.2596
     71  O         31.5100    2.5490   16.8940 O.2   119  HIS119     -0.2718
     72  CB        34.1590    4.1130   17.5010 C.3   119  HIS119      0.0759
     73  CG        34.9200    2.8270   17.5990 C.ar  119  HIS119      0.0818
     74  ND1       36.0600    2.5660   16.8690 N.ar  119  HIS119     -0.2268
     75  CD2       34.7350    1.7540   18.4110 C.ar  119  HIS119      0.1154
     76  CE1       36.5240    1.3720   17.2020 C.ar  119  HIS119      0.1986
     77  NE2       35.7350    0.8560   18.1320 N.ar  119  HIS119     -0.2212
     78  N         32.8440    2.1600   15.1200 N.am  120  PHE120     -0.1962
     79  CA        32.3560    0.8160   14.9010 C.3   120  PHE120      0.1771
     80  C         33.3340   -0.1650   15.5440 C.2   120  PHE120      0.2620
     81  O         34.4920   -0.2170   15.1520 O.2   120  PHE120     -0.2715
     82  CB        32.1950    0.4970   13.4150 C.3   120  PHE120      0.0574
     83  CG        31.4190   -0.7590   13.1700 C.ar  120  PHE120     -0.0200
     84  CD1       30.0500   -0.7210   12.9000 C.ar  120  PHE120     -0.0042
     85  CD2       32.0560   -1.9930   13.2330 C.ar  120  PHE120     -0.0042
     86  CE1       29.3390   -1.9060   12.7010 C.ar  120  PHE120     -0.0003
     87  CE2       31.3340   -3.1810   13.0310 C.ar  120  PHE120     -0.0003
     88  CZ        29.9810   -3.1200   12.7760 C.ar  120  PHE120     -0.0000
     89  N         32.8690   -0.9410   16.5350 N.am  121  ASP121     -0.1957
     90  CA        33.7800   -1.8240   17.2790 C.3   121  ASP121      0.1840
     91  C         33.8580   -3.2590   16.7620 C.2   121  ASP121      0.2622
     92  O         34.9510   -3.8150   16.6760 O.2   121  ASP121     -0.2715
     93  CB        33.4280   -1.8150   18.7780 C.3   121  ASP121      0.1450
     94  CG        34.6280   -2.1250   19.6690 C.2   121  ASP121      0.3671
     95  OD1       35.6880   -1.4890   19.4760 O.co2 121  ASP121     -0.2456
     96  OD2       34.5110   -2.9740   20.5870 O.co2 121  ASP121     -0.2456
     97  N         32.7090   -3.8590   16.4570 N.am  122  ALA122     -0.1963
     98  CA        32.6590   -5.2850   16.1200 C.3   122  ALA122      0.1728
     99  C         31.2790   -5.6450   15.6400 C.2   122  ALA122      0.2616
    100  O         30.3450   -4.8830   15.7950 O.2   122  ALA122     -0.2715
    101  CB        33.0020   -6.1400   17.3390 C.3   122  ALA122      0.0334
    102  N         31.1540   -6.8440   15.0840 N.am  123  SER123     -0.1950
    103  CA        29.8590   -7.4610   14.8800 C.3   123  SER123      0.1924
    104  C         29.9510   -8.8620   15.4440 C.2   123  SER123      0.2314
    105  O         31.0160   -9.4750   15.4350 O.2   123  SER123     -0.2863
    106  CB        29.4890   -7.5070   13.3980 C.3   123  SER123      0.2116
    107  OG        30.3980   -8.3230   12.6860 O.3   123  SER123     -0.2180
@<TRIPOS>BOND
     1    63    62    2
     2    20    21    1
     3    23    22    2
     4    62    61    1
     5    22    21    1
     6    21    24    1
     7    60    61    1
     8    24    25    1
     9    61    64    1
    10    43    41   am
    11    39    38    2
    12    40    41    1
    13    40    37    1
    14    64    65    1
    15     4     3    2
    16    41    42    2
    17    25    26    1
    18    29    30    1
    19    38    37    1
    20    38    44   am
    21    36    37    1
    22    36    31   am
    23     2     1    1
    24     2     3    1
    25     2     5    1
    26     3    10   am
    27    26    27    1
    28    30    31    1
    29    30    33    1
    30    46    45    1
    31    46    47    2
    32    31    32    2
    33    10    11    1
    34    45    44    1
    35    45    48    1
    36    65    67   ar
    37    65    66   ar
    38    12    13    2
    39    12    11    1
    40     6     5    1
    41     6     7    1
    42    11    14    1
    43    35    33    1
    44    33    34    1
    45     8     7    2
    46    27    28    1
    47    50    48    1
    48     7     9   am
    49    48    49    1
    50    14    15    1
    51    16    15   ar
    52    16    18   ar
    53    15    17   ar
    54    18    19   ar
    55    17    19   ar
    56   107   106    1
    57    86    88   ar
    58    86    84   ar
    59    88    87   ar
    60    84    83   ar
    61    87    85   ar
    62    83    85   ar
    63    83    82    1
    64   106   103    1
    65    82    79    1
    66   103   102    1
    67   103   104    1
    68    79    78    1
    69    79    80    1
    70   102    99   am
    71    78    70   am
    72    81    80    2
    73   105   104    2
    74    80    89   am
    75    99   100    2
    76    99    98    1
    77    98    97    1
    78    98   101    1
    79    70    69    1
    80    70    71    2
    81    69    68    1
    82    69    72    1
    83    97    91   am
    84    89    90    1
    85    92    91    2
    86    91    90    1
    87    59    58    1
    88    74    76   ar
    89    74    73   ar
    90    76    77   ar
    91    90    93    1
    92    72    73    1
    93    73    75   ar
    94    77    75   ar
    95    58    57    1
    96    93    94    1
    97    57    56    1
    98    95    94   ar
    99    94    96   ar
   100    56    55    1
   101    55    52    1
   102    52    51    1
   103    52    53    1
   104    53    54    2
