@<TRIPOS>MOLECULE
tmp/3dxkB00.pdb
 97 95 0 0 0
SMALL
GASTEIGER

@<TRIPOS>ATOM
      1  N         -0.0160   24.5490   45.3110 N.3    60  GLY60      -0.1210
      2  CA         1.2790   23.9110   45.1750 C.3    60  GLY60       0.1956
      3  C          1.2390   22.7200   44.2370 C.2    60  GLY60       0.2612
      4  O          1.8380   21.6790   44.5060 O.2    60  GLY60      -0.2717
      5  N          0.5230   22.8760   43.1310 N.am   61  TYR61      -0.1962
      6  CA         0.3980   21.8190   42.1400 C.3    61  TYR61       0.1771
      7  C          0.8960   22.3180   40.7800 C.2    61  TYR61       0.2619
      8  O          0.5140   23.4000   40.3240 O.2    61  TYR61      -0.2715
      9  CB        -1.0580   21.3730   42.0530 C.3    61  TYR61       0.0574
     10  CG        -1.5230   20.5970   43.2590 C.ar   61  TYR61      -0.0198
     11  CD1       -0.8000   19.5030   43.7180 C.ar   61  TYR61      -0.0009
     12  CD2       -2.7080   20.9250   43.9150 C.ar   61  TYR61      -0.0009
     13  CE1       -1.2440   18.7440   44.8020 C.ar   61  TYR61       0.0417
     14  CE2       -3.1650   20.1720   44.9970 C.ar   61  TYR61       0.0417
     15  CZ        -2.4250   19.0820   45.4350 C.ar   61  TYR61       0.1957
     16  OH        -2.8530   18.3230   46.5000 O.3    61  TYR61      -0.2866
     17  N          1.7460   21.5280   40.1320 N.am   62  ALA62      -0.1963
     18  CA         2.3190   21.9280   38.8470 C.3    62  ALA62       0.1728
     19  C          1.3930   21.8020   37.6290 C.2    62  ALA62       0.2616
     20  O          1.6040   20.9450   36.7670 O.2    62  ALA62      -0.2715
     21  CB         3.6260   21.1510   38.6000 C.3    62  ALA62       0.0334
     22  N          0.3740   22.6550   37.5620 N.am   63  PHE63      -0.1974
     23  CA        -0.5490   22.6510   36.4310 C.3    63  PHE63       0.1639
     24  C         -0.1040   23.6900   35.3990 C.2    63  PHE63       0.2290
     25  O          0.5730   24.6580   35.7270 O.2    63  PHE63      -0.2864
     26  CB        -1.9810   22.9600   36.8930 C.3    63  PHE63       0.0560
     27  CG        -2.6900   21.7830   37.5030 C.ar   63  PHE63      -0.0200
     28  CD1       -2.9950   20.6660   36.7370 C.ar   63  PHE63      -0.0042
     29  CD2       -3.0260   21.7720   38.8570 C.ar   63  PHE63      -0.0042
     30  CE1       -3.6140   19.5610   37.3090 C.ar   63  PHE63      -0.0003
     31  CE2       -3.6470   20.6670   39.4330 C.ar   63  PHE63      -0.0003
     32  CZ        -3.9370   19.5660   38.6580 C.ar   63  PHE63      -0.0000
     33  N         -2.8400   21.0990   30.7980 N.3    68  ASP68      -0.1239
     34  CA        -3.8010   20.4280   31.6720 C.3    68  ASP68       0.1674
     35  C         -5.2300   20.9470   31.7020 C.2    68  ASP68       0.2266
     36  O         -6.0590   20.4240   32.4490 O.2    68  ASP68      -0.2867
     37  CB        -3.2480   20.4010   33.0990 C.3    68  ASP68       0.1410
     38  CG        -1.8200   19.8760   33.1590 C.2    68  ASP68       0.3668
     39  OD1       -1.5650   18.7590   32.6280 O.co2  68  ASP68      -0.2456
     40  OD2       -0.9580   20.5880   33.7370 O.co2  68  ASP68      -0.2456
     41  N         -8.0180   18.5020   31.9420 N.3    71  THR71      -0.1218
     42  CA        -7.9990   17.7540   33.1940 C.3    71  THR71       0.1862
     43  C         -8.6350   18.5640   34.3250 C.2    71  THR71       0.2287
     44  O         -9.4460   18.0450   35.0880 O.2    71  THR71      -0.2866
     45  CB        -6.5650   17.3520   33.5950 C.3    71  THR71       0.1770
     46  OG1       -6.0100   16.5050   32.5880 O.3    71  THR71      -0.2211
     47  CG2       -6.5730   16.5900   34.8900 C.3    71  THR71       0.0375
     48  N         -5.5360   11.7760   39.1870 N.3   105  LEU105     -0.1231
     49  CA        -5.2270   12.3430   37.8740 C.3   105  LEU105      0.1678
     50  C         -5.0180   11.2320   36.8280 C.2   105  LEU105      0.2434
     51  O         -4.9820   10.0440   37.1610 O.2   105  LEU105     -0.2733
     52  CB        -3.9650   13.2140   37.9640 C.3   105  LEU105      0.0284
     53  CG        -4.0080   14.4810   38.8280 C.3   105  LEU105      0.0019
     54  CD1       -2.6450   15.1290   38.8500 C.3   105  LEU105      0.0001
     55  CD2       -5.0190   15.4600   38.2840 C.3   105  LEU105      0.0001
     56  N         -4.8930   11.6070   35.5460 N.am  106  PRO106     -0.2718
     57  CA        -4.6910   10.6140   34.4870 C.3   106  PRO106      0.1535
     58  C         -3.5400    9.6370   34.7410 C.2   106  PRO106      0.2598
     59  O         -3.7210    8.4190   34.6090 O.2   106  PRO106     -0.2715
     60  CB        -4.4750   11.4770   33.2540 C.3   106  PRO106      0.0310
     61  CG        -5.4410   12.6110   33.5100 C.3   106  PRO106      0.0237
     62  CD        -5.1500   12.9410   34.9680 C.3   106  PRO106      0.0939
     63  N         -2.3640   10.1420   35.1050 N.am  107  ASP107     -0.1972
     64  CA        -1.2530    9.2310   35.3660 C.3   107  ASP107      0.1709
     65  C         -1.3900    8.4690   36.6820 C.2   107  ASP107      0.2293
     66  O         -0.6070    7.5630   36.9500 O.2   107  ASP107     -0.2864
     67  CB         0.0940    9.9570   35.3260 C.3   107  ASP107      0.1436
     68  CG         0.1120   11.2000   36.1620 C.2   107  ASP107      0.3671
     69  OD1       -0.8210   11.3730   36.9690 O.co2 107  ASP107     -0.2456
     70  OD2        1.0670   11.9920   36.0140 O.co2 107  ASP107     -0.2456
     71  N         -1.4010    9.8830   39.9770 N.3   109  ARG109     -0.1231
     72  CA        -1.0040   10.5750   41.1900 C.3   109  ARG109      0.1694
     73  C         -2.2480   11.3060   41.6990 C.2   109  ARG109      0.2592
     74  O         -3.0270   11.8440   40.9100 O.2   109  ARG109     -0.2718
     75  CB         0.1370   11.5490   40.8940 C.3   109  ARG109      0.0321
     76  CG         0.5720   11.5260   39.4530 C.3   109  ARG109      0.0489
     77  CD         1.9690   12.0860   39.2490 C.3   109  ARG109      0.2205
     78  NE         3.0000   11.2500   39.8650 N.pl3 109  ARG109     -0.0865
     79  CZ         4.1970   11.0130   39.3260 C.cat 109  ARG109      0.5346
     80  NH1        4.5240   11.5400   38.1510 N.pl3 109  ARG109      0.1354
     81  NH2        5.0730   10.2510   39.9650 N.pl3 109  ARG109      0.1354
     82  N         -2.4340   11.3110   43.0160 N.am  110  ILE110     -0.1966
     83  CA        -3.5940   11.9370   43.6380 C.3   110  ILE110      0.1727
     84  C         -3.3510   13.3520   44.1480 C.2   110  ILE110      0.2616
     85  O         -2.2300   13.7310   44.4530 O.2   110  ILE110     -0.2715
     86  CB        -4.0730   11.0900   44.8180 C.3   110  ILE110      0.0290
     87  CG1       -4.2440    9.6350   44.3660 C.3   110  ILE110      0.0022
     88  CG2       -5.3740   11.6550   45.3730 C.3   110  ILE110      0.0023
     89  CD1       -4.5300    8.6690   45.4900 C.3   110  ILE110      0.0001
     90  N         -4.4140   14.1370   44.2310 N.am  111  ILE111     -0.1977
     91  CA        -4.3200   15.4950   44.7340 C.3   111  ILE111      0.1596
     92  C         -5.5720   15.7080   45.5620 C.2   111  ILE111      0.2287
     93  O         -6.5760   15.0220   45.3570 O.2   111  ILE111     -0.2864
     94  CB        -4.2960   16.5430   43.5950 C.3   111  ILE111      0.0276
     95  CG1       -5.6690   16.6220   42.9120 C.3   111  ILE111      0.0022
     96  CG2       -3.2120   16.1930   42.6020 C.3   111  ILE111      0.0022
     97  CD1       -5.7840   17.7180   41.8650 C.3   111  ILE111      0.0001
@<TRIPOS>BOND
     1    33    34    1
     2    34    35    1
     3    34    37    1
     4    35    36    2
     5    41    42    1
     6    46    45    1
     7    39    38   ar
     8    37    38    1
     9    38    40   ar
    10    42    45    1
    11    42    43    1
    12    60    61    1
    13    60    57    1
    14    61    62    1
    15    45    47    1
    16    43    44    2
    17    57    58    1
    18    57    56    1
    19    59    58    2
    20    58    63   am
    21    62    56    1
    22    63    64    1
    23    67    64    1
    24    67    68    1
    25    64    65    1
    26    24    25    2
    27    24    23    1
    28    56    50   am
    29    70    68   ar
    30    68    69   ar
    31    23    26    1
    32    23    22    1
    33    65    66    2
    34    28    30   ar
    35    28    27   ar
    36    20    19    2
    37    50    51    2
    38    50    49    1
    39    26    27    1
    40    30    32   ar
    41    27    29   ar
    42    22    19   am
    43    19    18    1
    44    49    52    1
    45    49    48    1
    46    52    53    1
    47    80    79    1
    48    55    53    1
    49    21    18    1
    50    32    31   ar
    51    53    54    1
    52    18    17    1
    53    29    31   ar
    54    77    76    1
    55    77    78    1
    56    79    78    2
    57    79    81    1
    58    76    75    1
    59    71    72    1
    60    17     7   am
    61     8     7    2
    62     7     6    1
    63    75    72    1
    64    74    73    2
    65    72    73    1
    66    73    82   am
    67    97    95    1
    68     9     6    1
    69     9    10    1
    70     6     5    1
    71    96    94    1
    72    95    94    1
    73    82    83    1
    74     5     3   am
    75    10    11   ar
    76    10    12   ar
    77    94    91    1
    78    83    84    1
    79    83    86    1
    80    11    13   ar
    81    12    14   ar
    82    84    90   am
    83    84    85    2
    84    90    91    1
    85     3     4    2
    86     3     2    1
    87    87    86    1
    88    87    89    1
    89    91    92    1
    90    13    15   ar
    91    86    88    1
    92    14    15   ar
    93     2     1    1
    94    93    92    2
    95    15    16    1
