@<TRIPOS>MOLECULE
tmp/3dxmA00.pdb
 184 175 0 0 0
SMALL
GASTEIGER

@<TRIPOS>ATOM
      1  N         20.7420   25.4130   51.2760 N.3     8  VAL8       -0.1245
      2  CA        20.8840   23.9720   51.4420 C.3     8  VAL8        0.1561
      3  C         20.1290   23.1920   50.3710 C.2     8  VAL8        0.2260
      4  O         18.9050   23.2800   50.2670 O.2     8  VAL8       -0.2867
      5  CB        20.3760   23.5220   52.8250 C.3     8  VAL8        0.0252
      6  CG1       20.6230   22.0340   53.0070 C.3     8  VAL8        0.0019
      7  CG2       21.0670   24.3210   53.9190 C.3     8  VAL8        0.0019
      8  N         19.4470   19.4480   49.1620 N.3    10  CYS10      -0.1235
      9  CA        19.5700   18.0490   49.5270 C.3    10  CYS10       0.1677
     10  C         19.4010   17.0760   48.3720 C.2    10  CYS10       0.2270
     11  O         18.3100   16.9510   47.8260 O.2    10  CYS10      -0.2867
     12  CB        18.5530   17.7220   50.6090 C.3    10  CYS10       0.0956
     13  SG        18.9540   18.4320   52.2100 S.3    10  CYS10      -0.0801
     14  N         17.9510    8.8290   54.3260 N.3    64  PRO64      -0.2102
     15  CA        16.5420    9.2130   54.4410 C.3    64  PRO64       0.1504
     16  C         16.1420    9.9980   53.2000 C.2    64  PRO64       0.2576
     17  O         15.0930   10.6430   53.1930 O.2    64  PRO64      -0.2718
     18  CB        16.5450   10.1020   55.6780 C.3    64  PRO64       0.0282
     19  CG        17.8260   10.8490   55.4910 C.3    64  PRO64       0.0208
     20  CD        18.7870    9.7120   55.1620 C.3    64  PRO64       0.0893
     21  N         16.9440    9.9590   52.1370 N.am   65  ILE65      -0.1966
     22  CA        16.6100   10.7500   50.9500 C.3    65  ILE65       0.1727
     23  C         16.5370   10.1020   49.5620 C.2    65  ILE65       0.2616
     24  O         17.5460    9.9450   48.9080 O.2    65  ILE65      -0.2715
     25  CB        17.6080   11.8390   50.6820 C.3    65  ILE65       0.0290
     26  CG1       17.6910   12.7890   51.8680 C.3    65  ILE65       0.0022
     27  CG2       17.2030   12.5120   49.3830 C.3    65  ILE65       0.0023
     28  CD1       18.1670   14.1500   51.4430 C.3    65  ILE65       0.0001
     29  N         15.3490    9.8530   49.0500 N.am   66  ARG66      -0.1977
     30  CA        15.2460    9.2370   47.7440 C.3    66  ARG66       0.1597
     31  C         14.0200    9.3960   46.9620 C.2    66  ARG66       0.2287
     32  O         12.9630    9.7510   47.4360 O.2    66  ARG66      -0.2864
     33  CB        15.4370    7.6810   47.9060 C.3    66  ARG66       0.0334
     34  CG        16.8580    7.3310   48.3220 C.3    66  ARG66       0.0492
     35  CD        17.5010    6.2150   47.5080 C.3    66  ARG66       0.2205
     36  NE        18.9530    6.4000   47.4390 N.pl3  66  ARG66      -0.0865
     37  CZ        19.8010    6.1800   48.4440 C.cat  66  ARG66       0.5346
     38  NH1       19.3560    5.7470   49.6150 N.pl3  66  ARG66       0.1354
     39  NH2       21.0990    6.4240   48.2900 N.pl3  66  ARG66       0.1354
     40  N         10.3650    9.5990   52.9150 N.3    71  GLU71      -0.1231
     41  CA        11.0730   10.5370   53.7420 C.3    71  GLU71       0.1699
     42  C         10.9080   10.1070   55.1660 C.2    71  GLU71       0.2592
     43  O          9.8050    9.8000   55.6190 O.2    71  GLU71      -0.2718
     44  CB        10.4150   11.9050   53.5010 C.3    71  GLU71       0.0402
     45  CG         8.8830   11.8700   53.5550 C.3    71  GLU71       0.1161
     46  CD         8.2520   11.6810   52.1970 C.2    71  GLU71       0.3649
     47  OE1        9.0130   11.6130   51.2120 O.co2  71  GLU71      -0.2457
     48  OE2        7.0040   11.6070   52.1190 O.co2  71  GLU71      -0.2457
     49  N         12.0210   10.0190   55.8610 N.am   72  ASP72      -0.1960
     50  CA        11.9630    9.7120   57.2480 C.3    72  ASP72       0.1840
     51  C         12.1580   11.1240   57.7490 C.2    72  ASP72       0.2622
     52  O         13.2040   11.7310   57.5250 O.2    72  ASP72      -0.2715
     53  CB        13.1170    8.8130   57.6710 C.3    72  ASP72       0.1450
     54  CG        13.1090    8.5570   59.1540 C.2    72  ASP72       0.3671
     55  OD1       12.5010    9.3590   59.9010 O.co2  72  ASP72      -0.2456
     56  OD2       13.7120    7.5580   59.5770 O.co2  72  ASP72      -0.2456
     57  N         11.1410   11.6690   58.3960 N.am   73  TRP73      -0.1974
     58  CA        11.2460   13.0320   58.8640 C.3    73  TRP73       0.1640
     59  C         12.0680   13.2040   60.1220 C.2    73  TRP73       0.2290
     60  O         12.7140   14.2310   60.3070 O.2    73  TRP73      -0.2864
     61  CB         9.8570   13.6290   59.0320 C.3    73  TRP73       0.0576
     62  CG         9.2200   13.8740   57.7000 C.ar   73  TRP73       0.0006
     63  CD1        8.3960   13.0300   57.0070 C.ar   73  TRP73       0.0946
     64  CD2        9.4110   15.0200   56.8670 C.ar   73  TRP73       0.0152
     65  NE1        8.0610   13.5850   55.7940 N.ar   73  TRP73      -0.2442
     66  CE2        8.6710   14.8090   55.6820 C.ar   73  TRP73       0.0810
     67  CE3       10.1360   16.2110   57.0060 C.ar   73  TRP73       0.0012
     68  CZ2        8.6360   15.7430   54.6420 C.ar   73  TRP73       0.0191
     69  CZ3       10.1020   17.1410   55.9730 C.ar   73  TRP73       0.0001
     70  CH2        9.3540   16.9010   54.8060 C.ar   73  TRP73       0.0015
     71  N         15.5570   13.3440   58.9300 N.3    76  MET76      -0.1245
     72  CA        15.8070   14.5220   58.1110 C.3    76  MET76       0.1570
     73  C         16.0300   15.7050   59.0430 C.2    76  MET76       0.2261
     74  O         16.9220   16.5240   58.8290 O.2    76  MET76      -0.2867
     75  CB        14.6140   14.8040   57.1970 C.3    76  MET76       0.0387
     76  CG        14.8760   15.8730   56.1500 C.3    76  MET76       0.0595
     77  SD        16.1830   15.4020   54.9990 S.3    76  MET76      -0.1393
     78  CE        17.4460   16.5710   55.4210 C.3    76  MET76       0.0692
     79  N         19.4810   17.9790   59.7120 N.3    80  MET80      -0.1245
     80  CA        19.5340   19.4370   59.6410 C.3    80  MET80       0.1570
     81  C         20.2100   20.0720   60.8530 C.2    80  MET80       0.2261
     82  O         20.8480   21.1190   60.7390 O.2    80  MET80      -0.2867
     83  CB        18.1220   20.0120   59.4750 C.3    80  MET80       0.0387
     84  CG        17.6150   20.0020   58.0400 C.3    80  MET80       0.0595
     85  SD        18.7600   20.8490   56.9280 S.3    80  MET80      -0.1393
     86  CE        18.7520   22.5120   57.6250 C.3    80  MET80       0.0692
     87  N         15.8080   26.3630   50.7890 N.3    99  LEU99      -0.1231
     88  CA        15.9050   24.9220   50.6710 C.3    99  LEU99       0.1693
     89  C         15.3820   24.5550   49.2960 C.2    99  LEU99       0.2593
     90  O         14.7240   25.3620   48.6330 O.2    99  LEU99      -0.2718
     91  CB        15.0730   24.2330   51.7560 C.3    99  LEU99       0.0284
     92  CG        15.4510   24.5310   53.2110 C.3    99  LEU99       0.0019
     93  CD1       14.4820   23.8140   54.1370 C.3    99  LEU99       0.0001
     94  CD2       16.8830   24.0890   53.4870 C.3    99  LEU99       0.0001
     95  N         15.6840   23.3400   48.8620 N.am  100  THR100     -0.1939
     96  CA        15.2340   22.8870   47.5620 C.3   100  THR100      0.2028
     97  C         14.4370   21.6020   47.7050 C.2   100  THR100      0.2642
     98  O         14.7240   20.7670   48.5630 O.2   100  THR100     -0.2714
     99  CB        16.4240   22.6320   46.6060 C.3   100  THR100      0.1808
    100  OG1       17.0420   21.3780   46.9220 O.3   100  THR100     -0.2208
    101  CG2       17.4610   23.7390   46.7450 C.3   100  THR100      0.0379
    102  N         13.4180   21.4620   46.8680 N.am  101  GLU101     -0.1963
    103  CA        12.5770   20.2760   46.8680 C.3   101  GLU101      0.1718
    104  C         12.6260   19.6930   45.4700 C.2   101  GLU101      0.2458
    105  O         12.9560   20.3880   44.5090 O.2   101  GLU101     -0.2730
    106  CB        11.1310   20.6340   47.2010 C.3   101  GLU101      0.0428
    107  CG        10.4840   21.5560   46.1760 C.3   101  GLU101      0.1163
    108  CD         9.0240   21.8270   46.4790 C.2   101  GLU101      0.3649
    109  OE1        8.3940   22.6150   45.7430 O.co2 101  GLU101     -0.2457
    110  OE2        8.5030   21.2490   47.4540 O.co2 101  GLU101     -0.2457
    111  N         12.3060   18.4050   45.3310 N.am  102  PRO102     -0.2727
    112  CA        12.3440   17.8410   43.9850 C.3   102  PRO102      0.1402
    113  C         11.0830   18.3330   43.2950 C.2   102  PRO102      0.2269
    114  O         10.2300   18.9580   43.9300 O.2   102  PRO102     -0.2865
    115  CB        12.2730   16.3390   44.2390 C.3   102  PRO102      0.0296
    116  CG        12.7880   16.1850   45.6350 C.3   102  PRO102      0.0237
    117  CD        12.1260   17.3410   46.3260 C.3   102  PRO102      0.0939
    118  N          7.1840   17.1570   44.4850 N.3   105  ASN105     -0.1240
    119  CA         7.1850   17.0240   45.9320 C.3   105  ASN105      0.1653
    120  C          5.7820   17.5480   46.2270 C.2   105  ASN105      0.2266
    121  O          5.2690   18.3600   45.4590 O.2   105  ASN105     -0.2867
    122  CB         8.2470   17.9500   46.5320 C.3   105  ASN105      0.1155
    123  CG         8.2950   17.8860   48.0430 C.2   105  ASN105      0.2627
    124  OD1        8.2700   16.8050   48.6250 O.2   105  ASN105     -0.2716
    125  ND2        8.3800   19.0450   48.6860 N.am  105  ASN105     -0.0877
    126  N          4.5010   17.9270   52.1660 N.3   109  ASN109     -0.1225
    127  CA         5.9190   17.8430   52.4960 C.3   109  ASN109      0.1785
    128  C          6.4980   19.2380   52.7240 C.2   109  ASN109      0.2597
    129  O          7.4130   19.4120   53.5290 O.2   109  ASN109     -0.2718
    130  CB         6.6880   17.1270   51.3810 C.3   109  ASN109      0.1169
    131  CG         6.4610   15.6250   51.3890 C.2   109  ASN109      0.2627
    132  OD1        6.9990   14.8980   50.5530 O.2   109  ASN109     -0.2716
    133  ND2        5.6640   15.1520   52.3410 N.am  109  ASN109     -0.0877
    134  N          5.9600   20.2310   52.0200 N.am  110  ARG110     -0.1979
    135  CA         6.4300   21.6030   52.1770 C.3   110  ARG110      0.1597
    136  C          6.0410   22.1490   53.5470 C.2   110  ARG110      0.2287
    137  O          6.7770   22.9380   54.1380 O.2   110  ARG110     -0.2864
    138  CB         5.8650   22.5000   51.0720 C.3   110  ARG110      0.0334
    139  CG         6.5340   22.3060   49.7240 C.3   110  ARG110      0.0492
    140  CD         5.8350   23.1160   48.6540 C.3   110  ARG110      0.2205
    141  NE         5.8260   22.4000   47.3850 N.pl3 110  ARG110     -0.0865
    142  CZ         4.7790   22.3460   46.5700 C.cat 110  ARG110      0.5346
    143  NH1        3.6540   22.9700   46.8900 N.pl3 110  ARG110      0.1354
    144  NH2        4.8520   21.6560   45.4410 N.pl3 110  ARG110      0.1354
    145  N          8.3030   20.5070   56.1420 N.3   113  THR113     -0.1218
    146  CA         9.6010   21.1680   56.1130 C.3   113  THR113      0.1862
    147  C          9.5520   22.4780   56.9030 C.2   113  THR113      0.2287
    148  O         10.4400   22.7520   57.7100 O.2   113  THR113     -0.2866
    149  CB        10.0420   21.4770   54.6600 C.3   113  THR113      0.1770
    150  OG1       10.3590   20.2560   53.9810 O.3   113  THR113     -0.2211
    151  CG2       11.2620   22.3770   54.6540 C.3   113  THR113      0.0375
    152  N          9.4820   22.0970   60.6650 N.3   116  ILE116     -0.1231
    153  CA        10.8010   21.8280   61.2150 C.3   116  ILE116      0.1692
    154  C         11.6040   23.1230   61.2990 C.2   116  ILE116      0.2591
    155  O         12.1440   23.4670   62.3500 O.2   116  ILE116     -0.2718
    156  CB        11.5700   20.7940   60.3400 C.3   116  ILE116      0.0266
    157  CG1       10.9260   19.4070   60.4810 C.3   116  ILE116      0.0019
    158  CG2       13.0370   20.7510   60.7420 C.3   116  ILE116      0.0020
    159  CD1       11.5410   18.3210   59.5930 C.3   116  ILE116      0.0001
    160  N         11.6540   23.8460   60.1860 N.am  117  MET117     -0.1979
    161  CA        12.4090   25.0900   60.0980 C.3   117  MET117      0.1605
    162  C         11.9600   26.2280   61.0070 C.2   117  MET117      0.2287
    163  O         12.7900   26.9200   61.5950 O.2   117  MET117     -0.2864
    164  CB        12.4310   25.5700   58.6460 C.3   117  MET117      0.0413
    165  CG        13.1520   24.6100   57.7140 C.3   117  MET117      0.0598
    166  SD        14.6980   23.9930   58.4310 S.3   117  MET117     -0.1393
    167  CE        15.8510   25.3070   57.9970 C.3   117  MET117      0.0692
    168  N         11.2840   27.7640   49.5750 N.3   128  ILE128     -0.1245
    169  CA        11.4970   26.4370   49.0200 C.3   128  ILE128      0.1561
    170  C         11.4650   26.5200   47.4990 C.2   128  ILE128      0.2260
    171  O         10.4170   26.7510   46.8920 O.2   128  ILE128     -0.2867
    172  CB        10.4240   25.4440   49.5090 C.3   128  ILE128      0.0252
    173  CG1       10.3420   25.4890   51.0390 C.3   128  ILE128      0.0019
    174  CG2       10.7730   24.0350   49.0480 C.3   128  ILE128      0.0019
    175  CD1        9.3530   24.5100   51.6490 C.3   128  ILE128      0.0001
    176  N         14.2450   22.5020   42.3870 N.3   131  GLN131     -0.1245
    177  CA        15.5420   22.2290   41.7770 C.3   131  GLN131      0.1566
    178  C         15.7070   22.5620   40.2930 C.2   131  GLN131      0.2260
    179  O         16.6420   23.2720   39.9190 O.2   131  GLN131     -0.2867
    180  CB        15.9050   20.7650   42.0300 C.3   131  GLN131      0.0367
    181  CG        16.3200   20.4920   43.4700 C.3   131  GLN131      0.0905
    182  CD        15.9640   19.0940   43.9330 C.2   131  GLN131      0.2608
    183  OE1       15.6900   18.2090   43.1230 O.2   131  GLN131     -0.2717
    184  NE2       15.9750   18.8860   45.2450 N.am  131  GLN131     -0.0878
@<TRIPOS>BOND
     1   179   178    2
     2   178   177    1
     3   177   180    1
     4   177   176    1
     5   180   181    1
     6   183   182    2
     7   113   114    2
     8   113   112    1
     9   181   182    1
    10   182   184   am
    11   112   115    1
    12   112   111    1
    13   115   116    1
    14   118   119    1
    15   105   104    2
    16   111   104   am
    17   111   117    1
    18   144   142    1
    19   121   120    2
    20   104   103    1
    21   116   117    1
    22   109   108   ar
    23   119   120    1
    24   119   122    1
    25   107   108    1
    26   107   106    1
    27   108   110   ar
    28   122   123    1
    29   142   143    1
    30   142   141    2
    31    99   101    1
    32    99   100    1
    33    99    96    1
    34   103   102    1
    35   103   106    1
    36   102    97   am
    37   171   170    2
    38    31    32    2
    39    31    30    1
    40   141   140    1
    41    36    35    1
    42    36    37    2
    43   170   169    1
    44    35    34    1
    45    96    97    1
    46    96    95    1
    47    97    98    2
    48    30    33    1
    49    30    29    1
    50    11    10    2
    51    33    34    1
    52   123   124    2
    53   123   125   am
    54    39    37    1
    55    10     9    1
    56    37    38    1
    57    90    89    2
    58   140   139    1
    59    95    89   am
    60    24    23    2
    61   169   172    1
    62   169   168    1
    63   174   172    1
    64    29    23   am
    65     8     9    1
    66    89    88    1
    67    27    25    1
    68   172   173    1
    69     9    12    1
    70    23    22    1
    71   139   138    1
    72     4     3    2
    73     3     2    1
    74   132   131    2
    75    12    13    1
    76    88    87    1
    77    88    91    1
    78    25    22    1
    79    25    26    1
    80    22    21    1
    81   173   175    1
    82   138   135    1
    83    47    46   ar
    84     1     2    1
    85   130   131    1
    86   130   127    1
    87   131   133   am
    88     2     5    1
    89    28    26    1
    90    91    92    1
    91   134   135    1
    92   134   128   am
    93    48    46   ar
    94    21    16   am
    95   126   127    1
    96   135   136    1
    97    46    45    1
    98   127   128    1
    99   128   129    2
   100     5     6    1
   101     5     7    1
   102    40    41    1
   103    17    16    2
   104    16    15    1
   105    92    94    1
   106    92    93    1
   107    44    45    1
   108    44    41    1
   109   136   137    2
   110    41    42    1
   111   150   149    1
   112    14    15    1
   113    14    20    1
   114    15    18    1
   115    68    70   ar
   116    68    66   ar
   117   151   149    1
   118   149   146    1
   119    70    69   ar
   120    77    78    1
   121    77    76    1
   122    20    19    1
   123    42    43    2
   124    42    49   am
   125    19    18    1
   126    66    65   ar
   127    66    64   ar
   128    65    63   ar
   129    49    50    1
   130    69    67   ar
   131   146   145    1
   132   146   147    1
   133    76    75    1
   134    64    67   ar
   135    64    62   ar
   136   147   148    2
   137    85    86    1
   138    85    84    1
   139    63    62   ar
   140    75    72    1
   141    50    53    1
   142    50    51    1
   143    52    51    2
   144    53    54    1
   145    62    61    1
   146   165   166    1
   147   165   164    1
   148    51    57   am
   149   167   166    1
   150    84    83    1
   151    72    71    1
   152    72    73    1
   153    57    58    1
   154   164   161    1
   155    74    73    2
   156    58    61    1
   157    58    59    1
   158    54    56   ar
   159    54    55   ar
   160    83    80    1
   161   159   157    1
   162    80    79    1
   163    80    81    1
   164   161   160    1
   165   161   162    1
   166    59    60    2
   167   160   154   am
   168   156   157    1
   169   156   158    1
   170   156   153    1
   171   152   153    1
   172    82    81    2
   173   162   163    2
   174   153   154    1
   175   154   155    2
