@<TRIPOS>MOLECULE
tmp/3dxoB00.pdb
 134 133 0 0 0
SMALL
GASTEIGER

@<TRIPOS>ATOM
      1  N         21.0750   67.2170  -26.5440 N.3    10  TYR10      -0.1227
      2  CA        21.3650   67.0820  -25.1240 C.3    10  TYR10       0.1736
      3  C         21.0660   65.6380  -24.6530 C.2    10  TYR10       0.2595
      4  O         21.9480   64.9780  -24.0930 O.2    10  TYR10      -0.2718
      5  CB        20.5770   68.1270  -24.3190 C.3    10  TYR10       0.0548
      6  CG        20.6760   67.9740  -22.8260 C.ar   10  TYR10      -0.0200
      7  CD1       19.8140   67.1330  -22.1560 C.ar   10  TYR10      -0.0009
      8  CD2       21.6420   68.6500  -22.0850 C.ar   10  TYR10      -0.0009
      9  CE1       19.8960   66.9680  -20.8050 C.ar   10  TYR10       0.0417
     10  CE2       21.7360   68.4900  -20.7210 C.ar   10  TYR10       0.0417
     11  CZ        20.8470   67.6500  -20.0880 C.ar   10  TYR10       0.1957
     12  OH        20.8840   67.4580  -18.7180 O.3    10  TYR10      -0.2866
     13  N         19.8450   65.1520  -24.9080 N.am   11  LEU11      -0.1980
     14  CA        19.4530   63.8110  -24.4720 C.3    11  LEU11       0.1596
     15  C         20.2650   62.6980  -25.1500 C.2    11  LEU11       0.2287
     16  O         20.5120   61.6520  -24.5450 O.2    11  LEU11      -0.2864
     17  CB        17.9470   63.5870  -24.6850 C.3    11  LEU11       0.0297
     18  CG        16.9810   64.3500  -23.7390 C.3    11  LEU11       0.0022
     19  CD1       15.4920   64.1070  -24.1140 C.3    11  LEU11       0.0001
     20  CD2       17.2280   64.0080  -22.2650 C.3    11  LEU11       0.0001
     21  N         23.1560   61.9370  -23.1000 N.3    14  TRP14      -0.1241
     22  CA        22.8330   61.1510  -21.8980 C.3    14  TRP14       0.1605
     23  C         22.4660   59.7060  -22.2090 C.2    14  TRP14       0.2264
     24  O         22.6080   58.8410  -21.3750 O.2    14  TRP14      -0.2867
     25  CB        21.6950   61.7830  -21.0860 C.3    14  TRP14       0.0550
     26  CG        22.1380   62.9190  -20.2440 C.ar   14  TRP14       0.0003
     27  CD1       22.2110   64.2210  -20.6120 C.ar   14  TRP14       0.0946
     28  CD2       22.5950   62.8580  -18.8830 C.ar   14  TRP14       0.0152
     29  NE1       22.6630   64.9860  -19.5630 N.ar   14  TRP14      -0.2442
     30  CE2       22.9100   64.1770  -18.4910 C.ar   14  TRP14       0.0810
     31  CE3       22.7120   61.8290  -17.9440 C.ar   14  TRP14       0.0012
     32  CZ2       23.3610   64.4900  -17.2180 C.ar   14  TRP14       0.0191
     33  CZ3       23.1610   62.1340  -16.6780 C.ar   14  TRP14       0.0001
     34  CH2       23.4920   63.4490  -16.3240 C.ar   14  TRP14       0.0015
     35  N         27.1940   72.5770  -15.2560 N.3    36  TYR36      -0.1241
     36  CA        25.9650   71.8220  -15.0500 C.3    36  TYR36       0.1605
     37  C         25.6620   71.7010  -13.5530 C.2    36  TYR36       0.2264
     38  O         26.5520   71.5230  -12.7350 O.2    36  TYR36      -0.2867
     39  CB        26.1130   70.4170  -15.6670 C.3    36  TYR36       0.0534
     40  CG        24.9350   69.5010  -15.4640 C.ar   36  TYR36      -0.0201
     41  CD1       24.7170   68.8770  -14.2390 C.ar   36  TYR36      -0.0009
     42  CD2       24.0560   69.2400  -16.4880 C.ar   36  TYR36      -0.0009
     43  CE1       23.6310   68.0280  -14.0330 C.ar   36  TYR36       0.0417
     44  CE2       22.9790   68.3950  -16.3060 C.ar   36  TYR36       0.0417
     45  CZ        22.7660   67.7890  -15.0710 C.ar   36  TYR36       0.1957
     46  OH        21.6820   66.9550  -14.8610 O.3    36  TYR36      -0.2866
     47  N         22.2350   70.0420  -11.0780 N.3    38  ASP38      -0.1225
     48  CA        20.8590   69.5670  -10.8340 C.3    38  ASP38       0.1790
     49  C         20.7610   69.2240   -9.3320 C.2    38  ASP38       0.2440
     50  O         21.7120   69.4830   -8.5720 O.2    38  ASP38      -0.2733
     51  CB        20.4630   68.4180  -11.7980 C.3    38  ASP38       0.1423
     52  CG        21.1560   67.0760  -11.4910 C.2    38  ASP38       0.3668
     53  OD1       21.6280   66.8160  -10.3500 O.co2  38  ASP38      -0.2456
     54  OD2       21.2070   66.2590  -12.4250 O.co2  38  ASP38      -0.2456
     55  N         19.6390   68.6380   -8.8820 N.am   39  PRO39      -0.2718
     56  CA        19.5980   68.4130   -7.4050 C.3    39  PRO39       0.1535
     57  C         20.5560   67.3520   -6.8610 C.2    39  PRO39       0.2598
     58  O         20.7850   67.3100   -5.6590 O.2    39  PRO39      -0.2715
     59  CB        18.1470   67.9800   -7.1350 C.3    39  PRO39       0.0310
     60  CG        17.4030   68.1660   -8.4480 C.3    39  PRO39       0.0237
     61  CD        18.4150   68.1910   -9.5610 C.3    39  PRO39       0.0939
     62  N         21.1020   66.5060   -7.7240 N.am   40  LEU40      -0.1978
     63  CA        21.9910   65.4180   -7.3020 C.3    40  LEU40       0.1596
     64  C         23.4510   65.5550   -7.7530 C.2    40  LEU40       0.2287
     65  O         24.3320   64.8730   -7.2490 O.2    40  LEU40      -0.2864
     66  CB        21.4790   64.1220   -7.9360 C.3    40  LEU40       0.0297
     67  CG        20.0360   63.7030   -7.6590 C.3    40  LEU40       0.0022
     68  CD1       19.6040   62.4610   -8.4840 C.3    40  LEU40       0.0001
     69  CD2       19.8910   63.4880   -6.1420 C.3    40  LEU40       0.0001
     70  N         26.7960   58.8350  -13.5470 N.3    54  ALA54      -0.1245
     71  CA        25.3390   58.7710  -13.3990 C.3    54  ALA54       0.1562
     72  C         24.7810   57.4680  -13.9710 C.2    54  ALA54       0.2260
     73  O         24.0140   56.7440  -13.3290 O.2    54  ALA54      -0.2867
     74  CB        24.6980   59.9750  -14.0930 C.3    54  ALA54       0.0290
     75  N         16.5070   58.2150  -20.9150 N.3    63  PHE63      -0.1241
     76  CA        15.9140   59.5500  -20.7110 C.3    63  PHE63       0.1605
     77  C         15.1310   59.9260  -21.9700 C.2    63  PHE63       0.2264
     78  O         15.7370   60.2010  -22.9790 O.2    63  PHE63      -0.2867
     79  CB        17.0380   60.5610  -20.4160 C.3    63  PHE63       0.0534
     80  CG        17.9790   60.1020  -19.3440 C.ar   63  PHE63      -0.0203
     81  CD1       19.0840   59.3370  -19.6580 C.ar   63  PHE63      -0.0042
     82  CD2       17.7190   60.3690  -18.0250 C.ar   63  PHE63      -0.0042
     83  CE1       19.9470   58.8770  -18.6710 C.ar   63  PHE63      -0.0003
     84  CE2       18.5790   59.9220  -17.0170 C.ar   63  PHE63      -0.0003
     85  CZ        19.6890   59.1710  -17.3420 C.ar   63  PHE63      -0.0000
     86  N         11.8830   65.5820  -19.5890 N.3    80  TRP80      -0.1241
     87  CA        12.1450   64.2060  -19.9680 C.3    80  TRP80       0.1605
     88  C         11.6960   63.2730  -18.8570 C.2    80  TRP80       0.2264
     89  O         11.5910   63.6960  -17.7240 O.2    80  TRP80      -0.2867
     90  CB        13.6490   64.0110  -20.2350 C.3    80  TRP80       0.0550
     91  CG        14.4660   64.4560  -19.0980 C.ar   80  TRP80       0.0003
     92  CD1       15.0260   65.6830  -18.9410 C.ar   80  TRP80       0.0946
     93  CD2       14.7780   63.7100  -17.9010 C.ar   80  TRP80       0.0152
     94  NE1       15.7010   65.7390  -17.7420 N.ar   80  TRP80      -0.2442
     95  CE2       15.5530   64.5500  -17.0780 C.ar   80  TRP80       0.0810
     96  CE3       14.4770   62.4240  -17.4540 C.ar   80  TRP80       0.0012
     97  CZ2       16.0170   64.1600  -15.8100 C.ar   80  TRP80       0.0191
     98  CZ3       14.9570   62.0200  -16.1930 C.ar   80  TRP80       0.0001
     99  CH2       15.7200   62.8930  -15.3930 C.ar   80  TRP80       0.0015
    100  N         12.3410   59.3360  -17.0060 N.3    82  LEU82      -0.1245
    101  CA        13.3380   58.2990  -16.7850 C.3    82  LEU82       0.1561
    102  C         12.6530   56.9630  -16.9150 C.2    82  LEU82       0.2260
    103  O         11.7850   56.6450  -16.1090 O.2    82  LEU82      -0.2867
    104  CB        13.9600   58.4270  -15.3830 C.3    82  LEU82       0.0270
    105  CG        15.1130   57.5100  -14.9460 C.3    82  LEU82       0.0019
    106  CD1       16.3090   57.6260  -15.8570 C.3    82  LEU82       0.0001
    107  CD2       15.4910   57.8400  -13.5250 C.3    82  LEU82       0.0001
    108  N         14.8780   70.7340  -17.6410 N.3    95  ASP95      -0.1239
    109  CA        16.1330   71.4670  -17.7150 C.3    95  ASP95       0.1674
    110  C         16.0080   72.7930  -18.4500 C.2    95  ASP95       0.2266
    111  O         15.1630   72.9590  -19.3480 O.2    95  ASP95      -0.2867
    112  CB        17.1870   70.6640  -18.4880 C.3    95  ASP95       0.1410
    113  CG        17.4880   69.3250  -17.8710 C.2    95  ASP95       0.3668
    114  OD1       18.2330   69.2540  -16.8620 O.co2  95  ASP95      -0.2456
    115  OD2       17.0230   68.3280  -18.4690 O.co2  95  ASP95      -0.2456
    116  N         16.1060   70.1600  -12.8080 N.3   111  PHE111     -0.1227
    117  CA        15.2010   69.9690  -11.6640 C.3   111  PHE111      0.1736
    118  C         14.5140   68.5870  -11.7710 C.2   111  PHE111      0.2595
    119  O         14.4160   68.0380  -12.8400 O.2   111  PHE111     -0.2718
    120  CB        14.1480   71.0720  -11.6340 C.3   111  PHE111      0.0547
    121  CG        14.7150   72.4610  -11.5230 C.ar  111  PHE111     -0.0202
    122  CD1       15.0710   73.1810  -12.6610 C.ar  111  PHE111     -0.0042
    123  CD2       14.8840   73.0520  -10.2770 C.ar  111  PHE111     -0.0042
    124  CE1       15.6020   74.4620  -12.5620 C.ar  111  PHE111     -0.0003
    125  CE2       15.3930   74.3360  -10.1640 C.ar  111  PHE111     -0.0003
    126  CZ        15.7530   75.0540  -11.3180 C.ar  111  PHE111     -0.0000
    127  N         14.0480   68.0260  -10.6630 N.am  112  LEU112     -0.1980
    128  CA        13.3760   66.7240  -10.6800 C.3   112  LEU112      0.1596
    129  C         11.8640   66.8830  -10.6090 C.2   112  LEU112      0.2287
    130  O         11.3710   67.8050   -9.9650 O.2   112  LEU112     -0.2864
    131  CB        13.8630   65.8450   -9.5300 C.3   112  LEU112      0.0297
    132  CG        15.2720   65.2830   -9.7820 C.3   112  LEU112      0.0022
    133  CD1       15.8270   64.7110   -8.4460 C.3   112  LEU112      0.0001
    134  CD2       15.3870   64.2200  -10.9770 C.3   112  LEU112      0.0001
@<TRIPOS>BOND
     1     1     2    1
     2    15    16    2
     3    15    14    1
     4     2     3    1
     5     2     5    1
     6    13     3   am
     7    13    14    1
     8    17    14    1
     9    17    18    1
    10     3     4    2
    11     5     6    1
    12    19    18    1
    13    18    20    1
    14    21    22    1
    15    78    77    2
    16     6     7   ar
    17     6     8   ar
    18    23    22    1
    19    23    24    2
    20     7     9   ar
    21     8    10   ar
    22    77    76    1
    23    22    25    1
    24    25    26    1
    25    75    76    1
    26     9    11   ar
    27    10    11   ar
    28    76    79    1
    29    27    26   ar
    30    27    29   ar
    31    79    80    1
    32    26    28   ar
    33    90    87    1
    34    90    91    1
    35    11    12    1
    36    87    86    1
    37    87    88    1
    38    81    80   ar
    39    81    83   ar
    40    29    30   ar
    41   111   110    2
    42    80    82   ar
    43    91    92   ar
    44    91    93   ar
    45    92    94   ar
    46    28    30   ar
    47    28    31   ar
    48    88    89    2
    49    83    85   ar
    50    30    32   ar
    51   112   113    1
    52   112   109    1
    53   115   113   ar
    54   110   109    1
    55    82    84   ar
    56    31    33   ar
    57    93    96   ar
    58    93    95   ar
    59   113   114   ar
    60    94    95   ar
    61   109   108    1
    62    96    98   ar
    63    85    84   ar
    64    32    34   ar
    65    95    97   ar
    66   100   101    1
    67   102   101    1
    68   102   103    2
    69   101   104    1
    70    33    34   ar
    71    42    44   ar
    72    42    40   ar
    73    44    45   ar
    74    98    99   ar
    75   106   105    1
    76    97    99   ar
    77    39    40    1
    78    39    36    1
    79    40    41   ar
    80   104   105    1
    81    35    36    1
    82    45    46    1
    83    45    43   ar
    84    36    37    1
    85   105   107    1
    86    41    43   ar
    87    74    71    1
    88    72    71    1
    89    72    73    2
    90    37    38    2
    91    70    71    1
    92   119   118    2
    93   116   117    1
    94   122   124   ar
    95   122   121   ar
    96   124   126   ar
    97    54    52   ar
    98    51    52    1
    99    51    48    1
   100   118   117    1
   101   118   127   am
   102   117   120    1
   103   120   121    1
   104   121   123   ar
   105    52    53   ar
   106   126   125   ar
   107    47    48    1
   108   134   132    1
   109    48    49    1
   110   128   127    1
   111   128   129    1
   112   128   131    1
   113   129   130    2
   114   123   125   ar
   115   132   131    1
   116   132   133    1
   117    61    55    1
   118    61    60    1
   119    49    55   am
   120    49    50    2
   121    55    56    1
   122    68    67    1
   123    60    59    1
   124    66    67    1
   125    66    63    1
   126    64    63    1
   127    64    65    2
   128    62    63    1
   129    62    57   am
   130    67    69    1
   131    56    59    1
   132    56    57    1
   133    57    58    2
