@<TRIPOS>MOLECULE
tmp/3dxvB01.pdb
 112 106 0 0 0
SMALL
GASTEIGER

@<TRIPOS>ATOM
      1  N         15.0260  -10.2760   21.0410 N.3   107  SER107     -0.1202
      2  CA        15.6760  -11.5570   20.8020 C.3   107  SER107      0.2020
      3  C         14.9510  -12.4110   19.7680 C.2   107  SER107      0.2619
      4  O         13.7880  -12.1700   19.4600 O.2   107  SER107     -0.2717
      5  CB        15.7400  -12.3490   22.1090 C.3   107  SER107      0.2103
      6  OG        14.4430  -12.7880   22.4790 O.3   107  SER107     -0.2182
      7  N         15.6470  -13.4290   19.2580 N.am  108  GLY108     -0.1942
      8  CA        15.0480  -14.4160   18.3740 C.3   108  GLY108      0.2014
      9  C         13.8760  -15.1490   19.0020 C.2   108  GLY108      0.2639
     10  O         12.9550  -15.5920   18.2880 O.2   108  GLY108     -0.2714
     11  N         13.9230  -15.2970   20.3250 N.am  109  SER109     -0.1949
     12  CA        12.8240  -15.8650   21.1050 C.3   109  SER109      0.1924
     13  C         11.5590  -15.0170   20.9970 C.2   109  SER109      0.2314
     14  O         10.4880  -15.5420   20.7170 O.2   109  SER109     -0.2863
     15  CB        13.2100  -15.9930   22.5850 C.3   109  SER109      0.2116
     16  OG        14.0650  -17.1000   22.8370 O.3   109  SER109     -0.2180
     17  N         10.3380  -15.0360   17.1090 N.3   112  ASN112     -0.1240
     18  CA         9.5910  -16.2640   16.7850 C.3   112  ASN112      0.1653
     19  C          8.1990  -16.3520   17.4320 C.2   112  ASN112      0.2266
     20  O          7.2200  -16.6860   16.7610 O.2   112  ASN112     -0.2867
     21  CB        10.4100  -17.5140   17.1200 C.3   112  ASN112      0.1155
     22  CG        11.4620  -17.8040   16.0850 C.2   112  ASN112      0.2627
     23  OD1       11.1530  -18.1930   14.9660 O.2   112  ASN112     -0.2716
     24  ND2       12.7130  -17.6020   16.4460 N.am  112  ASN112     -0.0877
     25  N         15.2490  -25.3720   17.3290 N.3   135  TYR135     -0.1227
     26  CA        15.3950  -24.3900   18.3820 C.3   135  TYR135      0.1736
     27  C         14.8770  -23.0410   17.9010 C.2   135  TYR135      0.2595
     28  O         15.5110  -22.3910   17.0680 O.2   135  TYR135     -0.2718
     29  CB        16.8490  -24.2600   18.8400 C.3   135  TYR135      0.0548
     30  CG        16.9730  -23.5100   20.1570 C.ar  135  TYR135     -0.0200
     31  CD1       17.1050  -24.1990   21.3570 C.ar  135  TYR135     -0.0009
     32  CD2       16.9150  -22.1120   20.1980 C.ar  135  TYR135     -0.0009
     33  CE1       17.2000  -23.5180   22.5690 C.ar  135  TYR135      0.0417
     34  CE2       16.9970  -21.4240   21.3920 C.ar  135  TYR135      0.0417
     35  CZ        17.1430  -22.1290   22.5760 C.ar  135  TYR135      0.1957
     36  OH        17.2390  -21.4580   23.7740 O.3   135  TYR135     -0.2866
     37  N         13.7260  -22.6290   18.4260 N.am  136  HIS136     -0.1961
     38  CA        13.1140  -21.3600   18.0370 C.3   136  HIS136      0.1787
     39  C         13.0540  -20.3720   19.1910 C.2   136  HIS136      0.2621
     40  O         12.6410  -19.2260   19.0200 O.2   136  HIS136     -0.2715
     41  CB        11.7220  -21.5960   17.4430 C.3   136  HIS136      0.0785
     42  CG        11.7410  -22.3910   16.1710 C.ar  136  HIS136      0.0821
     43  ND1       12.4320  -21.9830   15.0520 N.ar  136  HIS136     -0.2267
     44  CD2       11.1700  -23.5740   15.8500 C.ar  136  HIS136      0.1154
     45  CE1       12.2730  -22.8760   14.0910 C.ar  136  HIS136      0.1986
     46  NE2       11.5110  -23.8510   14.5490 N.ar  136  HIS136     -0.2212
     47  N         13.4710  -20.8200   20.3680 N.am  137  GLY137     -0.1940
     48  CA        13.5670  -19.9330   21.5160 C.3   137  GLY137      0.2014
     49  C         13.2690  -20.5490   22.8600 C.2   137  GLY137      0.2639
     50  O         12.8290  -21.6990   22.9530 O.2   137  GLY137     -0.2714
     51  N         13.5070  -19.7590   23.9050 N.am  138  CYS138     -0.1967
     52  CA        13.3550  -20.2210   25.2770 C.3   138  CYS138      0.1712
     53  C         12.2850  -19.4430   26.0670 C.2   138  CYS138      0.2296
     54  O         12.3780  -19.3160   27.3010 O.2   138  CYS138     -0.2864
     55  CB        14.7060  -20.1410   25.9880 C.3   138  CYS138      0.0983
     56  SG        14.8230  -21.1250   27.4870 S.3   138  CYS138     -0.0798
     57  N         14.4580  -23.8410   10.0750 N.3   203  GLU203     -0.1245
     58  CA        15.8640  -23.4270   10.1270 C.3   203  GLU203      0.1567
     59  C         16.5440  -23.9330    8.8500 C.2   203  GLU203      0.2260
     60  O         16.5370  -25.1400    8.5970 O.2   203  GLU203     -0.2867
     61  CB        16.5850  -24.0100   11.3430 C.3   203  GLU203      0.0388
     62  CG        16.0860  -23.5570   12.6860 C.3   203  GLU203      0.1160
     63  CD        16.9450  -24.1220   13.7870 C.2   203  GLU203      0.3649
     64  OE1       16.4890  -25.0480   14.4790 O.co2 203  GLU203     -0.2457
     65  OE2       18.1010  -23.6700   13.9260 O.co2 203  GLU203     -0.2457
     66  N         20.5280  -25.3340   13.8520 N.3   207  SER207     -0.1202
     67  CA        21.5350  -24.9400   14.8290 C.3   207  SER207      0.2020
     68  C         21.7530  -25.9810   15.9250 C.2   207  SER207      0.2618
     69  O         22.6330  -26.8300   15.8030 O.2   207  SER207     -0.2717
     70  CB        21.1650  -23.5780   15.4400 C.3   207  SER207      0.2103
     71  OG        19.8360  -23.5760   15.9540 O.3   207  SER207     -0.2182
     72  N         20.9390  -25.9130   16.9780 N.am  208  ASP208     -0.1973
     73  CA        21.1070  -26.7390   18.1800 C.3   208  ASP208      0.1709
     74  C         20.8850  -28.2240   17.9280 C.2   208  ASP208      0.2293
     75  O         21.3220  -29.0620   18.7210 O.2   208  ASP208     -0.2864
     76  CB        20.1880  -26.2500   19.3180 C.3   208  ASP208      0.1436
     77  CG        20.7500  -25.0380   20.0560 C.2   208  ASP208      0.3671
     78  OD1       20.1970  -24.6850   21.1300 O.co2 208  ASP208     -0.2456
     79  OD2       21.7370  -24.4330   19.5660 O.co2 208  ASP208     -0.2456
     80  N         13.5760  -19.1160   10.0910 N.3   236  ASP236     -0.1239
     81  CA        14.2370  -18.6680   11.2870 C.3   236  ASP236      0.1674
     82  C         15.7190  -18.5410   10.9510 C.2   236  ASP236      0.2266
     83  O         16.4490  -19.5370   10.9420 O.2   236  ASP236     -0.2867
     84  CB        13.9740  -19.6810   12.4150 C.3   236  ASP236      0.1410
     85  CG        14.5730  -19.2630   13.7580 C.2   236  ASP236      0.3668
     86  OD1       14.2660  -19.9290   14.7730 O.co2 236  ASP236     -0.2456
     87  OD2       15.3520  -18.2830   13.8010 O.co2 236  ASP236     -0.2456
     88  N         17.8560  -16.5100   12.7310 N.3   238  VAL238     -0.1231
     89  CA        18.4500  -15.8820   13.9080 C.3   238  VAL238      0.1692
     90  C         19.9310  -16.2750   14.0100 C.2   238  VAL238      0.2591
     91  O         20.7890  -15.4140   14.1500 O.2   238  VAL238     -0.2718
     92  CB        17.6350  -16.2210   15.2110 C.3   238  VAL238      0.0266
     93  CG1       18.3220  -15.7110   16.4690 C.3   238  VAL238      0.0020
     94  CG2       16.2200  -15.6410   15.1250 C.3   238  VAL238      0.0020
     95  N         20.2170  -17.5670   13.8780 N.am  239  LYS239     -0.1980
     96  CA        21.5820  -18.1000   13.9770 C.3   239  LYS239      0.1596
     97  C         22.3910  -17.9130   12.6950 C.2   239  LYS239      0.2287
     98  O         23.5590  -17.5220   12.7150 O.2   239  LYS239     -0.2864
     99  CB        21.5300  -19.5950   14.3360 C.3   239  LYS239      0.0298
    100  CG        22.8880  -20.3100   14.3600 C.3   239  LYS239      0.0038
    101  CD        23.7260  -19.9580   15.5710 C.3   239  LYS239      0.0206
    102  CE        23.6760  -21.0580   16.6200 C.3   239  LYS239      0.1093
    103  NZ        24.6910  -20.8170   17.6840 N.3   239  LYS239     -0.1314
    104  N         20.2110  -12.4530   17.1370 N.3   265  LYS265     -0.1245
    105  CA        21.6230  -12.6390   17.5010 C.3   265  LYS265      0.1561
    106  C         22.5490  -11.5940   16.8730 C.2   265  LYS265      0.2260
    107  O         22.5800  -10.4390   17.3190 O.2   265  LYS265     -0.2867
    108  CB        22.0930  -14.0750   17.1980 C.3   265  LYS265      0.0271
    109  CG        21.4750  -15.1470   18.1100 C.3   265  LYS265      0.0035
    110  CD        22.2250  -16.4660   18.0120 C.3   265  LYS265      0.0206
    111  CE        21.6720  -17.5060   18.9900 C.3   265  LYS265      0.1093
    112  NZ        20.5270  -18.2430   18.4060 N.3   265  LYS265     -0.1314
@<TRIPOS>BOND
     1    60    59    2
     2    59    58    1
     3    57    58    1
     4    80    81    1
     5    58    61    1
     6    83    82    2
     7    82    81    1
     8    81    84    1
     9    61    62    1
    10    84    85    1
    11    62    63    1
    12    97    98    2
    13    97    96    1
    14    88    89    1
    15    85    87   ar
    16    85    86   ar
    17    63    65   ar
    18    63    64   ar
    19    66    67    1
    20    95    96    1
    21    95    90   am
    22    89    90    1
    23    89    92    1
    24    96    99    1
    25    90    91    2
    26    45    46   ar
    27    45    43   ar
    28    99   100    1
    29   100   101    1
    30    46    44   ar
    31    67    70    1
    32    67    68    1
    33    23    22    2
    34    43    42   ar
    35    94    92    1
    36    92    93    1
    37    70    71    1
    38   101   102    1
    39    69    68    2
    40    44    42   ar
    41    68    72   am
    42    22    24   am
    43    22    21    1
    44    42    41    1
    45   102   103    1
    46    20    19    2
    47    18    17    1
    48    18    21    1
    49    18    19    1
    50   106   107    2
    51   106   105    1
    52    72    73    1
    53    28    27    2
    54   104   105    1
    55   108   105    1
    56   108   109    1
    57    25    26    1
    58    41    38    1
    59    27    26    1
    60    27    37   am
    61    74    73    1
    62    74    75    2
    63   110   109    1
    64   110   111    1
    65    38    37    1
    66    38    39    1
    67    73    76    1
    68    10     9    2
    69     8     9    1
    70     8     7    1
    71    26    29    1
    72   112   111    1
    73    29    30    1
    74     9    11   am
    75    40    39    2
    76    39    47   am
    77     7     3   am
    78    76    77    1
    79     4     3    2
    80    79    77   ar
    81     3     2    1
    82    77    78   ar
    83    30    32   ar
    84    30    31   ar
    85    32    34   ar
    86    11    12    1
    87    47    48    1
    88    14    13    2
    89     2     1    1
    90     2     5    1
    91    13    12    1
    92    12    15    1
    93    31    33   ar
    94    34    35   ar
    95    48    49    1
    96     5     6    1
    97    33    35   ar
    98    35    36    1
    99    15    16    1
   100    49    50    2
   101    49    51   am
   102    51    52    1
   103    52    55    1
   104    52    53    1
   105    55    56    1
   106    53    54    2
