@<TRIPOS>MOLECULE
tmp/3dxyA00.pdb
 168 168 0 0 0
SMALL
GASTEIGER

@<TRIPOS>ATOM
      1  N         15.1630   -2.0470   16.9280 N.3    34  GLU34      -0.1231
      2  CA        16.0250   -1.2380   17.7960 C.3    34  GLU34       0.1699
      3  C         16.8700   -2.1340   18.6820 C.2    34  GLU34       0.2592
      4  O         16.3380   -2.9670   19.4180 O.2    34  GLU34      -0.2718
      5  CB        15.2430   -0.2510   18.6670 C.3    34  GLU34       0.0402
      6  CG        16.2270    0.5980   19.4680 C.3    34  GLU34       0.1161
      7  CD        15.6180    1.6240   20.3850 C.2    34  GLU34       0.3649
      8  OE1       14.3780    1.7290   20.4540 O.co2  34  GLU34      -0.2457
      9  OE2       16.4110    2.3250   21.0500 O.co2  34  GLU34      -0.2457
     10  N         18.1870   -1.9760   18.5780 N.am   35  ILE35      -0.1966
     11  CA        19.1250   -2.7620   19.3740 C.3    35  ILE35       0.1727
     12  C         19.5130   -1.9760   20.6150 C.2    35  ILE35       0.2617
     13  O         19.9420   -0.8310   20.5040 O.2    35  ILE35      -0.2715
     14  CB        20.3940   -3.0980   18.5520 C.3    35  ILE35       0.0290
     15  CG1       20.0230   -4.0440   17.4040 C.3    35  ILE35       0.0022
     16  CG2       21.4810   -3.7020   19.4420 C.3    35  ILE35       0.0023
     17  CD1       21.1100   -4.2130   16.3750 C.3    35  ILE35       0.0001
     18  N         19.3700   -2.6020   21.7860 N.am   36  GLY36      -0.1940
     19  CA        19.7170   -1.9420   23.0460 C.3    36  GLY36       0.2014
     20  C         18.7810   -0.7900   23.3620 C.2    36  GLY36       0.2639
     21  O         19.2260    0.3340   23.6410 O.2    36  GLY36      -0.2714
     22  N         17.4820   -1.0790   23.3580 N.am   37  PHE37      -0.1959
     23  CA        16.4650   -0.0400   23.5150 C.3    37  PHE37       0.1771
     24  C         16.3680    0.5660   24.9160 C.2    37  PHE37       0.2620
     25  O         15.6220    1.5290   25.1230 O.2    37  PHE37      -0.2715
     26  CB        15.1000   -0.5330   23.0310 C.3    37  PHE37       0.0574
     27  CG        14.5560   -1.7130   23.7840 C.ar   37  PHE37      -0.0200
     28  CD1       14.0880   -1.5780   25.0850 C.ar   37  PHE37      -0.0042
     29  CD2       14.4610   -2.9510   23.1700 C.ar   37  PHE37      -0.0042
     30  CE1       13.5640   -2.6760   25.7730 C.ar   37  PHE37      -0.0003
     31  CE2       13.9310   -4.0520   23.8430 C.ar   37  PHE37      -0.0003
     32  CZ        13.4820   -3.9150   25.1440 C.ar   37  PHE37      -0.0000
     33  N         17.1020   -0.0040   25.8730 N.am   38  GLY38      -0.1940
     34  CA        17.0880    0.5040   27.2460 C.3    38  GLY38       0.2014
     35  C         15.7200    0.3180   27.8770 C.2    38  GLY38       0.2638
     36  O         15.2070   -0.7990   27.9480 O.2    38  GLY38      -0.2714
     37  N         15.1250    1.4210   28.3170 N.am   39  MET39      -0.1976
     38  CA        13.7870    1.3700   28.8990 C.3    39  MET39       0.1605
     39  C         12.6980    1.4720   27.8340 C.2    39  MET39       0.2287
     40  O         11.5050    1.4150   28.1450 O.2    39  MET39      -0.2864
     41  CB        13.6280    2.4370   29.9850 C.3    39  MET39       0.0413
     42  CG        14.3860    2.0850   31.2500 C.3    39  MET39       0.0598
     43  SD        14.6300    3.4490   32.3980 S.3    39  MET39      -0.1393
     44  CE        12.9400    3.9680   32.6900 C.3    39  MET39       0.0692
     45  N         15.5000   -5.2930   20.9510 N.3    58  ILE58      -0.1231
     46  CA        16.3260   -6.2500   21.6710 C.3    58  ILE58       0.1692
     47  C         17.0450   -5.5270   22.7960 C.2    58  ILE58       0.2592
     48  O         17.6260   -4.4700   22.5730 O.2    58  ILE58      -0.2718
     49  CB        17.3790   -6.9040   20.7620 C.3    58  ILE58       0.0266
     50  CG1       16.7210   -7.5640   19.5480 C.3    58  ILE58       0.0019
     51  CG2       18.1830   -7.9240   21.5600 C.3    58  ILE58       0.0020
     52  CD1       17.7200   -7.9190   18.4680 C.3    58  ILE58       0.0001
     53  N         17.0140   -6.0950   23.9990 N.am   59  GLU59      -0.1966
     54  CA        17.6830   -5.4570   25.1390 C.3    59  GLU59       0.1733
     55  C         18.0200   -6.5040   26.1810 C.2    59  GLU59       0.2616
     56  O         17.1120   -7.1680   26.6940 O.2    59  GLU59      -0.2715
     57  CB        16.7580   -4.3790   25.7320 C.3    59  GLU59       0.0429
     58  CG        17.2340   -3.6330   26.9460 C.3    59  GLU59       0.1163
     59  CD        18.6480   -3.1260   26.8030 C.2    59  GLU59       0.3649
     60  OE1       18.8640   -2.0670   26.1710 O.co2  59  GLU59      -0.2457
     61  OE2       19.5400   -3.7880   27.3570 O.co2  59  GLU59      -0.2457
     62  N         19.3100   -6.6320   26.5040 N.am   60  VAL60      -0.1963
     63  CA        19.7700   -7.6360   27.4710 C.3    60  VAL60       0.1727
     64  C         19.5750   -7.2240   28.9330 C.2    60  VAL60       0.2616
     65  O         19.7440   -8.0490   29.8370 O.2    60  VAL60      -0.2715
     66  CB        21.2630   -8.0330   27.2680 C.3    60  VAL60       0.0290
     67  CG1       21.4270   -8.8750   26.0230 C.3    60  VAL60       0.0023
     68  CG2       22.1690   -6.8060   27.2270 C.3    60  VAL60       0.0023
     69  N         19.2490   -5.9560   29.1670 N.am   61  HIS61      -0.1973
     70  CA        19.0430   -5.4670   30.5280 C.3    61  HIS61       0.1656
     71  C         17.5680   -5.6780   30.8370 C.2    61  HIS61       0.2291
     72  O         16.7130   -4.9370   30.3620 O.2    61  HIS61      -0.2864
     73  CB        19.4630   -3.9940   30.6230 C.3    61  HIS61       0.0771
     74  CG        19.2990   -3.3840   31.9820 C.ar   61  HIS61       0.0820
     75  ND1       19.9690   -3.8370   33.1020 N.ar   61  HIS61      -0.2267
     76  CD2       18.5960   -2.2970   32.3800 C.ar   61  HIS61       0.1154
     77  CE1       19.6530   -3.0760   34.1380 C.ar   61  HIS61       0.1986
     78  NE2       18.8150   -2.1410   33.7270 N.ar   61  HIS61      -0.2212
     79  N         21.3050  -11.4810   23.6030 N.3    86  ASP86      -0.1225
     80  CA        22.3900  -10.8330   22.8710 C.3    86  ASP86       0.1805
     81  C         21.9350  -10.5110   21.4500 C.2    86  ASP86       0.2598
     82  O         21.5880  -11.4230   20.7000 O.2    86  ASP86      -0.2718
     83  CB        23.5970  -11.7770   22.8310 C.3    86  ASP86       0.1424
     84  CG        24.7660  -11.2040   22.0620 C.2    86  ASP86       0.3668
     85  OD1       25.5480  -10.4440   22.6660 O.co2  86  ASP86      -0.2456
     86  OD2       24.9080  -11.5300   20.8560 O.co2  86  ASP86      -0.2456
     87  N         21.9610   -9.2340   21.0780 N.am   87  ALA87      -0.1966
     88  CA        21.4990   -8.8090   19.7550 C.3    87  ALA87       0.1728
     89  C         22.2770   -9.4270   18.6020 C.2    87  ALA87       0.2616
     90  O         21.7090   -9.6710   17.5430 O.2    87  ALA87      -0.2715
     91  CB        21.5130   -7.2880   19.6350 C.3    87  ALA87       0.0334
     92  N         23.5720   -9.6570   18.7870 N.am   88  VAL88      -0.1977
     93  CA        24.3710  -10.2420   17.7170 C.3    88  VAL88       0.1596
     94  C         23.9150  -11.6760   17.4220 C.2    88  VAL88       0.2287
     95  O         23.7630  -12.0550   16.2590 O.2    88  VAL88      -0.2864
     96  CB        25.8810  -10.1570   18.0270 C.3    88  VAL88       0.0276
     97  CG1       26.7010  -10.8920   16.9700 C.3    88  VAL88       0.0022
     98  CG2       26.3000   -8.6850   18.1240 C.3    88  VAL88       0.0022
     99  N         20.8040    3.3830   19.5070 N.3   106  PHE106     -0.1227
    100  CA        20.8860    4.6790   20.1560 C.3   106  PHE106      0.1736
    101  C         21.6320    4.5850   21.4640 C.2   106  PHE106      0.2595
    102  O         21.2660    3.8060   22.3470 O.2   106  PHE106     -0.2718
    103  CB        19.4910    5.2550   20.3890 C.3   106  PHE106      0.0547
    104  CG        18.7020    5.4870   19.1210 C.ar  106  PHE106     -0.0202
    105  CD1       19.3470    5.7170   17.9050 C.ar  106  PHE106     -0.0042
    106  CD2       17.3120    5.4980   19.1570 C.ar  106  PHE106     -0.0042
    107  CE1       18.6140    5.9400   16.7450 C.ar  106  PHE106     -0.0003
    108  CE2       16.5740    5.7280   18.0090 C.ar  106  PHE106     -0.0003
    109  CZ        17.2180    5.9490   16.8070 C.ar  106  PHE106     -0.0000
    110  N         22.6860    5.3840   21.5790 N.am  107  PHE107     -0.1963
    111  CA        23.5290    5.4080   22.7740 C.3   107  PHE107      0.1756
    112  C         24.0480    4.0410   23.1780 C.2   107  PHE107      0.2461
    113  O         23.9650    3.6510   24.3440 O.2   107  PHE107     -0.2730
    114  CB        22.8080    6.1470   23.9000 C.3   107  PHE107      0.0574
    115  CG        22.3060    7.4620   23.4500 C.ar  107  PHE107     -0.0200
    116  CD1       23.1850    8.5220   23.3130 C.ar  107  PHE107     -0.0042
    117  CD2       20.9890    7.6170   23.0390 C.ar  107  PHE107     -0.0042
    118  CE1       22.7530    9.7360   22.8330 C.ar  107  PHE107     -0.0003
    119  CE2       20.5390    8.8350   22.5640 C.ar  107  PHE107     -0.0003
    120  CZ        21.4310    9.9000   22.4560 C.ar  107  PHE107     -0.0000
    121  N         24.6350    3.3130   22.2130 N.am  108  PRO108     -0.2716
    122  CA        25.2610    2.0470   22.6050 C.3   108  PRO108      0.1536
    123  C         26.3950    2.3320   23.5890 C.2   108  PRO108      0.2599
    124  O         26.9770    3.4240   23.5590 O.2   108  PRO108     -0.2715
    125  CB        25.8300    1.5110   21.2890 C.3   108  PRO108      0.0310
    126  CG        25.9760    2.6960   20.4080 C.3   108  PRO108      0.0237
    127  CD        24.8420    3.6150   20.7830 C.3   108  PRO108      0.0939
    128  N         26.6950    1.3630   24.4510 N.am  109  ASP109     -0.1959
    129  CA        27.7040    1.5360   25.4960 C.3   109  ASP109      0.1825
    130  C         28.9520    2.1920   24.9070 C.2   109  ASP109      0.2464
    131  O         29.5650    1.6470   23.9970 O.2   109  ASP109     -0.2730
    132  CB        28.0520    0.1800   26.1260 C.3   109  ASP109      0.1450
    133  CG        26.8300   -0.5540   26.6620 C.2   109  ASP109      0.3671
    134  OD1       25.8640    0.1160   27.0830 O.co2 109  ASP109     -0.2456
    135  OD2       26.8490   -1.8050   26.6890 O.co2 109  ASP109     -0.2456
    136  N         29.2970    3.3960   25.3860 N.am  110  PRO110     -0.2727
    137  CA        30.3760    4.1510   24.7490 C.3   110  PRO110      0.1402
    138  C         31.7840    3.7050   25.0940 C.2   110  PRO110      0.2269
    139  O         32.7150    4.0640   24.3710 O.2   110  PRO110     -0.2865
    140  CB        30.1450    5.5780   25.2420 C.3   110  PRO110      0.0296
    141  CG        29.5260    5.3990   26.5660 C.3   110  PRO110      0.0237
    142  CD        28.6490    4.1710   26.4620 C.3   110  PRO110      0.0939
    143  N         30.1490   -1.9210   20.3130 N.3   121  ILE121     -0.1245
    144  CA        29.4610   -2.8400   19.4150 C.3   121  ILE121      0.1561
    145  C         29.6460   -2.4510   17.9510 C.2   121  ILE121      0.2260
    146  O         29.6640   -3.3190   17.0810 O.2   121  ILE121     -0.2867
    147  CB        27.9660   -2.9820   19.7850 C.3   121  ILE121      0.0252
    148  CG1       27.3620   -4.2410   19.1600 C.3   121  ILE121      0.0019
    149  CG2       27.1580   -1.7420   19.3930 C.3   121  ILE121      0.0019
    150  CD1       25.9810   -4.5950   19.7130 C.3   121  ILE121      0.0001
    151  N         17.1080   13.8700   23.8160 N.3   182  THR182     -0.1218
    152  CA        17.4960   13.3390   25.1200 C.3   182  THR182      0.1862
    153  C         18.0480   14.4410   26.0240 C.2   182  THR182      0.2287
    154  O         18.2900   15.5660   25.5820 O.2   182  THR182     -0.2866
    155  CB        18.6110   12.2850   24.9900 C.3   182  THR182      0.1770
    156  OG1       19.8470   12.9350   24.6470 O.3   182  THR182     -0.2211
    157  CG2       18.2620   11.2400   23.9320 C.3   182  THR182      0.0375
    158  N         20.9710   14.5160   27.1470 N.3   184  PHE184     -0.1241
    159  CA        22.3850   14.6720   26.8030 C.3   184  PHE184      0.1605
    160  C         22.5540   15.7660   25.7570 C.2   184  PHE184      0.2264
    161  O         23.6800   16.1090   25.3670 O.2   184  PHE184     -0.2867
    162  CB        22.9450   13.3450   26.2750 C.3   184  PHE184      0.0534
    163  CG        22.6280   12.1660   27.1540 C.ar  184  PHE184     -0.0203
    164  CD1       21.7760   11.1580   26.7050 C.ar  184  PHE184     -0.0042
    165  CD2       23.1650   12.0710   28.4390 C.ar  184  PHE184     -0.0042
    166  CE1       21.4690   10.0670   27.5160 C.ar  184  PHE184     -0.0003
    167  CE2       22.8640   10.9830   29.2610 C.ar  184  PHE184     -0.0003
    168  CZ        22.0130    9.9800   28.7980 C.ar  184  PHE184     -0.0000
@<TRIPOS>BOND
     1    95    94    2
     2    17    15    1
     3   107   109   ar
     4   107   105   ar
     5   109   108   ar
     6     1     2    1
     7    97    96    1
     8   146   145    2
     9    15    14    1
    10    94    93    1
    11    90    89    2
    12    93    96    1
    13    93    92    1
    14     2     5    1
    15     2     3    1
    16   105   104   ar
    17   145   144    1
    18   108   106   ar
    19    96    98    1
    20    52    50    1
    21    14    11    1
    22    14    16    1
    23    10     3   am
    24    10    11    1
    25    89    92   am
    26    89    88    1
    27     5     6    1
    28     3     4    2
    29   104   106   ar
    30   104   103    1
    31   148   150    1
    32   148   147    1
    33    11    12    1
    34   149   147    1
    35   144   147    1
    36   144   143    1
    37     6     7    1
    38    99   100    1
    39    50    49    1
    40    91    88    1
    41    88    87    1
    42   100   103    1
    43   100   101    1
    44     7     8   ar
    45     7     9   ar
    46   126   127    1
    47   126   125    1
    48    13    12    2
    49    12    18   am
    50    82    81    2
    51    49    51    1
    52    49    46    1
    53   127   121    1
    54    86    84   ar
    55    45    46    1
    56    87    81   am
    57   125   122    1
    58    81    80    1
    59   101   110   am
    60   101   102    2
    61   110   111    1
    62    46    47    1
    63    18    19    1
    64    84    85   ar
    65    84    83    1
    66   121   122    1
    67   121   112   am
    68   120   119   ar
    69   120   118   ar
    70   119   117   ar
    71    48    47    2
    72   122   123    1
    73   111   112    1
    74   111   114    1
    75    47    53   am
    76    83    80    1
    77   118   116   ar
    78    80    79    1
    79    26    23    1
    80    26    27    1
    81   117   115   ar
    82    19    20    1
    83    29    27   ar
    84    29    31   ar
    85   112   113    2
    86   116   115   ar
    87    22    20   am
    88    22    23    1
    89    20    21    2
    90   115   114    1
    91    23    24    1
    92   124   123    2
    93   123   128   am
    94    27    28   ar
    95   151   152    1
    96    31    32   ar
    97   157   155    1
    98   131   130    2
    99    53    54    1
   100   139   138    2
   101   128   129    1
   102   156   155    1
   103   137   138    1
   104   137   140    1
   105   137   136    1
   106   130   136   am
   107   130   129    1
   108    24    25    2
   109    24    33   am
   110   155   152    1
   111    28    30   ar
   112   152   153    1
   113    54    57    1
   114    54    55    1
   115    32    30   ar
   116   140   141    1
   117   161   160    2
   118   136   142    1
   119   129   132    1
   120   154   153    2
   121    57    58    1
   122   160   159    1
   123    33    34    1
   124    67    66    1
   125   132   133    1
   126    60    59   ar
   127    55    62   am
   128    55    56    2
   129   162   159    1
   130   162   163    1
   131   142   141    1
   132    62    63    1
   133   133   135   ar
   134   133   134   ar
   135   164   163   ar
   136   164   166   ar
   137   159   158    1
   138    59    58    1
   139    59    61   ar
   140   163   165   ar
   141    68    66    1
   142    34    35    1
   143    66    63    1
   144    63    64    1
   145   166   168   ar
   146    39    40    2
   147    39    38    1
   148    35    36    2
   149    35    37   am
   150    37    38    1
   151   165   167   ar
   152   168   167   ar
   153    38    41    1
   154    64    69   am
   155    64    65    2
   156    69    70    1
   157    41    42    1
   158    72    71    2
   159    70    73    1
   160    70    71    1
   161    73    74    1
   162    42    43    1
   163    74    76   ar
   164    74    75   ar
   165    76    78   ar
   166    43    44    1
   167    75    77   ar
   168    78    77   ar
