@<TRIPOS>MOLECULE
tmp/3dy4Y00.pdb
 90 83 0 0 0
SMALL
GASTEIGER

@<TRIPOS>ATOM
      1  N         56.8130 -151.6220    7.7210 N.3     1  THR1       -0.1218
      2  CA        57.1160 -152.7730    6.8190 C.3     1  THR1        0.1862
      3  C         56.5380 -152.6020    5.4290 C.2     1  THR1        0.2287
      4  O         55.4240 -152.1100    5.2720 O.2     1  THR1       -0.2866
      5  CB        56.5310 -154.0780    7.3600 C.3     1  THR1        0.1770
      6  OG1       57.2030 -154.4450    8.5720 O.3     1  THR1       -0.2211
      7  CG2       56.6870 -155.1890    6.3330 C.3     1  THR1        0.0375
      8  N         63.3240 -153.4650    7.9610 N.3    19  ARG19      -0.1231
      9  CA        63.2640 -152.7760    9.2310 C.3    19  ARG19       0.1694
     10  C         62.2630 -153.4140   10.1780 C.2    19  ARG19       0.2592
     11  O         61.1520 -153.7920    9.7870 O.2    19  ARG19      -0.2718
     12  CB        62.9210 -151.3000    9.0070 C.3    19  ARG19       0.0321
     13  CG        62.6970 -150.5000   10.2820 C.3    19  ARG19       0.0489
     14  CD        62.5820 -149.0280    9.9790 C.3    19  ARG19       0.2205
     15  NE        63.8170 -148.5500    9.3760 N.pl3  19  ARG19      -0.0865
     16  CZ        64.0550 -147.2870    9.0440 C.cat  19  ARG19       0.5346
     17  NH1       63.1330 -146.3550    9.2580 N.pl3  19  ARG19       0.1354
     18  NH2       65.2200 -146.9580    8.5000 N.pl3  19  ARG19       0.1354
     19  N         62.6880 -153.5320   11.4300 N.am   20  ALA20      -0.1966
     20  CA        61.8720 -154.0930   12.4870 C.3    20  ALA20       0.1728
     21  C         61.7590 -153.0160   13.5450 C.2    20  ALA20       0.2616
     22  O         62.7640 -152.5560   14.0710 O.2    20  ALA20      -0.2715
     23  CB        62.5430 -155.3180   13.0690 C.3    20  ALA20       0.0334
     24  N         60.5340 -152.6080   13.8530 N.am   21  THR21      -0.1951
     25  CA        60.3170 -151.5860   14.8600 C.3    21  THR21       0.1897
     26  C         59.4030 -152.0370   15.9970 C.2    21  THR21       0.2313
     27  O         58.4510 -152.7960   15.7960 O.2    21  THR21      -0.2863
     28  CB        59.7010 -150.3240   14.2360 C.3    21  THR21       0.1794
     29  OG1       58.4410 -150.6530   13.6300 O.3    21  THR21      -0.2208
     30  CG2       60.6360 -149.7490   13.1850 C.3    21  THR21       0.0378
     31  N         66.5180 -157.7700    9.0130 N.3    31  VAL31      -0.1245
     32  CA        65.5430 -158.8550    9.0610 C.3    31  VAL31       0.1561
     33  C         65.2740 -159.4130    7.6680 C.2    31  VAL31       0.2260
     34  O         65.3230 -158.6780    6.6860 O.2    31  VAL31      -0.2867
     35  CB        64.1980 -158.3660    9.6360 C.3    31  VAL31       0.0252
     36  CG1       63.2970 -159.5470    9.9090 C.3    31  VAL31       0.0019
     37  CG2       64.4310 -157.5650   10.8920 C.3    31  VAL31       0.0019
     38  N         62.5600 -160.4820    5.4680 N.3    33  LYS33      -0.1245
     39  CA        61.1080 -160.4910    5.3350 C.3    33  LYS33       0.1561
     40  C         60.6250 -161.4090    4.2160 C.2    33  LYS33       0.2260
     41  O         59.4320 -161.4860    3.9250 O.2    33  LYS33      -0.2867
     42  CB        60.5800 -159.0670    5.1450 C.3    33  LYS33       0.0271
     43  CG        60.8270 -158.1890    6.3600 C.3    33  LYS33       0.0035
     44  CD        60.1690 -156.8280    6.2390 C.3    33  LYS33       0.0206
     45  CE        60.3960 -156.0170    7.5040 C.3    33  LYS33       0.1093
     46  NZ        59.8000 -154.6580    7.4260 N.3    33  LYS33      -0.1314
     47  N         57.0410 -161.4230    4.7220 N.3    45  MET45      -0.1230
     48  CA        56.7620 -161.1520    6.1230 C.3    45  MET45       0.1702
     49  C         56.1810 -159.7690    6.3820 C.2    45  MET45       0.2592
     50  O         56.8220 -158.7540    6.1270 O.2    45  MET45      -0.2718
     51  CB        58.0450 -161.3210    6.9240 C.3    45  MET45       0.0401
     52  CG        57.9280 -161.0090    8.3970 C.3    45  MET45       0.0596
     53  SD        59.5060 -161.3460    9.2070 S.3    45  MET45      -0.1393
     54  CE        60.1480 -159.7590    9.2470 C.3    45  MET45       0.0692
     55  N         54.9540 -159.7440    6.8860 N.am   46  ALA46      -0.1966
     56  CA        54.2780 -158.4980    7.2280 C.3    46  ALA46       0.1728
     57  C         53.3850 -158.8620    8.4000 C.2    46  ALA46       0.2616
     58  O         52.7130 -159.8850    8.3680 O.2    46  ALA46      -0.2715
     59  CB        53.4640 -158.0040    6.0680 C.3    46  ALA46       0.0334
     60  N         53.3930 -158.0360    9.4400 N.am   47  GLY47      -0.1955
     61  CA        52.6030 -158.3270   10.6260 C.3    47  GLY47       0.1869
     62  C         53.5630 -158.7620   11.7210 C.2    47  GLY47       0.2309
     63  O         54.5220 -158.0480   12.0110 O.2    47  GLY47      -0.2863
     64  N         56.5860 -160.9320   13.0320 N.3    49  ALA49      -0.1245
     65  CA        57.7040 -161.7190   12.5080 C.3    49  ALA49       0.1562
     66  C         57.6170 -163.1900   12.8910 C.2    49  ALA49       0.2260
     67  O         57.6130 -164.0690   12.0320 O.2    49  ALA49      -0.2867
     68  CB        59.0090 -161.1470   12.9920 C.3    49  ALA49       0.0290
     69  N         51.8040 -154.0870    4.1510 N.3   130  GLY130     -0.1210
     70  CA        52.6110 -153.4030    5.1440 C.3   130  GLY130      0.1956
     71  C         52.2430 -151.9460    5.3490 C.2   130  GLY130      0.2612
     72  O         51.4220 -151.3940    4.6180 O.2   130  GLY130     -0.2717
     73  N         52.8560 -151.3200    6.3480 N.am  131  SER131     -0.1952
     74  CA        52.5950 -149.9200    6.6380 C.3   131  SER131      0.1924
     75  C         53.0350 -149.0420    5.4740 C.2   131  SER131      0.2314
     76  O         52.6130 -147.8930    5.3530 O.2   131  SER131     -0.2863
     77  CB        53.3360 -149.4930    7.9060 C.3   131  SER131      0.2116
     78  OG        54.7280 -149.7340    7.7970 O.3   131  SER131     -0.2180
     79  N         58.2660 -146.6410    9.1680 N.3   170  TYR170     -0.1241
     80  CA        58.3890 -148.0310    9.5770 C.3   170  TYR170      0.1605
     81  C         59.0070 -148.9740    8.5520 C.2   170  TYR170      0.2264
     82  O         59.1480 -150.1680    8.8080 O.2   170  TYR170     -0.2867
     83  CB        57.0190 -148.5310   10.0360 C.3   170  TYR170      0.0534
     84  CG        56.5580 -147.7500   11.2340 C.ar  170  TYR170     -0.0201
     85  CD1       57.3940 -147.6100   12.3420 C.ar  170  TYR170     -0.0009
     86  CD2       55.3360 -147.0870   11.2440 C.ar  170  TYR170     -0.0009
     87  CE1       57.0320 -146.8260   13.4250 C.ar  170  TYR170      0.0417
     88  CE2       54.9610 -146.2960   12.3290 C.ar  170  TYR170      0.0417
     89  CZ        55.8170 -146.1680   13.4150 C.ar  170  TYR170      0.1957
     90  OH        55.4780 -145.3710   14.4910 O.3   170  TYR170     -0.2866
@<TRIPOS>BOND
     1    41    40    2
     2    69    70    1
     3    40    39    1
     4    72    71    2
     5    47    48    1
     6    70    71    1
     7    42    39    1
     8    42    43    1
     9     4     3    2
    10    39    38    1
    11    71    73   am
    12    76    75    2
    13     3     2    1
    14    75    74    1
    15    59    56    1
    16    48    49    1
    17    48    51    1
    18    50    49    2
    19    44    43    1
    20    44    45    1
    21     7     5    1
    22    73    74    1
    23    49    55   am
    24    74    77    1
    25    34    33    2
    26     2     5    1
    27     2     1    1
    28    55    56    1
    29    51    52    1
    30    56    57    1
    31     5     6    1
    32    46    45    1
    33    33    32    1
    34    78    77    1
    35     8     9    1
    36    58    57    2
    37    52    53    1
    38    57    60   am
    39    18    16    1
    40    81    82    2
    41    81    80    1
    42    12     9    1
    43    12    13    1
    44    31    32    1
    45    16    17    1
    46    16    15    2
    47    32    35    1
    48    79    80    1
    49    53    54    1
    50     9    10    1
    51    15    14    1
    52    60    61    1
    53    80    83    1
    54    35    36    1
    55    35    37    1
    56    11    10    2
    57    14    13    1
    58    83    84    1
    59    10    19   am
    60    61    62    1
    61    84    86   ar
    62    84    85   ar
    63    86    88   ar
    64    19    20    1
    65    62    63    2
    66    67    66    2
    67    88    89   ar
    68    85    87   ar
    69    20    23    1
    70    20    21    1
    71    65    66    1
    72    65    68    1
    73    65    64    1
    74    30    28    1
    75    89    87   ar
    76    89    90    1
    77    21    24   am
    78    21    22    2
    79    29    28    1
    80    24    25    1
    81    28    25    1
    82    25    26    1
    83    27    26    2
