@<TRIPOS>MOLECULE
tmp/3dy6B00.pdb
 244 234 0 0 0
SMALL
GASTEIGER

@<TRIPOS>ATOM
      1  N          3.5200    5.4480   -3.8830 N.3    40  LEU40      -0.1245
      2  CA         3.2200    4.1130   -3.3710 C.3    40  LEU40       0.1561
      3  C          3.7730    3.0470   -4.3160 C.2    40  LEU40       0.2260
      4  O          4.4250    2.1060   -3.8690 O.2    40  LEU40      -0.2867
      5  CB         1.7160    3.9130   -3.1700 C.3    40  LEU40       0.0270
      6  CG         1.2560    2.5200   -2.7210 C.3    40  LEU40       0.0019
      7  CD1        1.7260    2.2120   -1.3040 C.3    40  LEU40       0.0001
      8  CD2       -0.2520    2.3870   -2.8200 C.3    40  LEU40       0.0001
      9  N          9.9740   -1.4590   -0.0360 N.3    49  TRP49      -0.1241
     10  CA         9.7810   -2.9040    0.1620 C.3    49  TRP49       0.1605
     11  C         10.4700   -3.7390   -0.9170 C.2    49  TRP49       0.2264
     12  O         10.5820   -3.3160   -2.0650 O.2    49  TRP49      -0.2867
     13  CB         8.2900   -3.2520    0.2120 C.3    49  TRP49       0.0550
     14  CG         7.5930   -2.7740    1.4490 C.ar   49  TRP49       0.0003
     15  CD1        7.6920   -3.3100    2.6960 C.ar   49  TRP49       0.0946
     16  CD2        6.6780   -1.6700    1.5570 C.ar   49  TRP49       0.0152
     17  NE1        6.9040   -2.6100    3.5780 N.ar   49  TRP49      -0.2442
     18  CE2        6.2690   -1.5980    2.9070 C.ar   49  TRP49       0.0810
     19  CE3        6.1670   -0.7330    0.6450 C.ar   49  TRP49       0.0012
     20  CZ2        5.3700   -0.6220    3.3740 C.ar   49  TRP49       0.0191
     21  CZ3        5.2650    0.2390    1.1120 C.ar   49  TRP49       0.0001
     22  CH2        4.8780    0.2810    2.4620 C.ar   49  TRP49       0.0015
     23  N         -5.1950   -2.4090   -0.8600 N.3    60  HIS60      -0.1226
     24  CA        -3.7690   -2.7010   -0.7570 C.3    60  HIS60       0.1752
     25  C         -3.2070   -2.1440    0.5470 C.2    60  HIS60       0.2596
     26  O         -2.5690   -2.8640    1.3090 O.2    60  HIS60      -0.2718
     27  CB        -3.0200   -2.1210   -1.9560 C.3    60  HIS60       0.0759
     28  CG        -1.5430   -2.3580   -1.9170 C.ar   60  HIS60       0.0818
     29  ND1       -0.9640   -3.5150   -2.3910 N.ar   60  HIS60      -0.2268
     30  CD2       -0.5280   -1.5900   -1.4550 C.ar   60  HIS60       0.1154
     31  CE1        0.3460   -3.4480   -2.2260 C.ar   60  HIS60       0.1986
     32  NE2        0.6360   -2.2910   -1.6580 N.ar   60  HIS60      -0.2212
     33  N         -3.4620   -0.8630    0.7960 N.am   61  VAL61      -0.1966
     34  CA        -3.0780   -0.2090    2.0510 C.3    61  VAL61       0.1727
     35  C         -3.6540   -0.9730    3.2510 C.2    61  VAL61       0.2616
     36  O         -2.9990   -1.1230    4.2860 O.2    61  VAL61      -0.2715
     37  CB        -3.5580    1.2680    2.0790 C.3    61  VAL61       0.0290
     38  CG1       -3.3570    1.8850    3.4540 C.3    61  VAL61       0.0023
     39  CG2       -2.8440    2.0810    1.0120 C.3    61  VAL61       0.0023
     40  N         -4.8840   -1.4530    3.0850 N.am   62  PHE62      -0.1974
     41  CA        -5.6000   -2.1970    4.1110 C.3    62  PHE62       0.1639
     42  C         -4.9000   -3.5170    4.4050 C.2    62  PHE62       0.2290
     43  O         -4.8300   -3.9380    5.5580 O.2    62  PHE62      -0.2864
     44  CB        -7.0460   -2.4240    3.6670 C.3    62  PHE62       0.0560
     45  CG        -7.8680   -3.2140    4.6320 C.ar   62  PHE62      -0.0200
     46  CD1       -8.2390   -2.6780    5.8610 C.ar   62  PHE62      -0.0042
     47  CD2       -8.3000   -4.4940    4.3020 C.ar   62  PHE62      -0.0042
     48  CE1       -9.0220   -3.4160    6.7550 C.ar   62  PHE62      -0.0003
     49  CE2       -9.0840   -5.2370    5.1860 C.ar   62  PHE62      -0.0003
     50  CZ        -9.4450   -4.6980    6.4100 C.ar   62  PHE62      -0.0000
     51  N         -1.6270   -3.9650    3.9130 N.3    64  ARG64      -0.1231
     52  CA        -0.3450   -3.6130    4.5320 C.3    64  ARG64       0.1694
     53  C         -0.4830   -3.2690    6.0180 C.2    64  ARG64       0.2592
     54  O          0.4270   -3.5410    6.8080 O.2    64  ARG64      -0.2718
     55  CB         0.3650   -2.4970    3.7580 C.3    64  ARG64       0.0321
     56  CG         1.0080   -2.9850    2.4630 C.3    64  ARG64       0.0489
     57  CD         2.3960   -2.4020    2.2880 C.3    64  ARG64       0.2205
     58  NE         3.1240   -3.0010    1.1700 N.pl3  64  ARG64      -0.0865
     59  CZ         3.9010   -4.0780    1.2540 C.cat  64  ARG64       0.5346
     60  NH1        4.0580   -4.7080    2.4040 N.pl3  64  ARG64       0.1354
     61  NH2        4.5210   -4.5350    0.1790 N.pl3  64  ARG64       0.1354
     62  N         -1.6270   -2.6900    6.3900 N.am   65  CYS65      -0.1956
     63  CA        -1.9710   -2.4560    7.7900 C.3    65  CYS65       0.1843
     64  C         -2.1290   -3.7710    8.5430 C.2    65  CYS65       0.2625
     65  O         -1.6840   -3.8900    9.6770 O.2    65  CYS65      -0.2714
     66  CB        -3.2680   -1.6640    7.9000 C.3    65  CYS65       0.0997
     67  SG        -3.1530    0.0750    7.4680 S.3    65  CYS65      -0.0797
     68  N         -2.7720   -4.7480    7.9040 N.am   66  GLN66      -0.1977
     69  CA        -2.9770   -6.0860    8.4810 C.3    66  GLN66       0.1601
     70  C         -1.6480   -6.7870    8.7340 C.2    66  GLN66       0.2287
     71  O         -1.4340   -7.3640    9.8030 O.2    66  GLN66      -0.2864
     72  CB        -3.8560   -6.9570    7.5680 C.3    66  GLN66       0.0394
     73  CG        -5.3430   -6.6250    7.5780 C.3    66  GLN66       0.0908
     74  CD        -6.1920   -7.7270    6.9560 C.2    66  GLN66       0.2608
     75  OE1       -6.2870   -8.8260    7.4930 O.2    66  GLN66      -0.2717
     76  NE2       -6.8140   -7.4350    5.8230 N.am   66  GLN66      -0.0878
     77  N          1.3710   -5.4020    9.0540 N.3    68  THR68      -0.1203
     78  CA         2.0440   -4.7010   10.1420 C.3    68  THR68       0.1994
     79  C          1.4380   -5.1000   11.4960 C.2    68  THR68       0.2618
     80  O          2.1730   -5.3920   12.4370 O.2    68  THR68      -0.2717
     81  CB         1.9930   -3.1730    9.9290 C.3    68  THR68       0.1784
     82  OG1        2.6810   -2.8430    8.7180 O.3    68  THR68      -0.2211
     83  CG2        2.6500   -2.4290   11.0740 C.3    68  THR68       0.0376
     84  N          0.1060   -5.1420   11.5720 N.am   69  THR69      -0.1952
     85  CA        -0.6140   -5.5570   12.7820 C.3    69  THR69       0.1897
     86  C         -0.1860   -6.9540   13.2500 C.2    69  THR69       0.2313
     87  O          0.0720   -7.1580   14.4370 O.2    69  THR69      -0.2863
     88  CB        -2.1510   -5.5300   12.5770 C.3    69  THR69       0.1794
     89  OG1       -2.5490   -4.2830   11.9970 O.3    69  THR69      -0.2208
     90  CG2       -2.8860   -5.7200   13.8930 C.3    69  THR69       0.0378
     91  N         -4.5160   -5.0970   20.5700 N.3   103  HIS103     -0.1241
     92  CA        -4.9100   -3.9230   19.8000 C.3   103  HIS103      0.1621
     93  C         -4.7410   -2.6400   20.5970 C.2   103  HIS103      0.2264
     94  O         -4.2130   -1.6560   20.0810 O.2   103  HIS103     -0.2867
     95  CB        -6.3190   -4.0610   19.2360 C.3   103  HIS103      0.0745
     96  CG        -6.3820   -4.9030   18.0030 C.ar  103  HIS103      0.0817
     97  ND1       -6.5600   -6.2680   18.0450 N.ar  103  HIS103     -0.2268
     98  CD2       -6.2720   -4.5780   16.6940 C.ar  103  HIS103      0.1154
     99  CE1       -6.5700   -6.7470   16.8140 C.ar  103  HIS103      0.1986
    100  NE2       -6.3990   -5.7420   15.9750 N.ar  103  HIS103     -0.2212
    101  N         -1.1690   -2.0270   20.5030 N.3   106  ILE106     -0.1231
    102  CA        -0.7470   -1.5550   19.1860 C.3   106  ILE106      0.1692
    103  C         -1.0550   -0.0810   19.0080 C.2   106  ILE106      0.2592
    104  O         -0.2160    0.6740   18.5280 O.2   106  ILE106     -0.2718
    105  CB        -1.3580   -2.3700   18.0270 C.3   106  ILE106      0.0266
    106  CG1       -0.5770   -3.6670   17.8490 C.3   106  ILE106      0.0019
    107  CG2       -1.3220   -1.5610   16.7340 C.3   106  ILE106      0.0020
    108  CD1       -1.2370   -4.6470   16.9340 C.3   106  ILE106      0.0001
    109  N         -2.2500    0.3280   19.4130 N.am  107  PHE107     -0.1976
    110  CA        -2.6270    1.7120   19.2680 C.3   107  PHE107      0.1639
    111  C         -1.8010    2.6030   20.1890 C.2   107  PHE107      0.2290
    112  O         -1.5440    3.7540   19.8610 O.2   107  PHE107     -0.2864
    113  CB        -4.1190    1.8990   19.5100 C.3   107  PHE107      0.0560
    114  CG        -4.9910    1.0910   18.5890 C.ar  107  PHE107     -0.0200
    115  CD1       -4.5520    0.7360   17.3180 C.ar  107  PHE107     -0.0042
    116  CD2       -6.2670    0.7060   18.9840 C.ar  107  PHE107     -0.0042
    117  CE1       -5.3590   -0.0070   16.4730 C.ar  107  PHE107     -0.0003
    118  CE2       -7.0770   -0.0360   18.1380 C.ar  107  PHE107     -0.0003
    119  CZ        -6.6220   -0.3950   16.8840 C.ar  107  PHE107     -0.0000
    120  N          1.6560    2.9890   18.4820 N.3   110  LEU110     -0.1245
    121  CA         1.5520    3.7120   17.2260 C.3   110  LEU110      0.1561
    122  C          2.0270    5.1570   17.3840 C.2   110  LEU110      0.2260
    123  O          2.6590    5.7230   16.4840 O.2   110  LEU110     -0.2867
    124  CB         0.1060    3.6870   16.7250 C.3   110  LEU110      0.0270
    125  CG        -0.1460    4.3160   15.3570 C.3   110  LEU110      0.0019
    126  CD1        0.2930    3.3850   14.2240 C.3   110  LEU110      0.0001
    127  CD2       -1.5970    4.6820   15.2280 C.3   110  LEU110      0.0001
    128  N          5.5890    6.2120   16.3690 N.3   113  ILE113     -0.1245
    129  CA         6.0020    6.2930   14.9720 C.3   113  ILE113      0.1561
    130  C          5.2090    7.3570   14.2140 C.2   113  ILE113      0.2260
    131  O          5.2620    7.4310   12.9850 O.2   113  ILE113     -0.2867
    132  CB         5.8580    4.9260   14.2580 C.3   113  ILE113      0.0252
    133  CG1        4.3880    4.4800   14.2440 C.3   113  ILE113      0.0019
    134  CG2        6.7490    3.8910   14.9200 C.3   113  ILE113      0.0019
    135  CD1        4.0390    3.4460   13.1940 C.3   113  ILE113      0.0001
    136  N          2.9250    8.7570    9.3490 N.3   119  LEU119     -0.1245
    137  CA         3.5420    7.7080   10.1570 C.3   119  LEU119      0.1561
    138  C          4.6600    6.9570    9.4380 C.2   119  LEU119      0.2260
    139  O          4.6290    6.7810    8.2150 O.2   119  LEU119     -0.2867
    140  CB         2.4850    6.7180   10.6690 C.3   119  LEU119      0.0270
    141  CG         1.9580    5.6040    9.7640 C.3   119  LEU119      0.0019
    142  CD1        1.4500    4.4590   10.5940 C.3   119  LEU119      0.0001
    143  CD2        0.8670    6.1210    8.8550 C.3   119  LEU119      0.0001
    144  N          6.5670    3.8140    8.2110 N.3   121  VAL121     -0.1231
    145  CA         6.2660    2.4360    7.8400 C.3   121  VAL121      0.1692
    146  C          7.5220    1.6680    7.4280 C.2   121  VAL121      0.2591
    147  O          8.5820    2.2640    7.1970 O.2   121  VAL121     -0.2718
    148  CB         5.2130    2.3500    6.7030 C.3   121  VAL121      0.0266
    149  CG1        3.8850    2.9170    7.1600 C.3   121  VAL121      0.0020
    150  CG2        5.7160    3.0310    5.4170 C.3   121  VAL121      0.0020
    151  N          7.3850    0.3450    7.3330 N.am  122  ALA122     -0.1980
    152  CA         8.4500   -0.5310    6.8490 C.3   122  ALA122      0.1597
    153  C          9.7680   -0.2770    7.5680 C.2   122  ALA122      0.2287
    154  O         10.8010   -0.0090    6.9340 O.2   122  ALA122     -0.2864
    155  CB         8.6200   -0.3780    5.3540 C.3   122  ALA122      0.0319
    156  N          4.3940    7.3260    5.3550 N.3   128  VAL128     -0.1245
    157  CA         3.0910    7.5060    4.7180 C.3   128  VAL128      0.1561
    158  C          2.4370    8.7410    5.3240 C.2   128  VAL128      0.2260
    159  O          2.3850    8.8770    6.5410 O.2   128  VAL128     -0.2867
    160  CB         2.1860    6.2480    4.8940 C.3   128  VAL128      0.0252
    161  CG1        0.8100    6.4580    4.3010 C.3   128  VAL128      0.0019
    162  CG2        2.8240    5.0560    4.2340 C.3   128  VAL128      0.0019
    163  N         -2.7270   11.3270    2.6410 N.3   132  PHE132     -0.1227
    164  CA        -2.9030   10.2110    1.7140 C.3   132  PHE132      0.1736
    165  C         -3.8160    9.1080    2.2590 C.2   132  PHE132      0.2595
    166  O         -4.5240    8.4540    1.4940 O.2   132  PHE132     -0.2718
    167  CB        -1.5360    9.6330    1.3380 C.3   132  PHE132      0.0547
    168  CG        -1.6050    8.3700    0.5230 C.ar  132  PHE132     -0.0202
    169  CD1       -2.0340    8.3990   -0.7970 C.ar  132  PHE132     -0.0042
    170  CD2       -1.2280    7.1500    1.0780 C.ar  132  PHE132     -0.0042
    171  CE1       -2.0920    7.2380   -1.5520 C.ar  132  PHE132     -0.0003
    172  CE2       -1.2800    5.9800    0.3270 C.ar  132  PHE132     -0.0003
    173  CZ        -1.7110    6.0270   -0.9920 C.ar  132  PHE132     -0.0000
    174  N         -3.7870    8.9030    3.5750 N.am  133  LEU133     -0.1980
    175  CA        -4.6460    7.9160    4.2440 C.3   133  LEU133      0.1596
    176  C         -6.1100    8.3500    4.3580 C.2   133  LEU133      0.2287
    177  O         -7.0030    7.5060    4.3910 O.2   133  LEU133     -0.2864
    178  CB        -4.0930    7.5640    5.6260 C.3   133  LEU133      0.0297
    179  CG        -2.7220    6.8850    5.6850 C.3   133  LEU133      0.0022
    180  CD1       -2.2490    6.8320    7.1100 C.3   133  LEU133      0.0001
    181  CD2       -2.7430    5.4850    5.0760 C.3   133  LEU133      0.0001
    182  N        -10.6870    4.0330    9.0040 N.3   143  ILE143     -0.1231
    183  CA       -10.0570    3.0900    9.9310 C.3   143  ILE143      0.1692
    184  C         -8.8960    3.7020   10.7080 C.2   143  ILE143      0.2591
    185  O         -8.8300    3.5680   11.9340 O.2   143  ILE143     -0.2718
    186  CB        -9.5580    1.8140    9.2180 C.3   143  ILE143      0.0266
    187  CG1      -10.7320    1.0310    8.6260 C.3   143  ILE143      0.0019
    188  CG2       -8.7730    0.9250   10.1840 C.3   143  ILE143      0.0020
    189  CD1      -10.3490    0.2170    7.4100 C.3   143  ILE143      0.0001
    190  N         -7.9960    4.3740    9.9940 N.am  144  ILE144     -0.1980
    191  CA        -6.7560    4.8920   10.5790 C.3   144  ILE144      0.1595
    192  C         -6.9350    6.2550   11.2550 C.2   144  ILE144      0.2287
    193  O         -6.2530    6.5550   12.2330 O.2   144  ILE144     -0.2864
    194  CB        -5.6270    4.9410    9.5160 C.3   144  ILE144      0.0276
    195  CG1       -5.3670    3.5320    8.9740 C.3   144  ILE144      0.0022
    196  CG2       -4.3400    5.5330   10.0900 C.3   144  ILE144      0.0022
    197  CD1       -4.8010    3.5090    7.5810 C.3   144  ILE144      0.0001
    198  N         -7.0900    6.6380   15.1930 N.3   147  LYS147     -0.1245
    199  CA        -5.8160    6.2370   15.7850 C.3   147  LYS147      0.1561
    200  C         -4.8420    7.3990   15.7680 C.2   147  LYS147      0.2260
    201  O         -4.1190    7.6110   16.7340 O.2   147  LYS147     -0.2867
    202  CB        -5.2230    5.0390   15.0500 C.3   147  LYS147      0.0271
    203  CG        -5.8620    3.7000   15.4030 C.3   147  LYS147      0.0035
    204  CD        -7.2520    3.5560   14.8060 C.3   147  LYS147      0.0206
    205  CE        -7.6590    2.1010   14.7150 C.3   147  LYS147      0.1093
    206  NZ        -9.0630    1.9380   14.2460 N.3   147  LYS147     -0.1314
    207  N        -12.8820    0.1550   16.6940 N.3   229  HIS229     -0.1241
    208  CA       -12.1510   -0.5380   15.6320 C.3   229  HIS229      0.1621
    209  C        -12.8570   -1.8220   15.2250 C.2   229  HIS229      0.2264
    210  O        -13.0830   -2.0610   14.0380 O.2   229  HIS229     -0.2867
    211  CB       -10.7120   -0.8410   16.0570 C.3   229  HIS229      0.0745
    212  CG        -9.8990   -1.5140   14.9960 C.ar  229  HIS229      0.0817
    213  ND1       -9.3020   -0.8220   13.9650 N.ar  229  HIS229     -0.2268
    214  CD2       -9.5870   -2.8190   14.8040 C.ar  229  HIS229      0.1154
    215  CE1       -8.6620   -1.6710   13.1800 C.ar  229  HIS229      0.1986
    216  NE2       -8.8190   -2.8890   13.6670 N.ar  229  HIS229     -0.2212
    217  N        -14.4920   -3.1160   11.5530 N.3   233  MET233     -0.1245
    218  CA       -14.0450   -4.3260   10.8750 C.3   233  MET233      0.1570
    219  C        -15.2350   -5.2200   10.5470 C.2   233  MET233      0.2261
    220  O        -15.2060   -5.9620    9.5660 O.2   233  MET233     -0.2867
    221  CB       -13.0120   -5.0820   11.7080 C.3   233  MET233      0.0387
    222  CG       -11.7550   -4.2890   12.0380 C.3   233  MET233      0.0595
    223  SD       -10.8320   -3.7000   10.5940 S.3   233  MET233     -0.1393
    224  CE       -10.1420   -5.2340    9.9910 C.3   233  MET233      0.0692
    225  N         -6.6080  -12.0850   12.8840 N.3   249  LEU249     -0.1245
    226  CA        -7.3960  -10.8940   13.2110 C.3   249  LEU249      0.1561
    227  C         -8.8910  -11.2210   13.2810 C.2   249  LEU249      0.2260
    228  O         -9.6080  -10.6930   14.1360 O.2   249  LEU249     -0.2867
    229  CB        -7.1120   -9.7540   12.2360 C.3   249  LEU249      0.0270
    230  CG        -5.6440   -9.3550   12.0240 C.3   249  LEU249      0.0019
    231  CD1       -5.5420   -8.1400   11.1040 C.3   249  LEU249      0.0001
    232  CD2       -4.9130   -9.0830   13.3420 C.3   249  LEU249      0.0001
    233  N        -11.4190  -10.2580   16.6030 N.3   253  TYR253     -0.1241
    234  CA       -12.6070   -9.3970   16.4880 C.3   253  TYR253      0.1605
    235  C        -13.9050  -10.1550   16.7660 C.2   253  TYR253      0.2264
    236  O        -14.9840   -9.5520   16.8480 O.2   253  TYR253     -0.2867
    237  CB       -12.6660   -8.7020   15.1140 C.3   253  TYR253      0.0534
    238  CG       -11.4150   -7.9250   14.7640 C.ar  253  TYR253     -0.0201
    239  CD1      -10.7860   -7.1120   15.7140 C.ar  253  TYR253     -0.0009
    240  CD2      -10.8670   -7.9900   13.4860 C.ar  253  TYR253     -0.0009
    241  CE1       -9.6420   -6.3990   15.4060 C.ar  253  TYR253      0.0417
    242  CE2       -9.7160   -7.2790   13.1670 C.ar  253  TYR253      0.0417
    243  CZ        -9.1100   -6.4860   14.1340 C.ar  253  TYR253      0.1957
    244  OH        -7.9740   -5.7790   13.8330 O.3   253  TYR253     -0.2866
@<TRIPOS>BOND
     1     3     4    2
     2     3     2    1
     3     1     2    1
     4     2     5    1
     5     5     6    1
     6     8     6    1
     7     6     7    1
     8    29    31   ar
     9    29    28   ar
    10    31    32   ar
    11    12    11    2
    12    27    28    1
    13    27    24    1
    14    28    30   ar
    15    32    30   ar
    16   171   173   ar
    17   171   169   ar
    18   173   172   ar
    19    11    10    1
    20    23    24    1
    21   169   168   ar
    22    24    25    1
    23     9    10    1
    24    10    13    1
    25    61    59    1
    26    13    14    1
    27   172   170   ar
    28   168   170   ar
    29   168   167    1
    30    25    33   am
    31    25    26    2
    32    19    21   ar
    33    19    16   ar
    34    33    34    1
    35    39    37    1
    36    21    22   ar
    37    58    59    2
    38    58    57    1
    39    59    60    1
    40   167   164    1
    41    14    16   ar
    42    14    15   ar
    43   166   165    2
    44    16    18   ar
    45   164   165    1
    46   164   163    1
    47    34    37    1
    48    34    35    1
    49    37    38    1
    50   165   174   am
    51    57    56    1
    52    22    20   ar
    53    56    55    1
    54    15    17   ar
    55    18    20   ar
    56    18    17   ar
    57    40    35   am
    58    40    41    1
    59    35    36    2
    60   174   175    1
    61    44    41    1
    62    44    45    1
    63    55    52    1
    64    51    52    1
    65    41    42    1
    66   162   160    1
    67   175   176    1
    68   175   178    1
    69   161   160    1
    70    47    45   ar
    71    47    49   ar
    72   176   177    2
    73    42    43    2
    74    52    53    1
    75    45    46   ar
    76   157   160    1
    77   157   158    1
    78   157   156    1
    79   181   179    1
    80    49    50   ar
    81   158   159    2
    82   155   152    1
    83   150   148    1
    84   178   179    1
    85   179   180    1
    86    76    74   am
    87    46    48   ar
    88    53    62   am
    89    53    54    2
    90    62    63    1
    91    50    48   ar
    92   148   149    1
    93   148   145    1
    94   152   151    1
    95   152   153    1
    96   154   153    2
    97    74    75    2
    98    74    73    1
    99   147   146    2
   100   151   146   am
   101   189   187    1
   102   146   145    1
   103    67    66    1
   104    72    73    1
   105    72    69    1
   106   197   195    1
   107    63    66    1
   108    63    64    1
   109   145   144    1
   110    68    69    1
   111    68    64   am
   112   139   138    2
   113    69    70    1
   114    64    65    2
   115   187   186    1
   116    82    81    1
   117    70    71    2
   118   143   141    1
   119   195   194    1
   120   182   183    1
   121    77    78    1
   122   186   183    1
   123   186   188    1
   124   136   137    1
   125   138   137    1
   126   194   196    1
   127   194   191    1
   128   220   219    2
   129   141   142    1
   130   141   140    1
   131    81    78    1
   132    81    83    1
   133   183   184    1
   134   224   223    1
   135   190   191    1
   136   190   184   am
   137    78    79    1
   138   137   140    1
   139   219   218    1
   140   191   192    1
   141   223   222    1
   142   184   185    2
   143   218   217    1
   144   218   221    1
   145   231   230    1
   146   192   193    2
   147    79    84   am
   148    79    80    2
   149    84    85    1
   150   221   222    1
   151    89    88    1
   152   230   229    1
   153   230   232    1
   154   229   226    1
   155    88    85    1
   156    88    90    1
   157    85    86    1
   158   225   226    1
   159   131   130    2
   160   242   240   ar
   161   242   243   ar
   162   215   216   ar
   163   215   213   ar
   164   135   133    1
   165   226   227    1
   166    86    87    2
   167   227   228    2
   168   240   238   ar
   169   216   214   ar
   170   244   243    1
   171   213   212   ar
   172   210   209    2
   173   243   241   ar
   174   130   129    1
   175   126   125    1
   176   133   132    1
   177   206   205    1
   178   132   134    1
   179   132   129    1
   180   205   204    1
   181   238   237    1
   182   238   239   ar
   183   214   212   ar
   184   204   203    1
   185   129   128    1
   186   212   211    1
   187   202   203    1
   188   202   199    1
   189   237   234    1
   190   198   199    1
   191   209   208    1
   192   127   125    1
   193   125   124    1
   194   241   239   ar
   195   208   211    1
   196   208   207    1
   197   200   199    1
   198   200   201    2
   199   100    98   ar
   200   100    99   ar
   201   117   119   ar
   202   117   115   ar
   203   123   122    2
   204   234   233    1
   205   234   235    1
   206    98    96   ar
   207   124   121    1
   208   107   105    1
   209   235   236    2
   210    99    97   ar
   211   119   118   ar
   212   108   106    1
   213   121   122    1
   214   121   120    1
   215   115   114   ar
   216   106   105    1
   217    96    97   ar
   218    96    95    1
   219   105   102    1
   220   118   116   ar
   221   104   103    2
   222   114   116   ar
   223   114   113    1
   224   103   102    1
   225   103   109   am
   226   102   101    1
   227    95    92    1
   228   110   109    1
   229   110   113    1
   230   110   111    1
   231    92    91    1
   232    92    93    1
   233   112   111    2
   234    94    93    2
