@<TRIPOS>MOLECULE
tmp/3dy9A00.pdb
 99 95 0 0 0
SMALL
GASTEIGER

@<TRIPOS>ATOM
      1  N         -3.7340   -1.6340   22.3020 N.3   154  PHE154     -0.1241
      2  CA        -2.7750   -1.8020   23.3990 C.3   154  PHE154      0.1605
      3  C         -2.6130   -3.2890   23.7190 C.2   154  PHE154      0.2264
      4  O         -1.4790   -3.7690   23.9220 O.2   154  PHE154     -0.2867
      5  CB        -3.2490   -1.0480   24.6390 C.3   154  PHE154      0.0534
      6  CG        -3.0540    0.4560   24.5590 C.ar  154  PHE154     -0.0203
      7  CD1       -2.3880    1.1230   25.5760 C.ar  154  PHE154     -0.0042
      8  CD2       -3.5620    1.2000   23.4940 C.ar  154  PHE154     -0.0042
      9  CE1       -2.1910    2.5080   25.5260 C.ar  154  PHE154     -0.0003
     10  CE2       -3.3820    2.5910   23.4570 C.ar  154  PHE154     -0.0003
     11  CZ        -2.6910    3.2260   24.4730 C.ar  154  PHE154     -0.0000
     12  N          0.6980   -5.5790   23.7230 N.3   158  GLU158     -0.1245
     13  CA         1.0400   -6.3040   24.9600 C.3   158  GLU158      0.1567
     14  C          1.2000   -7.8060   24.7130 C.2   158  GLU158      0.2260
     15  O          2.1230   -8.4460   25.2450 O.2   158  GLU158     -0.2867
     16  CB        -0.0600   -6.1180   25.9920 C.3   158  GLU158      0.0388
     17  CG        -0.1600   -4.7330   26.5610 C.3   158  GLU158      0.1160
     18  CD        -1.3090   -4.6300   27.5440 C.2   158  GLU158      0.3649
     19  OE1       -2.2040   -5.5080   27.5270 O.co2 158  GLU158     -0.2457
     20  OE2       -1.2950   -3.6850   28.3420 O.co2 158  GLU158     -0.2457
     21  N          3.9280   -1.6200   33.5260 N.3   175  ILE175     -0.1231
     22  CA         3.6970   -0.9840   32.2270 C.3   175  ILE175      0.1692
     23  C          2.3480   -0.2770   32.1770 C.2   175  ILE175      0.2591
     24  O          2.2570    0.8990   31.7670 O.2   175  ILE175     -0.2718
     25  CB         3.8690   -2.0110   31.0840 C.3   175  ILE175      0.0266
     26  CG1        5.3560   -2.4030   30.9770 C.3   175  ILE175      0.0019
     27  CG2        3.3320   -1.4720   29.7570 C.3   175  ILE175      0.0020
     28  CD1        5.6480   -3.5420   30.0130 C.3   175  ILE175      0.0001
     29  N          1.3090   -0.9780   32.6330 N.am  176  ARG176     -0.1980
     30  CA        -0.0390   -0.3940   32.6290 C.3   176  ARG176      0.1597
     31  C         -0.2340    0.7650   33.6240 C.2   176  ARG176      0.2287
     32  O         -1.2100    1.5070   33.4990 O.2   176  ARG176     -0.2864
     33  CB        -1.1110   -1.4700   32.8210 C.3   176  ARG176      0.0334
     34  CG        -1.2790   -2.3880   31.6290 C.3   176  ARG176      0.0492
     35  CD        -2.3720   -3.4250   31.9350 C.3   176  ARG176      0.2205
     36  NE        -2.5230   -4.4100   30.8760 N.pl3 176  ARG176     -0.0865
     37  CZ        -3.2860   -5.5020   30.9610 C.cat 176  ARG176      0.5346
     38  NH1       -3.9960   -5.7460   32.0570 N.pl3 176  ARG176      0.1354
     39  NH2       -3.3510   -6.3490   29.9410 N.pl3 176  ARG176      0.1354
     40  N          1.9540    3.2020   33.7650 N.3   178  TYR178     -0.1241
     41  CA         2.7910    4.2730   33.1860 C.3   178  TYR178      0.1605
     42  C          4.2460    4.3190   33.6860 C.2   178  TYR178      0.2264
     43  O          4.9290    5.3670   33.5980 O.2   178  TYR178     -0.2867
     44  CB         2.0970    5.6370   33.3340 C.3   178  TYR178      0.0534
     45  CG         0.8990    5.7690   32.4280 C.ar  178  TYR178     -0.0201
     46  CD1        1.0610    6.0830   31.0810 C.ar  178  TYR178     -0.0009
     47  CD2       -0.4020    5.5780   32.9110 C.ar  178  TYR178     -0.0009
     48  CE1       -0.0270    6.2300   30.2400 C.ar  178  TYR178      0.0417
     49  CE2       -1.5100    5.6980   32.0720 C.ar  178  TYR178      0.0417
     50  CZ        -1.3170    6.0310   30.7340 C.ar  178  TYR178      0.1957
     51  OH        -2.3890    6.1570   29.8830 O.3   178  TYR178     -0.2866
     52  N          7.0040    8.9010   24.1820 N.3   248  TYR248     -0.1241
     53  CA         6.2110    8.3330   25.2900 C.3   248  TYR248      0.1605
     54  C          6.7940    8.7220   26.6490 C.2   248  TYR248      0.2264
     55  O          6.1040    9.3080   27.5040 O.2   248  TYR248     -0.2867
     56  CB         6.1230    6.8160   25.1430 C.3   248  TYR248      0.0534
     57  CG         5.3900    6.1520   26.2710 C.ar  248  TYR248     -0.0201
     58  CD1        4.0000    6.1770   26.3340 C.ar  248  TYR248     -0.0009
     59  CD2        6.0950    5.4950   27.3020 C.ar  248  TYR248     -0.0009
     60  CE1        3.3150    5.5570   27.3840 C.ar  248  TYR248      0.0417
     61  CE2        5.4200    4.8770   28.3630 C.ar  248  TYR248      0.0417
     62  CZ         4.0420    4.9220   28.4000 C.ar  248  TYR248      0.1957
     63  OH         3.3810    4.3060   29.4330 O.3   248  TYR248     -0.2866
     64  N         -4.5750    9.2280   26.8200 N.3   264  PHE264     -0.1227
     65  CA        -4.0350    7.9370   26.3650 C.3   264  PHE264      0.1736
     66  C         -4.9720    6.8090   26.8410 C.2   264  PHE264      0.2595
     67  O         -5.2590    5.8700   26.0800 O.2   264  PHE264     -0.2718
     68  CB        -2.6180    7.8040   26.9340 C.3   264  PHE264      0.0547
     69  CG        -1.6610    6.9220   26.1460 C.ar  264  PHE264     -0.0202
     70  CD1       -1.2480    7.2540   24.8410 C.ar  264  PHE264     -0.0042
     71  CD2       -1.0520    5.8370   26.7700 C.ar  264  PHE264     -0.0042
     72  CE1       -0.3050    6.4690   24.1650 C.ar  264  PHE264     -0.0003
     73  CE2       -0.0920    5.0580   26.0870 C.ar  264  PHE264     -0.0003
     74  CZ         0.2640    5.3840   24.7940 C.ar  264  PHE264     -0.0000
     75  N         -5.4680    6.9190   28.0830 N.am  265  ASP265     -0.1974
     76  CA        -6.4470    5.9460   28.6240 C.3   265  ASP265      0.1709
     77  C         -7.7030    5.8910   27.7670 C.2   265  ASP265      0.2293
     78  O         -8.2030    4.8160   27.4230 O.2   265  ASP265     -0.2864
     79  CB        -6.8440    6.2960   30.0650 C.3   265  ASP265      0.1436
     80  CG        -5.7830    5.9260   31.0860 C.2   265  ASP265      0.3671
     81  OD1       -4.7640    5.3020   30.7300 O.co2 265  ASP265     -0.2456
     82  OD2       -5.9720    6.2780   32.2770 O.co2 265  ASP265     -0.2456
     83  N         -7.0150    4.2950   24.4500 N.3   268  GLU268     -0.1245
     84  CA        -7.0080    2.8300   24.5780 C.3   268  GLU268      0.1567
     85  C         -8.4250    2.2710   24.4420 C.2   268  GLU268      0.2260
     86  O         -8.6630    1.3310   23.6840 O.2   268  GLU268     -0.2867
     87  CB        -6.3630    2.3950   25.9010 C.3   268  GLU268      0.0388
     88  CG        -6.1010    0.8930   26.0090 C.3   268  GLU268      0.1160
     89  CD        -7.3200    0.0960   26.4330 C.2   268  GLU268      0.3649
     90  OE1       -8.1820    0.6610   27.1320 O.co2 268  GLU268     -0.2457
     91  OE2       -7.4180   -1.0950   26.0710 O.co2 268  GLU268     -0.2457
     92  N         -4.8590   -3.7510   40.5960 N.3   290  MET290     -0.1245
     93  CA        -4.7100   -4.1460   39.2000 C.3   290  MET290      0.1570
     94  C         -4.5340   -5.6580   39.0590 C.2   290  MET290      0.2261
     95  O         -3.9130   -6.3060   39.9040 O.2   290  MET290     -0.2867
     96  CB        -3.5330   -3.4000   38.5530 C.3   290  MET290      0.0387
     97  CG        -3.2890   -3.7530   37.0830 C.3   290  MET290      0.0595
     98  SD        -2.0710   -2.7000   36.2680 S.3   290  MET290     -0.1393
     99  CE        -3.0570   -1.2370   35.9340 C.3   290  MET290      0.0692
@<TRIPOS>BOND
     1     1     2    1
     2     2     3    1
     3     2     5    1
     4    10     8   ar
     5    10    11   ar
     6     8     6   ar
     7    86    85    2
     8     3     4    2
     9    12    13    1
    10    72    74   ar
    11    72    70   ar
    12    52    53    1
    13    85    84    1
    14    83    84    1
    15    11     9   ar
    16     6     5    1
    17     6     7   ar
    18    84    87    1
    19    14    13    1
    20    14    15    2
    21    74    73   ar
    22    70    69   ar
    23    13    16    1
    24    56    53    1
    25    56    57    1
    26    53    54    1
    27     9     7   ar
    28    87    88    1
    29    16    17    1
    30    88    89    1
    31    91    89   ar
    32    67    66    2
    33    73    71   ar
    34    69    71   ar
    35    69    68    1
    36    57    58   ar
    37    57    59   ar
    38    58    60   ar
    39    65    64    1
    40    65    66    1
    41    65    68    1
    42    89    90   ar
    43    17    18    1
    44    54    55    2
    45    66    75   am
    46    59    61   ar
    47    60    62   ar
    48    78    77    2
    49    19    18   ar
    50    18    20   ar
    51    77    76    1
    52    75    76    1
    53    61    62   ar
    54    62    63    1
    55    76    79    1
    56    27    25    1
    57    51    50    1
    58    39    37    1
    59    28    26    1
    60    79    80    1
    61    48    50   ar
    62    48    46   ar
    63    81    80   ar
    64    50    49   ar
    65    36    37    2
    66    36    35    1
    67    37    38    1
    68    26    25    1
    69    46    45   ar
    70    25    22    1
    71    80    82   ar
    72    34    35    1
    73    34    33    1
    74    24    23    2
    75    49    47   ar
    76    23    22    1
    77    23    29   am
    78    22    21    1
    79    45    47   ar
    80    45    44    1
    81    30    29    1
    82    30    33    1
    83    30    31    1
    84    41    44    1
    85    41    42    1
    86    41    40    1
    87    32    31    2
    88    43    42    2
    89    99    98    1
    90    98    97    1
    91    97    96    1
    92    96    93    1
    93    94    93    1
    94    94    95    2
    95    93    92    1
