@<TRIPOS>MOLECULE
tmp/3dyaA00.pdb
 200 198 0 0 0
SMALL
GASTEIGER

@<TRIPOS>ATOM
      1  N         47.4280   55.5330   22.1060 N.3    91  PRO91      -0.2116
      2  CA        48.1930   55.9090   20.9120 C.3    91  PRO91       0.1372
      3  C         49.6950   55.8870   21.1650 C.2    91  PRO91       0.2244
      4  O         50.1490   56.3100   22.2240 O.2    91  PRO91      -0.2868
      5  CB        47.7110   57.3340   20.6090 C.3    91  PRO91       0.0268
      6  CG        46.4490   57.4620   21.3170 C.3    91  PRO91       0.0207
      7  CD        46.5040   56.6040   22.5110 C.3    91  PRO91       0.0892
      8  N         53.2040   57.4830   19.6980 N.3    93  PRO93      -0.2116
      9  CA        53.6980   58.5410   18.8060 C.3    93  PRO93       0.1372
     10  C         54.2300   58.0730   17.4340 C.2    93  PRO93       0.2244
     11  O         54.0130   58.7610   16.4130 O.2    93  PRO93      -0.2868
     12  CB        54.8200   59.1870   19.6150 C.3    93  PRO93       0.0268
     13  CG        54.5580   58.8690   20.9900 C.3    93  PRO93       0.0207
     14  CD        53.7990   57.5800   21.0380 C.3    93  PRO93       0.0892
     15  N         51.6400   58.0370   14.6730 N.3    96  LEU96      -0.1231
     16  CA        51.1280   59.3380   14.1830 C.3    96  LEU96       0.1693
     17  C         51.6850   59.7180   12.8020 C.2    96  LEU96       0.2592
     18  O         52.8800   59.6400   12.5640 O.2    96  LEU96      -0.2718
     19  CB        51.4590   60.4760   15.1780 C.3    96  LEU96       0.0284
     20  CG        50.9220   60.3520   16.6040 C.3    96  LEU96       0.0019
     21  CD1       51.5740   61.3750   17.5410 C.3    96  LEU96       0.0001
     22  CD2       49.3890   60.4490   16.6340 C.3    96  LEU96       0.0001
     23  N         50.8070   60.1380   11.9020 N.am   97  LYS97      -0.1966
     24  CA        51.2200   60.7500   10.6340 C.3    97  LYS97       0.1728
     25  C         51.5360   62.2220   10.8420 C.2    97  LYS97       0.2616
     26  O         50.7820   62.9150   11.5120 O.2    97  LYS97      -0.2715
     27  CB        50.1120   60.5980    9.6060 C.3    97  LYS97       0.0311
     28  CG        49.8870   59.1530    9.2230 C.3    97  LYS97       0.0038
     29  CD        48.4320   58.7360    9.3400 C.3    97  LYS97       0.0206
     30  CE        48.1980   57.3200    8.7990 C.3    97  LYS97       0.1093
     31  NZ        46.8260   57.2300    8.2000 N.3    97  LYS97      -0.1314
     32  N         52.6440   62.7020   10.2890 N.am   98  LYS98      -0.1963
     33  CA        52.9900   64.1180   10.4010 C.3    98  LYS98       0.1728
     34  C         51.9000   65.0060    9.7620 C.2    98  LYS98       0.2616
     35  O         51.4820   64.7570    8.6310 O.2    98  LYS98      -0.2715
     36  CB        54.3490   64.4060    9.7350 C.3    98  LYS98       0.0311
     37  CG        55.1030   65.5650   10.3930 C.3    98  LYS98       0.0038
     38  CD        55.9120   66.3880    9.4020 C.3    98  LYS98       0.0206
     39  CE        57.0170   65.5930    8.7270 C.3    98  LYS98       0.1093
     40  NZ        57.1360   66.0030    7.2900 N.3    98  LYS98      -0.1314
     41  N         51.4130   66.0030   10.5010 N.am   99  LYS99      -0.1963
     42  CA        50.4520   66.9790    9.9440 C.3    99  LYS99       0.1728
     43  C         51.1060   68.3360    9.8300 C.2    99  LYS99       0.2616
     44  O         51.9960   68.6730   10.6030 O.2    99  LYS99      -0.2715
     45  CB        49.2000   67.1200   10.8160 C.3    99  LYS99       0.0311
     46  CG        48.6160   65.8450   11.3620 C.3    99  LYS99       0.0038
     47  CD        48.4310   64.7630   10.3110 C.3    99  LYS99       0.0206
     48  CE        47.3430   65.0780    9.2970 C.3    99  LYS99       0.1093
     49  NZ        46.7820   63.7850    8.7760 N.3    99  LYS99      -0.1314
     50  N         50.6550   69.1340    8.8740 N.am  100  LYS100     -0.1977
     51  CA        51.1370   70.5150    8.7990 C.3   100  LYS100      0.1596
     52  C         50.8080   71.2320   10.1050 C.2   100  LYS100      0.2287
     53  O         51.6570   71.9210   10.6790 O.2   100  LYS100     -0.2864
     54  CB        50.5440   71.2720    7.6050 C.3   100  LYS100      0.0298
     55  CG        51.1780   72.6700    7.4320 C.3   100  LYS100      0.0038
     56  CD        51.0970   73.2360    5.9930 C.3   100  LYS100      0.0206
     57  CE        51.9130   72.4040    4.9860 C.3   100  LYS100      0.1093
     58  NZ        51.0610   71.4170    4.2380 N.3   100  LYS100     -0.1314
     59  N         48.4550   70.9410   13.9760 N.3   102  VAL102     -0.1245
     60  CA        47.8270   70.1100   14.9960 C.3   102  VAL102      0.1561
     61  C         47.4470   70.9970   16.1960 C.2   102  VAL102      0.2260
     62  O         48.2260   71.8270   16.6170 O.2   102  VAL102     -0.2867
     63  CB        48.8050   68.9370   15.4750 C.3   102  VAL102      0.0252
     64  CG1       48.3090   68.2670   16.7590 C.3   102  VAL102      0.0019
     65  CG2       49.0010   67.9030   14.3610 C.3   102  VAL102      0.0019
     66  N         45.6850   70.8490   20.2630 N.3   104  VAL104     -0.1245
     67  CA        45.1480   70.1950   21.4580 C.3   104  VAL104      0.1561
     68  C         43.9520   70.9750   22.0510 C.2   104  VAL104      0.2260
     69  O         44.0750   72.1530   22.4390 O.2   104  VAL104     -0.2867
     70  CB        46.2410   70.0510   22.5590 C.3   104  VAL104      0.0252
     71  CG1       45.6480   69.4690   23.8350 C.3   104  VAL104      0.0019
     72  CG2       47.3920   69.1870   22.0630 C.3   104  VAL104      0.0019
     73  N         42.1010   64.6850   11.3400 N.3   175  VAL175     -0.1245
     74  CA        42.3540   63.6340   12.2990 C.3   175  VAL175      0.1561
     75  C         41.9430   64.1290   13.6740 C.2   175  VAL175      0.2260
     76  O         42.3800   65.1960   14.1260 O.2   175  VAL175     -0.2867
     77  CB        43.8370   63.1720   12.3050 C.3   175  VAL175      0.0252
     78  CG1       44.0680   62.1450   13.3960 C.3   175  VAL175      0.0019
     79  CG2       44.1900   62.5670   10.9660 C.3   175  VAL175      0.0019
     80  N         41.9980   62.4710   17.3640 N.3   177  TYR177     -0.1241
     81  CA        42.2730   61.5010   18.4020 C.3   177  TYR177      0.1605
     82  C         41.5000   61.8290   19.6850 C.2   177  TYR177      0.2264
     83  O         41.6380   62.9180   20.2320 O.2   177  TYR177     -0.2867
     84  CB        43.7670   61.4780   18.7130 C.3   177  TYR177      0.0534
     85  CG        44.6120   60.6470   17.7770 C.ar  177  TYR177     -0.0201
     86  CD1       44.9520   59.3460   18.1120 C.ar  177  TYR177     -0.0009
     87  CD2       45.1040   61.1650   16.5770 C.ar  177  TYR177     -0.0009
     88  CE1       45.7500   58.5590   17.2890 C.ar  177  TYR177      0.0417
     89  CE2       45.9120   60.3780   15.7250 C.ar  177  TYR177      0.0417
     90  CZ        46.2330   59.0640   16.0960 C.ar  177  TYR177      0.1957
     91  OH        47.0400   58.2320   15.3110 O.3   177  TYR177     -0.2866
     92  N         42.6920   65.6100   20.1140 N.3   184  TYR184     -0.1227
     93  CA        43.9150   66.0550   19.4340 C.3   184  TYR184      0.1736
     94  C         43.5750   66.0860   17.9720 C.2   184  TYR184      0.2595
     95  O         43.0840   65.1110   17.4240 O.2   184  TYR184     -0.2718
     96  CB        45.1280   65.1460   19.7100 C.3   184  TYR184      0.0548
     97  CG        45.2860   64.7390   21.1450 C.ar  184  TYR184     -0.0200
     98  CD1       45.3130   63.3910   21.5120 C.ar  184  TYR184     -0.0009
     99  CD2       45.3710   65.6940   22.1490 C.ar  184  TYR184     -0.0009
    100  CE1       45.4430   63.0120   22.8530 C.ar  184  TYR184      0.0417
    101  CE2       45.4940   65.3370   23.4660 C.ar  184  TYR184      0.0417
    102  CZ        45.5270   63.9900   23.8210 C.ar  184  TYR184      0.1957
    103  OH        45.6290   63.6450   25.1510 O.3   184  TYR184     -0.2866
    104  N         43.7900   67.2350   17.3560 N.am  185  VAL185     -0.1966
    105  CA        43.2140   67.5280   16.0430 C.3   185  VAL185      0.1727
    106  C         44.3140   67.9480   15.0850 C.2   185  VAL185      0.2616
    107  O         45.1050   68.8500   15.3790 O.2   185  VAL185     -0.2715
    108  CB        42.1180   68.6440   16.1410 C.3   185  VAL185      0.0290
    109  CG1       41.2860   68.7010   14.8600 C.3   185  VAL185      0.0023
    110  CG2       41.2190   68.4170   17.3730 C.3   185  VAL185      0.0023
    111  N         44.3630   67.2790   13.9390 N.am  186  GLY186     -0.1955
    112  CA        45.4570   67.4510   12.9910 C.3   186  GLY186      0.1869
    113  C         44.9480   67.5510   11.5660 C.2   186  GLY186      0.2309
    114  O         44.0450   66.8030   11.1590 O.2   186  GLY186     -0.2863
    115  N         47.6130   74.9820   23.9760 N.3   219  LYS219     -0.1245
    116  CA        49.0250   74.6080   24.0610 C.3   219  LYS219      0.1561
    117  C         49.7240   74.7770   22.7120 C.2   219  LYS219      0.2260
    118  O         49.1020   74.6440   21.6580 O.2   219  LYS219     -0.2867
    119  CB        49.1530   73.1490   24.5270 C.3   219  LYS219      0.0271
    120  CG        48.8150   72.9360   25.9900 C.3   219  LYS219      0.0035
    121  CD        48.4250   71.4880   26.2960 C.3   219  LYS219      0.0206
    122  CE        48.1480   71.2930   27.8030 C.3   219  LYS219      0.1093
    123  NZ        47.0900   70.2670   28.0770 N.3   219  LYS219     -0.1314
    124  N         53.2160   73.4400   20.3770 N.3   221  PRO221     -0.2116
    125  CA        54.2820   72.4210   20.2810 C.3   221  PRO221      0.1372
    126  C         55.6170   72.9420   20.8020 C.2   221  PRO221      0.2244
    127  O         55.8790   74.1460   20.6980 O.2   221  PRO221     -0.2868
    128  CB        54.3870   72.1410   18.7810 C.3   221  PRO221      0.0268
    129  CG        53.7040   73.2830   18.1210 C.3   221  PRO221      0.0207
    130  CD        52.6470   73.7540   19.0560 C.3   221  PRO221      0.0892
    131  N         54.4080   69.2050   22.4050 N.3   223  PHE223     -0.1227
    132  CA        53.4770   68.6850   23.4160 C.3   223  PHE223      0.1736
    133  C         54.1820   67.6800   24.3100 C.2   223  PHE223      0.2595
    134  O         54.8290   66.7540   23.8270 O.2   223  PHE223     -0.2718
    135  CB        52.2380   68.0900   22.7620 C.3   223  PHE223      0.0547
    136  CG        51.5890   69.0250   21.7860 C.ar  223  PHE223     -0.0202
    137  CD1       51.1050   70.2610   22.2150 C.ar  223  PHE223     -0.0042
    138  CD2       51.5060   68.7030   20.4340 C.ar  223  PHE223     -0.0042
    139  CE1       50.5200   71.1580   21.3230 C.ar  223  PHE223     -0.0003
    140  CE2       50.9230   69.5890   19.5330 C.ar  223  PHE223     -0.0003
    141  CZ        50.4190   70.8240   19.9880 C.ar  223  PHE223     -0.0000
    142  N         54.1190   67.9320   25.6130 N.am  224  LEU224     -0.1966
    143  CA        54.5420   66.9890   26.6240 C.3   224  LEU224      0.1728
    144  C         53.3100   66.1490   26.9400 C.2   224  LEU224      0.2616
    145  O         52.3470   66.6320   27.5480 O.2   224  LEU224     -0.2715
    146  CB        55.0350   67.7170   27.8770 C.3   224  LEU224      0.0311
    147  CG        56.2370   68.6750   27.7370 C.3   224  LEU224      0.0022
    148  CD1       56.6930   69.1220   29.1190 C.3   224  LEU224      0.0001
    149  CD2       57.3970   68.0520   26.9930 C.3   224  LEU224      0.0001
    150  N         53.3120   64.9090   26.4760 N.am  225  TRP225     -0.1974
    151  CA        52.1190   64.0700   26.5680 C.3   225  TRP225      0.1640
    152  C         52.4860   62.6710   26.9920 C.2   225  TRP225      0.2290
    153  O         53.1740   61.9690   26.2590 O.2   225  TRP225     -0.2864
    154  CB        51.4180   64.0210   25.2130 C.3   225  TRP225      0.0576
    155  CG        50.2130   63.1160   25.1790 C.ar  225  TRP225      0.0006
    156  CD1       48.9550   63.4040   25.6310 C.ar  225  TRP225      0.0946
    157  CD2       50.1580   61.7800   24.6690 C.ar  225  TRP225      0.0152
    158  NE1       48.1250   62.3390   25.4300 N.ar  225  TRP225     -0.2442
    159  CE2       48.8330   61.3220   24.8490 C.ar  225  TRP225      0.0810
    160  CE3       51.0980   60.9200   24.0820 C.ar  225  TRP225      0.0012
    161  CZ2       48.4190   60.0420   24.4560 C.ar  225  TRP225      0.0191
    162  CZ3       50.6850   59.6490   23.6830 C.ar  225  TRP225      0.0001
    163  CH2       49.3560   59.2220   23.8800 C.ar  225  TRP225      0.0015
    164  N         56.2630   65.5680   21.7300 N.3   230  LEU230     -0.1231
    165  CA        55.7840   65.5190   20.3610 C.3   230  LEU230      0.1693
    166  C         56.0870   66.8470   19.6640 C.2   230  LEU230      0.2592
    167  O         55.4020   67.8540   19.8830 O.2   230  LEU230     -0.2718
    168  CB        54.2800   65.2060   20.3320 C.3   230  LEU230      0.0284
    169  CG        53.7870   64.0610   21.2440 C.3   230  LEU230      0.0019
    170  CD1       52.2650   63.9410   21.2210 C.3   230  LEU230      0.0001
    171  CD2       54.4430   62.7040   20.9140 C.3   230  LEU230      0.0001
    172  N         57.1310   66.8330   18.8350 N.am  231  HIS231     -0.1962
    173  CA        57.5510   67.9790   18.0240 C.3   231  HIS231      0.1772
    174  C         56.9490   67.9220   16.6190 C.2   231  HIS231      0.2462
    175  O         56.4090   66.8880   16.2210 O.2   231  HIS231     -0.2730
    176  CB        59.0740   68.0140   17.9150 C.3   231  HIS231      0.0785
    177  CG        59.7770   68.1660   19.2190 C.ar  231  HIS231      0.0821
    178  ND1       59.7770   67.1840   20.1820 N.ar  231  HIS231     -0.2267
    179  CD2       60.5390   69.1710   19.7080 C.ar  231  HIS231      0.1154
    180  CE1       60.4890   67.5840   21.2210 C.ar  231  HIS231      0.1986
    181  NE2       60.9670   68.7860   20.9580 N.ar  231  HIS231     -0.2212
    182  N         57.0080   69.0470   15.8690 N.am  232  PRO232     -0.2727
    183  CA        56.5540   69.1480   14.4710 C.3   232  PRO232      0.1402
    184  C         57.0010   68.0750   13.4670 C.2   232  PRO232      0.2269
    185  O         56.2680   67.7900   12.5280 O.2   232  PRO232     -0.2865
    186  CB        57.0890   70.5230   14.0400 C.3   232  PRO232      0.0296
    187  CG        57.0590   71.3190   15.2880 C.3   232  PRO232      0.0237
    188  CD        57.4270   70.3670   16.3880 C.3   232  PRO232      0.0939
    189  N         57.9040   60.2940   12.4530 N.3   314  TYR314     -0.1241
    190  CA        56.4860   59.9470   12.3580 C.3   314  TYR314      0.1605
    191  C         56.2400   58.9910   11.1970 C.2   314  TYR314      0.2264
    192  O         57.1340   58.7080   10.4060 O.2   314  TYR314     -0.2867
    193  CB        55.5810   61.2080   12.2260 C.3   314  TYR314      0.0534
    194  CG        55.5680   62.0780   13.4580 C.ar  314  TYR314     -0.0201
    195  CD1       55.9950   63.4100   13.4050 C.ar  314  TYR314     -0.0009
    196  CD2       55.1520   61.5690   14.6830 C.ar  314  TYR314     -0.0009
    197  CE1       55.9910   64.1990   14.5280 C.ar  314  TYR314      0.0417
    198  CE2       55.1510   62.3470   15.8260 C.ar  314  TYR314      0.0417
    199  CZ        55.5670   63.6670   15.7500 C.ar  314  TYR314      0.1957
    200  OH        55.5850   64.4320   16.8950 O.3   314  TYR314     -0.2866
@<TRIPOS>BOND
     1    58    57    1
     2    57    56    1
     3    56    55    1
     4    40    39    1
     5    55    54    1
     6    54    51    1
     7    31    30    1
     8    35    34    2
     9    39    38    1
    10    49    48    1
    11    51    50    1
    12    51    52    1
    13    30    29    1
    14    50    43   am
    15    28    29    1
    16    28    27    1
    17    48    47    1
    18    38    37    1
    19    27    24    1
    20    36    37    1
    21    36    33    1
    22    34    33    1
    23    34    41   am
    24    43    42    1
    25    43    44    2
    26    42    41    1
    27    42    45    1
    28    52    53    2
    29    32    33    1
    30    32    25   am
    31    47    46    1
    32   192   191    2
    33    24    25    1
    34    24    23    1
    35    45    46    1
    36    25    26    2
    37    79    77    1
    38   114   113    2
    39   191   190    1
    40    73    74    1
    41   113   112    1
    42    23    17   am
    43   193   190    1
    44   193   194    1
    45    74    77    1
    46    74    75    1
    47    77    78    1
    48   190   189    1
    49   185   184    2
    50    18    17    2
    51    17    16    1
    52   112   111    1
    53   195   194   ar
    54   195   197   ar
    55   194   196   ar
    56   184   183    1
    57    75    76    2
    58   111   106   am
    59    59    60    1
    60   186   183    1
    61   186   187    1
    62    16    15    1
    63    16    19    1
    64    65    63    1
    65   183   182    1
    66   197   199   ar
    67   196   198   ar
    68   109   108    1
    69    60    63    1
    70    60    61    1
    71   106   107    2
    72   106   105    1
    73    19    20    1
    74   187   188    1
    75    91    90    1
    76    63    64    1
    77    89    90   ar
    78    89    87   ar
    79   199   198   ar
    80   199   200    1
    81   182   188    1
    82   182   174   am
    83   105   108    1
    84   105   104    1
    85    90    88   ar
    86   108   110    1
    87    61    62    2
    88   175   174    2
    89    11    10    2
    90    87    85   ar
    91    20    22    1
    92    20    21    1
    93   174   173    1
    94    88    86   ar
    95   104    94   am
    96    80    81    1
    97    95    94    2
    98    10     9    1
    99    85    86   ar
   100    85    84    1
   101   176   173    1
   102   176   177    1
   103    94    93    1
   104   173   172    1
   105   129   128    1
   106   129   130    1
   107    81    84    1
   108    81    82    1
   109   128   125    1
   110     9    12    1
   111     9     8    1
   112   172   166   am
   113   130   124    1
   114   177   179   ar
   115   177   178   ar
   116    93    96    1
   117    93    92    1
   118   140   141   ar
   119   140   138   ar
   120    12    13    1
   121   166   167    2
   122   166   165    1
   123    82    83    2
   124     8    14    1
   125   179   181   ar
   126    96    97    1
   127   141   139   ar
   128   178   180   ar
   129    66    67    1
   130   125   124    1
   131   125   126    1
   132   168   165    1
   133   168   169    1
   134   165   164    1
   135   138   136   ar
   136     5     2    1
   137     5     6    1
   138   127   126    2
   139     2     3    1
   140     2     1    1
   141   171   169    1
   142   181   180   ar
   143    13    14    1
   144    97    98   ar
   145    97    99   ar
   146     3     4    2
   147   170   169    1
   148     6     7    1
   149   139   137   ar
   150    67    68    1
   151    67    70    1
   152    98   100   ar
   153   118   117    2
   154   136   137   ar
   155   136   135    1
   156    68    69    2
   157    72    70    1
   158     1     7    1
   159    99   101   ar
   160   131   132    1
   161    70    71    1
   162   117   116    1
   163   135   132    1
   164   100   102   ar
   165   132   133    1
   166   101   102   ar
   167   162   163   ar
   168   162   160   ar
   169   102   103    1
   170   134   133    2
   171   163   161   ar
   172   115   116    1
   173   116   119    1
   174   160   157   ar
   175   133   142   am
   176   161   159   ar
   177   119   120    1
   178   157   159   ar
   179   157   155   ar
   180   159   158   ar
   181   155   154    1
   182   155   156   ar
   183   154   151    1
   184   158   156   ar
   185   142   143    1
   186   120   121    1
   187   153   152    2
   188   121   122    1
   189   150   151    1
   190   150   144   am
   191   151   152    1
   192   143   144    1
   193   143   146    1
   194   144   145    2
   195   149   147    1
   196   147   146    1
   197   147   148    1
   198   122   123    1
