@<TRIPOS>MOLECULE
tmp/3dydA00.pdb
 143 134 0 0 0
SMALL
GASTEIGER

@<TRIPOS>ATOM
      1  N         33.5810   88.5630   10.2900 N.3    87  GLY87      -0.1210
      2  CA        32.1350   88.4380   10.4300 C.3    87  GLY87       0.1956
      3  C         31.5880   89.3280   11.5330 C.2    87  GLY87       0.2612
      4  O         32.3120   89.7390   12.4500 O.2    87  GLY87      -0.2717
      5  N         30.3000   89.6250   11.4430 N.am   88  CYS88      -0.1956
      6  CA        29.6130   90.4190   12.4460 C.3    88  CYS88       0.1843
      7  C         29.7130   89.7730   13.8300 C.2    88  CYS88       0.2626
      8  O         29.7150   90.4740   14.8470 O.2    88  CYS88      -0.2714
      9  CB        28.1410   90.6070   12.0510 C.3    88  CYS88       0.0997
     10  SG        27.2590   91.7920   13.0580 S.3    88  CYS88      -0.0797
     11  N         29.8100   88.4450   13.8640 N.am   89  SER89      -0.1950
     12  CA        29.9550   87.7090   15.1220 C.3    89  SER89       0.1924
     13  C         31.1530   88.1740   15.9640 C.2    89  SER89       0.2314
     14  O         31.0320   88.3390   17.1760 O.2    89  SER89      -0.2863
     15  CB        30.0880   86.2080   14.8490 C.3    89  SER89       0.2116
     16  OG        28.9660   85.7210   14.1450 O.3    89  SER89      -0.2180
     17  N         30.6240   91.7520   17.2920 N.3    92  ILE92      -0.1245
     18  CA        29.8180   91.6710   18.5080 C.3    92  ILE92       0.1561
     19  C         30.6680   91.1700   19.6790 C.2    92  ILE92       0.2260
     20  O         30.5730   91.6850   20.7860 O.2    92  ILE92      -0.2867
     21  CB        28.5890   90.7350   18.2930 C.3    92  ILE92       0.0252
     22  CG1       27.6250   91.3550   17.2800 C.3    92  ILE92       0.0019
     23  CG2       27.8640   90.4770   19.5930 C.3    92  ILE92       0.0019
     24  CD1       26.6740   90.3610   16.6490 C.3    92  ILE92       0.0001
     25  N         18.5720   86.6670   19.3130 N.3   113  PHE113     -0.1241
     26  CA        19.6290   85.8920   18.6630 C.3   113  PHE113      0.1605
     27  C         20.5510   85.3460   19.7530 C.2   113  PHE113      0.2264
     28  O         21.0220   86.0960   20.6010 O.2   113  PHE113     -0.2867
     29  CB        20.4000   86.7940   17.6930 C.3   113  PHE113      0.0534
     30  CG        21.3170   86.0610   16.7560 C.ar  113  PHE113     -0.0203
     31  CD1       22.6690   86.3700   16.7050 C.ar  113  PHE113     -0.0042
     32  CD2       20.8300   85.0890   15.9020 C.ar  113  PHE113     -0.0042
     33  CE1       23.5170   85.7100   15.8290 C.ar  113  PHE113     -0.0003
     34  CE2       21.6720   84.4270   15.0270 C.ar  113  PHE113     -0.0003
     35  CZ        23.0180   84.7410   14.9920 C.ar  113  PHE113     -0.0000
     36  N         23.5700   84.2300   20.0770 N.3   115  LEU115     -0.1245
     37  CA        25.0050   84.4930   20.1520 C.3   115  LEU115      0.1561
     38  C         25.3500   85.4020   21.3320 C.2   115  LEU115      0.2260
     39  O         26.4130   85.2600   21.9350 O.2   115  LEU115     -0.2867
     40  CB        25.5040   85.1290   18.8490 C.3   115  LEU115      0.0270
     41  CG        27.0160   85.3650   18.7370 C.3   115  LEU115      0.0019
     42  CD1       27.7570   84.0430   18.5680 C.3   115  LEU115      0.0001
     43  CD2       27.3340   86.3220   17.5930 C.3   115  LEU115      0.0001
     44  N         18.9190   94.6260   18.7620 N.3   159  ASN159     -0.1240
     45  CA        18.9990   93.9880   17.4520 C.3   159  ASN159      0.1653
     46  C         17.8220   94.4370   16.5880 C.2   159  ASN159      0.2266
     47  O         16.6690   94.0850   16.8590 O.2   159  ASN159     -0.2867
     48  CB        18.9900   92.4620   17.6180 C.3   159  ASN159      0.1155
     49  CG        19.0570   91.7080   16.2880 C.2   159  ASN159      0.2627
     50  OD1       18.5140   90.6000   16.1720 O.2   159  ASN159     -0.2716
     51  ND2       19.7330   92.2890   15.2920 N.am  159  ASN159     -0.0877
     52  N         16.5410   89.2400   14.2250 N.3   163  ASN163     -0.1240
     53  CA        16.4990   87.7830   14.1610 C.3   163  ASN163      0.1653
     54  C         16.3230   87.3320   15.6210 C.2   163  ASN163      0.2266
     55  O         17.1840   87.6300   16.4530 O.2   163  ASN163     -0.2867
     56  CB        17.8140   87.2470   13.5620 C.3   163  ASN163      0.1155
     57  CG        17.8710   85.7150   13.4770 C.2   163  ASN163      0.2627
     58  OD1       16.8600   85.0260   13.5680 O.2   163  ASN163     -0.2716
     59  ND2       19.0670   85.1890   13.2760 N.am  163  ASN163     -0.0877
     60  N         23.1990   95.6550   17.0310 N.3   191  ASP191     -0.1239
     61  CA        23.4260   94.6530   16.0010 C.3   191  ASP191      0.1674
     62  C         22.5450   94.9780   14.7980 C.2   191  ASP191      0.2266
     63  O         21.3380   94.7240   14.8140 O.2   191  ASP191     -0.2867
     64  CB        23.1360   93.2520   16.5270 C.3   191  ASP191      0.1410
     65  CG        23.4270   92.1640   15.4980 C.2   191  ASP191      0.3668
     66  OD1       23.5460   92.4700   14.3000 O.co2 191  ASP191     -0.2456
     67  OD2       23.5300   90.9860   15.8920 O.co2 191  ASP191     -0.2456
     68  N         23.1800   93.9740   11.4580 N.3   193  ILE193     -0.1231
     69  CA        23.5160   93.1040   10.3350 C.3   193  ILE193      0.1692
     70  C         22.4080   93.1420    9.2590 C.2   193  ILE193      0.2592
     71  O         22.7000   93.0960    8.0580 O.2   193  ILE193     -0.2718
     72  CB        23.8030   91.6480   10.8320 C.3   193  ILE193      0.0266
     73  CG1       24.4870   90.8060    9.7420 C.3   193  ILE193      0.0019
     74  CG2       22.5190   90.9870   11.3310 C.3   193  ILE193      0.0020
     75  CD1       25.7960   91.3940    9.2140 C.3   193  ILE193      0.0001
     76  N         21.1540   93.2900    9.6920 N.am  194  TYR194     -0.1976
     77  CA        20.0060   93.3640    8.7750 C.3   194  TYR194      0.1639
     78  C         19.6350   94.7850    8.3640 C.2   194  TYR194      0.2290
     79  O         18.5510   95.0040    7.8130 O.2   194  TYR194     -0.2864
     80  CB        18.7820   92.6540    9.3790 C.3   194  TYR194      0.0560
     81  CG        19.0110   91.1840    9.5440 C.ar  194  TYR194     -0.0198
     82  CD1       19.0140   90.3400    8.4390 C.ar  194  TYR194     -0.0009
     83  CD2       19.2560   90.6350   10.7940 C.ar  194  TYR194     -0.0009
     84  CE1       19.2440   88.9850    8.5690 C.ar  194  TYR194      0.0417
     85  CE2       19.4950   89.2750   10.9420 C.ar  194  TYR194      0.0417
     86  CZ        19.4910   88.4520    9.8170 C.ar  194  TYR194      0.1957
     87  OH        19.7190   87.0920    9.9410 O.3   194  TYR194     -0.2866
     88  N         27.9010   94.1280    8.5930 N.3   221  GLY221     -0.1225
     89  CA        28.7030   93.2470    7.7510 C.3   221  GLY221      0.1811
     90  C         28.0310   92.8730    6.4450 C.2   221  GLY221      0.2280
     91  O         26.9060   93.2790    6.1680 O.2   221  GLY221     -0.2866
     92  N         27.3180   89.7510    5.4610 N.3   223  ALA223     -0.1231
     93  CA        26.7320   88.4000    5.5180 C.3   223  ALA223      0.1694
     94  C         25.3280   88.2680    4.9290 C.2   223  ALA223      0.2591
     95  O         25.0760   87.4110    4.0780 O.2   223  ALA223     -0.2718
     96  CB        26.7210   87.8850    6.9730 C.3   223  ALA223      0.0304
     97  N         24.4160   89.1090    5.3990 N.am  224  LYS224     -0.1980
     98  CA        23.0110   88.9330    5.0920 C.3   224  LYS224      0.1596
     99  C         22.5810   89.7870    3.9100 C.2   224  LYS224      0.2287
    100  O         21.9380   89.2800    2.9830 O.2   224  LYS224     -0.2864
    101  CB        22.1680   89.2150    6.3360 C.3   224  LYS224      0.0298
    102  CG        22.5520   88.3410    7.5280 C.3   224  LYS224      0.0038
    103  CD        22.3960   86.8530    7.2000 C.3   224  LYS224      0.0206
    104  CE        22.9230   85.9590    8.3060 C.3   224  LYS224      0.1093
    105  NZ        22.9280   86.6740    9.6240 N.3   224  LYS224     -0.1314
    106  N         27.5160   85.0950    3.7170 N.3   229  PRO229     -0.2116
    107  CA        27.8460   84.9420    5.1280 C.3   229  PRO229      0.1372
    108  C         29.1620   84.2250    5.3790 C.2   229  PRO229      0.2244
    109  O         29.8150   84.4760    6.3960 O.2   229  PRO229     -0.2868
    110  CB        26.6750   84.1150    5.6790 C.3   229  PRO229      0.0268
    111  CG        26.0740   83.4680    4.5040 C.3   229  PRO229      0.0207
    112  CD        26.2470   84.4260    3.3830 C.3   229  PRO229      0.0892
    113  N         33.0620   85.9360    5.8780 N.3   232  ARG232     -0.1231
    114  CA        33.6340   86.3040    7.1810 C.3   232  ARG232      0.1694
    115  C         34.1860   87.7180    7.2040 C.2   232  ARG232      0.2591
    116  O         35.3480   87.9500    7.5630 O.2   232  ARG232     -0.2718
    117  CB        34.7150   85.3080    7.6290 C.3   232  ARG232      0.0321
    118  CG        34.2940   83.8320    7.5990 C.3   232  ARG232      0.0489
    119  CD        32.8700   83.6100    8.0630 C.3   232  ARG232      0.2205
    120  NE        32.6340   84.1560    9.3990 N.pl3 232  ARG232     -0.0865
    121  CZ        31.4390   84.5140    9.8820 C.cat 232  ARG232      0.5346
    122  NH1       31.3360   84.9860   11.1230 N.pl3 232  ARG232      0.1354
    123  NH2       30.3410   84.4050    9.1420 N.pl3 232  ARG232      0.1354
    124  N         33.3430   88.6650    6.8160 N.am  233  LEU233     -0.1980
    125  CA        33.6860   90.0660    6.9510 C.3   233  LEU233      0.1596
    126  C         32.5230   90.8300    7.5570 C.2   233  LEU233      0.2287
    127  O         31.4200   90.8430    7.0120 O.2   233  LEU233     -0.2864
    128  CB        34.1160   90.6890    5.6180 C.3   233  LEU233      0.0297
    129  CG        34.7510   92.0800    5.8180 C.3   233  LEU233      0.0022
    130  CD1       35.8150   92.3830    4.7860 C.3   233  LEU233      0.0001
    131  CD2       33.7060   93.1580    5.8040 C.3   233  LEU233      0.0001
    132  N         13.1160   86.3120    8.7420 N.3   317  TYR317     -0.1241
    133  CA        12.3690   85.4000    9.5970 C.3   317  TYR317      0.1605
    134  C         11.0160   85.9790    9.9830 C.2   317  TYR317      0.2264
    135  O         10.7340   87.1600    9.7610 O.2   317  TYR317     -0.2867
    136  CB        13.1650   85.1210   10.8710 C.3   317  TYR317      0.0534
    137  CG        14.6440   85.0410   10.6150 C.ar  317  TYR317     -0.0201
    138  CD1       15.4310   86.1870   10.6440 C.ar  317  TYR317     -0.0009
    139  CD2       15.2510   83.8330   10.2930 C.ar  317  TYR317     -0.0009
    140  CE1       16.7870   86.1230   10.3810 C.ar  317  TYR317      0.0417
    141  CE2       16.6070   83.7650   10.0380 C.ar  317  TYR317      0.0417
    142  CZ        17.3680   84.9120   10.0840 C.ar  317  TYR317      0.1957
    143  OH        18.7130   84.8370    9.8240 O.3   317  TYR317     -0.2866
@<TRIPOS>BOND
     1   100    99    2
     2   112   106    1
     3   112   111    1
     4   106   107    1
     5    99    98    1
     6    95    94    2
     7   111   110    1
     8   130   129    1
     9    94    97   am
    10    94    93    1
    11    98    97    1
    12    98   101    1
    13   107   108    1
    14   107   110    1
    15   108   109    2
    16    92    93    1
    17    93    96    1
    18   128   129    1
    19   128   125    1
    20   131   129    1
    21   113   114    1
    22    91    90    2
    23   101   102    1
    24    90    89    1
    25   124   125    1
    26   124   115   am
    27   125   126    1
    28   127   126    2
    29   114   115    1
    30   114   117    1
    31   103   102    1
    32   103   104    1
    33   115   116    2
    34   118   117    1
    35   118   119    1
    36    89    88    1
    37    79    78    2
    38    71    70    2
    39   119   120    1
    40   104   105    1
    41    78    77    1
    42    82    84   ar
    43    82    81   ar
    44    84    86   ar
    45   132   133    1
    46    77    80    1
    47    77    76    1
    48   123   121    1
    49    75    73    1
    50    70    76   am
    51    70    69    1
    52    80    81    1
    53   120   121    2
    54    81    83   ar
    55   133   134    1
    56   133   136    1
    57    73    72    1
    58   135   134    2
    59    86    87    1
    60    86    85   ar
    61   143   142    1
    62   121   122    1
    63   141   142   ar
    64   141   139   ar
    65   142   140   ar
    66     1     2    1
    67   139   137   ar
    68    69    72    1
    69    69    68    1
    70   140   138   ar
    71     2     3    1
    72   137   138   ar
    73   137   136    1
    74    83    85   ar
    75    72    74    1
    76     5     3   am
    77     5     6    1
    78     3     4    2
    79     9     6    1
    80     9    10    1
    81     6     7    1
    82    59    57   am
    83    57    56    1
    84    57    58    2
    85    56    53    1
    86     7    11   am
    87     7     8    2
    88    11    12    1
    89    16    15    1
    90    53    52    1
    91    53    54    1
    92    66    65   ar
    93    62    63    2
    94    62    61    1
    95    15    12    1
    96    35    34   ar
    97    35    33   ar
    98    34    32   ar
    99    12    13    1
   100    51    49   am
   101    65    67   ar
   102    65    64    1
   103    54    55    2
   104    33    31   ar
   105    32    30   ar
   106    13    14    2
   107    61    64    1
   108    61    60    1
   109    50    49    2
   110    49    48    1
   111    46    47    2
   112    46    45    1
   113    24    22    1
   114    31    30   ar
   115    30    29    1
   116    22    21    1
   117    17    18    1
   118    45    48    1
   119    45    44    1
   120    43    41    1
   121    29    26    1
   122    21    18    1
   123    21    23    1
   124    18    19    1
   125    42    41    1
   126    26    25    1
   127    26    27    1
   128    41    40    1
   129    40    37    1
   130    19    20    2
   131    27    28    2
   132    36    37    1
   133    37    38    1
   134    38    39    2
