@<TRIPOS>MOLECULE
tmp/3dyeA00.pdb
 133 128 0 0 0
SMALL
GASTEIGER

@<TRIPOS>ATOM
      1  N         -3.8880   -2.0790   22.4770 N.3   154  PHE154     -0.1241
      2  CA        -2.9750   -2.2530   23.6080 C.3   154  PHE154      0.1605
      3  C         -2.8380   -3.7320   23.9370 C.2   154  PHE154      0.2264
      4  O         -1.7230   -4.2230   24.1300 O.2   154  PHE154     -0.2867
      5  CB        -3.4770   -1.4960   24.8390 C.3   154  PHE154      0.0534
      6  CG        -3.2700   -0.0070   24.7720 C.ar  154  PHE154     -0.0203
      7  CD1       -2.5470    0.6430   25.7630 C.ar  154  PHE154     -0.0042
      8  CD2       -3.8060    0.7500   23.7320 C.ar  154  PHE154     -0.0042
      9  CE1       -2.3590    2.0170   25.7210 C.ar  154  PHE154     -0.0003
     10  CE2       -3.6150    2.1310   23.6770 C.ar  154  PHE154     -0.0003
     11  CZ        -2.8910    2.7640   24.6760 C.ar  154  PHE154     -0.0000
     12  N          0.5150   -6.0220   23.9440 N.3   158  GLU158     -0.1245
     13  CA         0.8330   -6.6710   25.2190 C.3   158  GLU158      0.1567
     14  C          0.9710   -8.1860   25.0550 C.2   158  GLU158      0.2260
     15  O          1.9010   -8.7890   25.5950 O.2   158  GLU158     -0.2867
     16  CB        -0.2400   -6.3570   26.2610 C.3   158  GLU158      0.0388
     17  CG        -0.1900   -4.9290   26.8060 C.3   158  GLU158      0.1160
     18  CD        -1.3780   -4.5920   27.6850 C.2   158  GLU158      0.3649
     19  OE1       -2.3040   -5.4230   27.7970 O.co2 158  GLU158     -0.2457
     20  OE2       -1.3820   -3.4860   28.2550 O.co2 158  GLU158     -0.2457
     21  N          3.7510   -2.0440   33.7720 N.3   175  ILE175     -0.1231
     22  CA         3.5970   -1.3830   32.4740 C.3   175  ILE175      0.1692
     23  C          2.2590   -0.6540   32.3890 C.2   175  ILE175      0.2591
     24  O          2.2060    0.5220   32.0100 O.2   175  ILE175     -0.2718
     25  CB         3.7980   -2.3720   31.2930 C.3   175  ILE175      0.0266
     26  CG1        5.2870   -2.7280   31.1790 C.3   175  ILE175      0.0019
     27  CG2        3.3050   -1.7700   29.9710 C.3   175  ILE175      0.0020
     28  CD1        5.5890   -3.9310   30.3280 C.3   175  ILE175      0.0001
     29  N          1.1910   -1.3400   32.7810 N.am  176  ARG176     -0.1980
     30  CA        -0.1530   -0.7600   32.7000 C.3   176  ARG176      0.1597
     31  C         -0.3850    0.3790   33.7020 C.2   176  ARG176      0.2287
     32  O         -1.3780    1.1140   33.6000 O.2   176  ARG176     -0.2864
     33  CB        -1.2240   -1.8520   32.8170 C.3   176  ARG176      0.0334
     34  CG        -1.2590   -2.7840   31.6020 C.3   176  ARG176      0.0492
     35  CD        -2.5150   -3.6410   31.5530 C.3   176  ARG176      0.2205
     36  NE        -3.7240   -2.8190   31.5650 N.pl3 176  ARG176     -0.0865
     37  CZ        -4.2570   -2.2250   30.4970 C.cat 176  ARG176      0.5346
     38  NH1       -3.6960   -2.3480   29.2960 N.pl3 176  ARG176      0.1354
     39  NH2       -5.3580   -1.5010   30.6400 N.pl3 176  ARG176      0.1354
     40  N          1.7820    2.8300   33.9000 N.3   178  TYR178     -0.1241
     41  CA         2.6610    3.8480   33.2990 C.3   178  TYR178      0.1605
     42  C          4.0980    3.8670   33.8270 C.2   178  TYR178      0.2264
     43  O          4.7590    4.9110   33.8230 O.2   178  TYR178     -0.2867
     44  CB         2.0160    5.2390   33.3610 C.3   178  TYR178      0.0534
     45  CG         0.7970    5.3400   32.4830 C.ar  178  TYR178     -0.0201
     46  CD1        0.9130    5.6660   31.1310 C.ar  178  TYR178     -0.0009
     47  CD2       -0.4740    5.0830   32.9950 C.ar  178  TYR178     -0.0009
     48  CE1       -0.1980    5.7510   30.3120 C.ar  178  TYR178      0.0417
     49  CE2       -1.5990    5.1620   32.1830 C.ar  178  TYR178      0.0417
     50  CZ        -1.4570    5.5050   30.8450 C.ar  178  TYR178      0.1957
     51  OH        -2.5670    5.5720   30.0400 O.3   178  TYR178     -0.2866
     52  N         10.6840   -3.6630   26.0070 N.3   186  PHE186     -0.1241
     53  CA         9.7290   -2.5920   26.2800 C.3   186  PHE186      0.1605
     54  C          9.7270   -1.5230   25.1950 C.2   186  PHE186      0.2264
     55  O          8.6740   -0.9930   24.8510 O.2   186  PHE186     -0.2867
     56  CB         9.9650   -1.9420   27.6430 C.3   186  PHE186      0.0534
     57  CG         8.9240   -0.9120   27.9980 C.ar  186  PHE186     -0.0203
     58  CD1        7.6270   -1.3020   28.3100 C.ar  186  PHE186     -0.0042
     59  CD2        9.2430    0.4490   28.0190 C.ar  186  PHE186     -0.0042
     60  CE1        6.6480   -0.3520   28.6410 C.ar  186  PHE186     -0.0003
     61  CE2        8.2860    1.4050   28.3520 C.ar  186  PHE186     -0.0003
     62  CZ         6.9790    1.0060   28.6630 C.ar  186  PHE186     -0.0000
     63  N          7.7330   -2.9600   22.3860 N.3   189  HIS189     -0.1226
     64  CA         6.3280   -2.9350   22.7660 C.3   189  HIS189      0.1752
     65  C          5.7470   -1.5240   22.6160 C.2   189  HIS189      0.2596
     66  O          4.6690   -1.3400   22.0580 O.2   189  HIS189     -0.2718
     67  CB         6.1630   -3.4360   24.2020 C.3   189  HIS189      0.0759
     68  CG         4.8100   -3.1600   24.7820 C.ar  189  HIS189      0.0818
     69  ND1        3.6840   -3.8660   24.4130 N.ar  189  HIS189     -0.2268
     70  CD2        4.3990   -2.2410   25.6860 C.ar  189  HIS189      0.1154
     71  CE1        2.6400   -3.3980   25.0700 C.ar  189  HIS189      0.1986
     72  NE2        3.0450   -2.4070   25.8460 N.ar  189  HIS189     -0.2212
     73  N          6.4770   -0.5320   23.1140 N.am  190  THR190     -0.1953
     74  CA         6.0220    0.8490   23.0620 C.3   190  THR190      0.1897
     75  C          5.9410    1.3420   21.6140 C.2   190  THR190      0.2313
     76  O          5.0450    2.1130   21.2640 O.2   190  THR190     -0.2863
     77  CB         6.8980    1.7510   23.9570 C.3   190  THR190      0.1794
     78  OG1        6.8110    1.2730   25.3070 O.3   190  THR190     -0.2208
     79  CG2        6.4140    3.1840   23.9200 C.3   190  THR190      0.0378
     80  N          2.6490   -0.0150   20.3210 N.3   193  VAL193     -0.1245
     81  CA         1.4860    0.7350   20.8090 C.3   193  VAL193      0.1561
     82  C          1.4180    2.1080   20.1380 C.2   193  VAL193      0.2260
     83  O          0.3750    2.4900   19.6040 O.2   193  VAL193     -0.2867
     84  CB         1.4690    0.8690   22.3620 C.3   193  VAL193      0.0252
     85  CG1        0.3030    1.7460   22.8230 C.3   193  VAL193      0.0019
     86  CG2        1.3570   -0.5080   23.0100 C.3   193  VAL193      0.0019
     87  N          6.9190    8.4210   24.3140 N.3   248  TYR248     -0.1241
     88  CA         6.1210    7.8590   25.3980 C.3   248  TYR248      0.1605
     89  C          6.7160    8.2430   26.7600 C.2   248  TYR248      0.2264
     90  O          6.0190    8.7770   27.6270 O.2   248  TYR248     -0.2867
     91  CB         6.0270    6.3380   25.2640 C.3   248  TYR248      0.0534
     92  CG         5.2710    5.6840   26.3970 C.ar  248  TYR248     -0.0201
     93  CD1        3.8820    5.7100   26.4360 C.ar  248  TYR248     -0.0009
     94  CD2        5.9530    5.0420   27.4370 C.ar  248  TYR248     -0.0009
     95  CE1        3.1830    5.1090   27.4810 C.ar  248  TYR248      0.0417
     96  CE2        5.2660    4.4430   28.4890 C.ar  248  TYR248      0.0417
     97  CZ         3.8850    4.4820   28.5040 C.ar  248  TYR248      0.1957
     98  OH         3.2090    3.8870   29.5440 O.3   248  TYR248     -0.2866
     99  N         -4.7200    8.7260   26.9570 N.3   264  PHE264     -0.1227
    100  CA        -4.1890    7.4260   26.5140 C.3   264  PHE264      0.1736
    101  C         -5.1400    6.3120   26.9590 C.2   264  PHE264      0.2595
    102  O         -5.4280    5.3910   26.1890 O.2   264  PHE264     -0.2718
    103  CB        -2.7940    7.2320   27.1250 C.3   264  PHE264      0.0547
    104  CG        -1.8240    6.4250   26.2820 C.ar  264  PHE264     -0.0202
    105  CD1       -1.4740    6.8260   24.9920 C.ar  264  PHE264     -0.0042
    106  CD2       -1.2070    5.2970   26.8190 C.ar  264  PHE264     -0.0042
    107  CE1       -0.5450    6.0950   24.2380 C.ar  264  PHE264     -0.0003
    108  CE2       -0.2710    4.5660   26.0750 C.ar  264  PHE264     -0.0003
    109  CZ         0.0540    4.9670   24.7810 C.ar  264  PHE264     -0.0000
    110  N         -5.6330    6.4080   28.1980 N.am  265  ASP265     -0.1974
    111  CA        -6.6320    5.4620   28.7250 C.3   265  ASP265      0.1709
    112  C         -7.9110    5.4360   27.8820 C.2   265  ASP265      0.2293
    113  O         -8.4260    4.3660   27.5550 O.2   265  ASP265     -0.2864
    114  CB        -6.9880    5.7740   30.1890 C.3   265  ASP265      0.1436
    115  CG        -5.9140    5.3220   31.1790 C.2   265  ASP265      0.3671
    116  OD1       -4.9340    4.6470   30.7850 O.co2 265  ASP265     -0.2456
    117  OD2       -6.0580    5.6460   32.3770 O.co2 265  ASP265     -0.2456
    118  N         -7.2050    3.7900   24.5470 N.3   268  GLU268     -0.1245
    119  CA        -7.2190    2.3280   24.7170 C.3   268  GLU268      0.1567
    120  C         -8.6340    1.7620   24.5750 C.2   268  GLU268      0.2260
    121  O         -8.8480    0.7970   23.8400 O.2   268  GLU268     -0.2867
    122  CB        -6.6210    1.9210   26.0630 C.3   268  GLU268      0.0388
    123  CG        -6.4190    0.4080   26.1950 C.3   268  GLU268      0.1160
    124  CD        -6.0000   -0.0410   27.5830 C.2   268  GLU268      0.3649
    125  OE1       -5.7650    0.8120   28.4630 O.co2 268  GLU268     -0.2457
    126  OE2       -5.9030   -1.2690   27.7950 O.co2 268  GLU268     -0.2457
    127  N        -10.8850    0.5830   32.2440 N.3   293  VAL293     -0.1245
    128  CA        -9.4310    0.4140   32.2000 C.3   293  VAL293      0.1561
    129  C         -8.9240   -0.3740   33.4140 C.2   293  VAL293      0.2260
    130  O         -8.0170   -1.1970   33.2840 O.2   293  VAL293     -0.2867
    131  CB        -8.7000    1.7770   32.0340 C.3   293  VAL293      0.0252
    132  CG1       -7.1910    1.6280   32.1880 C.3   293  VAL293      0.0019
    133  CG2       -9.0230    2.3830   30.6740 C.3   293  VAL293      0.0019
@<TRIPOS>BOND
     1    83    82    2
     2    82    81    1
     3    80    81    1
     4    81    84    1
     5    76    75    2
     6    75    74    1
     7    66    65    2
     8    84    85    1
     9    84    86    1
    10    63    64    1
    11     1     2    1
    12    65    64    1
    13    65    73   am
    14    64    67    1
    15    74    73    1
    16    74    77    1
    17     2     3    1
    18     2     5    1
    19    10     8   ar
    20    10    11   ar
    21     8     6   ar
    22   121   120    2
    23    79    77    1
    24     3     4    2
    25    12    13    1
    26    77    78    1
    27    67    68    1
    28   107   109   ar
    29   107   105   ar
    30    87    88    1
    31    69    68   ar
    32    69    71   ar
    33   118   119    1
    34   120   119    1
    35    11     9   ar
    36   119   122    1
    37     6     5    1
    38     6     7   ar
    39   109   108   ar
    40    68    70   ar
    41    55    54    2
    42   105   104   ar
    43    14    13    1
    44    14    15    2
    45    71    72   ar
    46    54    53    1
    47    13    16    1
    48    91    88    1
    49    91    92    1
    50    88    89    1
    51    70    72   ar
    52     9     7   ar
    53    52    53    1
    54   122   123    1
    55   108   106   ar
    56   102   101    2
    57   123   124    1
    58    16    17    1
    59    53    56    1
    60   104   106   ar
    61   104   103    1
    62    92    93   ar
    63    92    94   ar
    64    93    95   ar
    65   100    99    1
    66   100   101    1
    67   100   103    1
    68    89    90    2
    69    17    18    1
    70   101   110   am
    71    94    96   ar
    72    95    97   ar
    73   113   112    2
    74   124   126   ar
    75   124   125   ar
    76    56    57    1
    77    18    19   ar
    78    18    20   ar
    79   112   111    1
    80    57    59   ar
    81    57    58   ar
    82    59    61   ar
    83   110   111    1
    84    58    60   ar
    85    61    62   ar
    86    96    97   ar
    87    97    98    1
    88    60    62   ar
    89   111   114    1
    90    38    37    1
    91    27    25    1
    92    51    50    1
    93   114   115    1
    94    48    50   ar
    95    48    46   ar
    96    28    26    1
    97    37    39    1
    98    37    36    2
    99   133   131    1
   100   116   115   ar
   101    50    49   ar
   102    46    45   ar
   103    26    25    1
   104   115   117   ar
   105    25    22    1
   106    35    36    1
   107    35    34    1
   108    34    33    1
   109    24    23    2
   110   131   132    1
   111   131   128    1
   112    49    47   ar
   113   128   127    1
   114   128   129    1
   115    23    22    1
   116    23    29   am
   117    22    21    1
   118    45    47   ar
   119    45    44    1
   120    30    29    1
   121    30    33    1
   122    30    31    1
   123   130   129    2
   124    41    44    1
   125    41    42    1
   126    41    40    1
   127    32    31    2
   128    43    42    2
