@<TRIPOS>MOLECULE
tmp/3dyfB01.pdb
 166 158 0 0 0
SMALL
GASTEIGER

@<TRIPOS>ATOM
      1  N         20.8750   16.6640   28.4540 N.3    46  GLY46      -0.1210
      2  CA        20.3370   15.5960   29.2720 C.3    46  GLY46       0.1956
      3  C         19.8870   14.4390   28.4070 C.2    46  GLY46       0.2612
      4  O         20.2100   14.3820   27.2200 O.2    46  GLY46      -0.2717
      5  N         19.1430   13.5140   29.0030 N.am   47  LYS47      -0.1965
      6  CA        18.6410   12.3600   28.2790 C.3    47  LYS47       0.1728
      7  C         17.2660   12.6400   27.6770 C.2    47  LYS47       0.2616
      8  O         16.7960   11.9020   26.8130 O.2    47  LYS47      -0.2715
      9  CB        18.5870   11.1480   29.2050 C.3    47  LYS47       0.0311
     10  CG        19.9630   10.6150   29.5760 C.3    47  LYS47       0.0038
     11  CD        19.8600    9.3660   30.4290 C.3    47  LYS47       0.0206
     12  CE        19.3240    9.6850   31.8130 C.3    47  LYS47       0.1093
     13  NZ        20.2680   10.5590   32.5610 N.3    47  LYS47      -0.1314
     14  N         16.6290   13.7130   28.1380 N.am   48  TYR48      -0.1960
     15  CA        15.3170   14.1230   27.6370 C.3    48  TYR48       0.1771
     16  C         14.2230   13.0850   27.8660 C.2    48  TYR48       0.2620
     17  O         13.2170   13.0740   27.1640 O.2    48  TYR48      -0.2715
     18  CB        15.4040   14.4310   26.1390 C.3    48  TYR48       0.0574
     19  CG        16.4930   15.4080   25.7540 C.ar   48  TYR48      -0.0198
     20  CD1       16.3350   16.7740   25.9570 C.ar   48  TYR48      -0.0009
     21  CD2       17.6850   14.9630   25.1840 C.ar   48  TYR48      -0.0009
     22  CE1       17.3410   17.6780   25.6000 C.ar   48  TYR48       0.0417
     23  CE2       18.6960   15.8550   24.8260 C.ar   48  TYR48       0.0417
     24  CZ        18.5170   17.2110   25.0360 C.ar   48  TYR48       0.1957
     25  OH        19.5060   18.1000   24.6840 O.3    48  TYR48      -0.2866
     26  N         14.4070   12.2150   28.8470 N.am   49  ASN49      -0.1958
     27  CA        13.4060   11.1960   29.1170 C.3    49  ASN49       0.1819
     28  C         12.0590   11.7850   29.5150 C.2    49  ASN49       0.2621
     29  O         11.0300   11.4380   28.9350 O.2    49  ASN49      -0.2715
     30  CB        13.9030   10.2470   30.2070 C.3    49  ASN49       0.1195
     31  CG        14.9210    9.2470   29.6860 C.2    49  ASN49       0.2630
     32  OD1       15.6790    8.6580   30.4560 O.2    49  ASN49      -0.2716
     33  ND2       14.9320    9.0420   28.3770 N.am   49  ASN49      -0.0877
     34  N         12.0630   12.6780   30.4970 N.am   50  ARG50      -0.1977
     35  CA        10.8250   13.2920   30.9600 C.3    50  ARG50       0.1597
     36  C         10.1000   13.9880   29.8150 C.2    50  ARG50       0.2287
     37  O          8.9000   13.8050   29.6300 O.2    50  ARG50      -0.2864
     38  CB        11.1220   14.2980   32.0720 C.3    50  ARG50       0.0334
     39  CG        11.9470   13.7270   33.2090 C.3    50  ARG50       0.0492
     40  CD        12.2950   14.7980   34.2240 C.3    50  ARG50       0.2205
     41  NE        13.2660   14.3310   35.2080 N.pl3  50  ARG50      -0.0865
     42  CZ        14.5080   13.9550   34.9170 C.cat  50  ARG50       0.5346
     43  NH1       14.9430   13.9860   33.6640 N.pl3  50  ARG50       0.1354
     44  NH2       15.3200   13.5590   35.8840 N.pl3  50  ARG50       0.1354
     45  N         11.3770   19.8000   31.2520 N.3    84  GLU84      -0.1245
     46  CA        12.8190   19.8720   31.0490 C.3    84  GLU84       0.1567
     47  C         13.3620   21.1380   31.7030 C.2    84  GLU84       0.2260
     48  O         14.4390   21.1280   32.2930 O.2    84  GLU84      -0.2867
     49  CB        13.1450   19.8780   29.5560 C.3    84  GLU84       0.0388
     50  CG        12.9380   18.5400   28.8710 C.3    84  GLU84       0.1160
     51  CD        13.8610   17.4590   29.4140 C.2    84  GLU84       0.3649
     52  OE1       15.0640   17.7410   29.5800 O.co2  84  GLU84      -0.2457
     53  OE2       13.3950   16.3260   29.6630 O.co2  84  GLU84      -0.2457
     54  N         13.2850   20.6310   35.3200 N.3    87  GLN87      -0.1245
     55  CA        14.3630   19.7150   35.6510 C.3    87  GLN87       0.1566
     56  C         15.6400   20.5350   35.6980 C.2    87  GLN87       0.2260
     57  O         16.5150   20.3090   36.5310 O.2    87  GLN87      -0.2867
     58  CB        14.4880   18.6430   34.5700 C.3    87  GLN87       0.0367
     59  CG        15.8820   18.0580   34.4410 C.3    87  GLN87       0.0905
     60  CD        16.2150   17.0850   35.5420 C.2    87  GLN87       0.2608
     61  OE1       15.8840   17.3060   36.7030 O.2    87  GLN87      -0.2717
     62  NE2       16.8860   16.0000   35.1850 N.am   87  GLN87      -0.0878
     63  N         18.1460   21.1910   38.8600 N.3    91  LEU91      -0.1245
     64  CA        19.5030   20.7090   38.7090 C.3    91  LEU91       0.1561
     65  C         20.4990   21.8180   39.0150 C.2    91  LEU91       0.2260
     66  O         21.5420   21.5670   39.6110 O.2    91  LEU91      -0.2867
     67  CB        19.7080   20.1560   37.3020 C.3    91  LEU91       0.0270
     68  CG        19.7350   18.6300   37.2130 C.3    91  LEU91       0.0019
     69  CD1       18.7650   18.0130   38.2040 C.3    91  LEU91       0.0001
     70  CD2       19.4220   18.2110   35.7940 C.3    91  LEU91       0.0001
     71  N         28.2220   18.4880   35.4640 N.3   103  ARG103     -0.1231
     72  CA        26.8760   18.1260   35.0460 C.3   103  ARG103      0.1694
     73  C         26.8110   17.9410   33.5370 C.2   103  ARG103      0.2591
     74  O         27.1980   18.8260   32.7760 O.2   103  ARG103     -0.2718
     75  CB        25.8770   19.2090   35.4540 C.3   103  ARG103      0.0321
     76  CG        24.4760   18.9670   34.9140 C.3   103  ARG103      0.0489
     77  CD        23.8170   17.7980   35.6070 C.3   103  ARG103      0.2205
     78  NE        23.4780   18.1380   36.9820 N.pl3 103  ARG103     -0.0865
     79  CZ        22.9040   17.3090   37.8470 C.cat 103  ARG103      0.5346
     80  NH1       22.5980   16.0660   37.4990 N.pl3 103  ARG103      0.1354
     81  NH2       22.6220   17.7420   39.0650 N.pl3 103  ARG103      0.1354
     82  N         26.3180   16.7830   33.1130 N.am  104  ARG104     -0.1980
     83  CA        26.1760   16.4710   31.6960 C.3   104  ARG104      0.1597
     84  C         27.4400   16.7350   30.8790 C.2   104  ARG104      0.2287
     85  O         27.3880   17.3360   29.8070 O.2   104  ARG104     -0.2864
     86  CB        25.0040   17.2660   31.1150 C.3   104  ARG104      0.0334
     87  CG        23.6590   16.9380   31.7420 C.3   104  ARG104      0.0492
     88  CD        22.5940   17.8880   31.2330 C.3   104  ARG104      0.2205
     89  NE        21.2880   17.6640   31.8450 N.pl3 104  ARG104     -0.0865
     90  CZ        20.2940   18.5410   31.7960 C.cat 104  ARG104      0.5346
     91  NH1       20.4640   19.6930   31.1650 N.pl3 104  ARG104      0.1354
     92  NH2       19.1390   18.2750   32.3810 N.pl3 104  ARG104      0.1354
     93  N         11.7890   12.8470   43.5200 N.3   204  THR204     -0.1218
     94  CA        11.9540   12.3560   42.1560 C.3   204  THR204      0.1862
     95  C         10.7490   11.7370   41.4460 C.2   204  THR204      0.2287
     96  O         10.3180   12.2270   40.4020 O.2   204  THR204     -0.2866
     97  CB        13.1120   11.3570   42.0880 C.3   204  THR204      0.1770
     98  OG1       14.3160   12.0040   42.5080 O.3   204  THR204     -0.2211
     99  CG2       13.2930   10.8460   40.6780 C.3   204  THR204      0.0375
    100  N          8.0200   14.2740   39.6110 N.3   207  TYR207     -0.1227
    101  CA         8.3880   15.0910   38.4700 C.3   207  TYR207      0.1736
    102  C          9.1340   14.3430   37.3890 C.2   207  TYR207      0.2596
    103  O          9.2770   14.8430   36.2750 O.2   207  TYR207     -0.2718
    104  CB         9.2050   16.3080   38.9220 C.3   207  TYR207      0.0548
    105  CG        10.7090   16.1440   38.8730 C.ar  207  TYR207     -0.0200
    106  CD1       11.3970   15.4630   39.8760 C.ar  207  TYR207     -0.0009
    107  CD2       11.4490   16.7060   37.8320 C.ar  207  TYR207     -0.0009
    108  CE1       12.7910   15.3530   39.8450 C.ar  207  TYR207      0.0417
    109  CE2       12.8310   16.6010   37.7910 C.ar  207  TYR207      0.0417
    110  CZ        13.4960   15.9280   38.7980 C.ar  207  TYR207      0.1957
    111  OH        14.8680   15.8470   38.7540 O.3   207  TYR207     -0.2866
    112  N          9.6100   13.1480   37.7060 N.am  208  THR208     -0.1953
    113  CA        10.3450   12.3690   36.7240 C.3   208  THR208      0.1897
    114  C          9.4780   11.2720   36.1320 C.2   208  THR208      0.2313
    115  O          9.7210   10.8230   35.0130 O.2   208  THR208     -0.2863
    116  CB        11.6060   11.7280   37.3420 C.3   208  THR208      0.1794
    117  OG1       12.4120   12.7430   37.9480 O.3   208  THR208     -0.2208
    118  CG2       12.4290   11.0310   36.2690 C.3   208  THR208      0.0378
    119  N         14.5860    4.4660   39.7770 N.3   242  PHE242     -0.1227
    120  CA        15.4080    5.4050   39.0190 C.3   242  PHE242      0.1736
    121  C         16.3930    6.1320   39.9260 C.2   242  PHE242      0.2595
    122  O         17.5400    6.3840   39.5480 O.2   242  PHE242     -0.2718
    123  CB        14.5050    6.4280   38.3230 C.3   242  PHE242      0.0547
    124  CG        15.2370    7.3930   37.4360 C.ar  242  PHE242     -0.0202
    125  CD1       15.8490    6.9600   36.2670 C.ar  242  PHE242     -0.0042
    126  CD2       15.2920    8.7480   37.7570 C.ar  242  PHE242     -0.0042
    127  CE1       16.5050    7.8620   35.4260 C.ar  242  PHE242     -0.0003
    128  CE2       15.9470    9.6580   36.9210 C.ar  242  PHE242     -0.0003
    129  CZ        16.5540    9.2110   35.7530 C.ar  242  PHE242     -0.0000
    130  N         15.9320    6.4690   41.1260 N.am  243  GLN243     -0.1979
    131  CA        16.7630    7.1780   42.0860 C.3   243  GLN243      0.1601
    132  C         17.8100    6.2500   42.6720 C.2   243  GLN243      0.2287
    133  O         18.9720    6.6270   42.8040 O.2   243  GLN243     -0.2864
    134  CB        15.9000    7.7710   43.1990 C.3   243  GLN243      0.0394
    135  CG        16.6590    8.6930   44.1260 C.3   243  GLN243      0.0908
    136  CD        17.3950    9.7960   43.3830 C.2   243  GLN243      0.2608
    137  OE1       16.7830   10.6330   42.7220 O.2   243  GLN243     -0.2717
    138  NE2       18.7190    9.7970   43.4880 N.am  243  GLN243     -0.0878
    139  N         20.3700    6.1410   40.4410 N.3   246  ASP246     -0.1239
    140  CA        21.1340    7.3780   40.5210 C.3   246  ASP246      0.1674
    141  C         22.1670    7.3120   41.6460 C.2   246  ASP246      0.2266
    142  O         23.3090    7.7380   41.4760 O.2   246  ASP246     -0.2867
    143  CB        20.1870    8.5590   40.7520 C.3   246  ASP246      0.1410
    144  CG        20.9220    9.8710   40.9640 C.2   246  ASP246      0.3668
    145  OD1       21.6940   10.2810   40.0760 O.co2 246  ASP246     -0.2456
    146  OD2       20.7240   10.5000   42.0220 O.co2 246  ASP246     -0.2456
    147  N         28.6200   13.3810   35.4170 N.3   260  LYS260     -0.1245
    148  CA        28.7320   14.1680   36.6470 C.3   260  LYS260      0.1561
    149  C         29.5810   13.4260   37.6840 C.2   260  LYS260      0.2260
    150  O         29.6720   12.1980   37.6530 O.2   260  LYS260     -0.2867
    151  CB        27.3430   14.4280   37.2260 C.3   260  LYS260      0.0271
    152  CG        26.6060   13.1620   37.6290 C.3   260  LYS260      0.0035
    153  CD        25.1320   13.4210   37.8450 C.3   260  LYS260      0.0206
    154  CE        24.3820   12.1310   38.1010 C.3   260  LYS260      0.1093
    155  NZ        22.9110   12.3170   37.9960 N.3   260  LYS260     -0.1314
    156  N         19.4110    1.0960   33.0000 N.3   356  ARG356     -0.1245
    157  CA        19.9550    2.2680   32.3250 C.3   356  ARG356      0.1563
    158  C         21.4730    2.3040   32.5190 C.2   356  ARG356      0.2260
    159  O         21.9910    1.8060   33.5220 O.2   356  ARG356     -0.2867
    160  CB        19.3290    3.5370   32.9100 C.3   356  ARG356      0.0307
    161  CG        19.4480    3.5920   34.4250 C.3   356  ARG356      0.0489
    162  CD        18.6820    4.7380   35.0650 C.3   356  ARG356      0.2205
    163  NE        19.3240    6.0260   34.8540 N.pl3 356  ARG356     -0.0865
    164  CZ        19.3860    6.9820   35.7720 C.cat 356  ARG356      0.5346
    165  NH1       18.8460    6.7880   36.9680 N.pl3 356  ARG356      0.1354
    166  NH2       19.9790    8.1340   35.4910 N.pl3 356  ARG356      0.1354
@<TRIPOS>BOND
     1    25    24    1
     2    23    24   ar
     3    23    21   ar
     4    24    22   ar
     5    21    19   ar
     6    22    20   ar
     7    19    20   ar
     8    19    18    1
     9    18    15    1
    10     8     7    2
    11    17    16    2
    12     4     3    2
    13    15    16    1
    14    15    14    1
    15     7    14   am
    16     7     6    1
    17    16    26   am
    18     6     5    1
    19     6     9    1
    20    33    31   am
    21     3     5   am
    22     3     2    1
    23     1     2    1
    24    26    27    1
    25    50    51    1
    26    50    49    1
    27    29    28    2
    28    27    28    1
    29    27    30    1
    30     9    10    1
    31    51    52   ar
    32    51    53   ar
    33    28    34   am
    34    49    46    1
    35    10    11    1
    36    37    36    2
    37    31    30    1
    38    31    32    2
    39    85    84    2
    40    36    35    1
    41    11    12    1
    42    34    35    1
    43    84    83    1
    44    35    38    1
    45    46    45    1
    46    46    47    1
    47    86    83    1
    48    86    87    1
    49    91    90    1
    50    88    87    1
    51    88    89    1
    52    83    82    1
    53    47    48    2
    54    90    89    2
    55    90    92    1
    56    12    13    1
    57    38    39    1
    58   157   158    1
    59   157   160    1
    60   157   156    1
    61   158   159    2
    62    74    73    2
    63   160   161    1
    64    82    73   am
    65    39    40    1
    66    73    72    1
    67    43    42    1
    68    40    41    1
    69   161   162    1
    70    59    58    1
    71    59    60    1
    72    58    55    1
    73   163   162    1
    74   163   164    2
    75    76    75    1
    76    76    77    1
    77    42    41    2
    78    42    44    1
    79   115   114    2
    80    72    75    1
    81    72    71    1
    82    62    60   am
    83    54    55    1
    84   147   148    1
    85   127   129   ar
    86   127   125   ar
    87   166   164    1
    88    60    61    2
    89    77    78    1
    90    55    56    1
    91    56    57    2
    92   129   128   ar
    93   164   165    1
    94    70    68    1
    95   114   113    1
    96   125   124   ar
    97   118   116    1
    98   103   102    2
    99   148   151    1
   100   148   149    1
   101   113   116    1
   102   113   112    1
   103   128   126   ar
   104    78    79    2
   105    68    67    1
   106    68    69    1
   107   151   152    1
   108    67    64    1
   109   116   117    1
   110   102   112   am
   111   102   101    1
   112   124   126   ar
   113   124   123    1
   114    80    79    1
   115   152   153    1
   116   150   149    2
   117   109   107   ar
   118   109   110   ar
   119   107   105   ar
   120   153   154    1
   121    79    81    1
   122   155   154    1
   123   123   120    1
   124   101   104    1
   125   101   100    1
   126    64    63    1
   127    64    65    1
   128   111   110    1
   129   110   108   ar
   130   105   104    1
   131   105   106   ar
   132    65    66    2
   133   120   119    1
   134   120   121    1
   135   122   121    2
   136   108   106   ar
   137   121   130   am
   138   145   144   ar
   139    96    95    2
   140   139   140    1
   141   140   143    1
   142   140   141    1
   143    99    97    1
   144   143   144    1
   145   144   146   ar
   146   130   131    1
   147    95    94    1
   148   142   141    2
   149   131   132    1
   150   131   134    1
   151    97    94    1
   152    97    98    1
   153    94    93    1
   154   132   133    2
   155   137   136    2
   156   134   135    1
   157   136   138   am
   158   136   135    1
