@<TRIPOS>MOLECULE
tmp/3dygB00.pdb
 182 167 0 0 0
SMALL
GASTEIGER

@<TRIPOS>ATOM
      1  N         31.9960  -46.4470   28.4100 N.3    50  ARG50      -0.1245
      2  CA        33.1990  -45.9010   27.7990 C.3    50  ARG50       0.1563
      3  C         34.0170  -45.1930   28.8810 C.2    50  ARG50       0.2260
      4  O         35.2270  -45.3920   29.0000 O.2    50  ARG50      -0.2867
      5  CB        32.8370  -44.9270   26.6740 C.3    50  ARG50       0.0307
      6  CG        32.1030  -45.5790   25.4920 C.3    50  ARG50       0.0489
      7  CD        31.6450  -44.5300   24.4820 C.3    50  ARG50       0.2205
      8  NE        30.9310  -45.0730   23.3190 N.pl3  50  ARG50      -0.0865
      9  CZ        29.7240  -45.6450   23.3510 C.cat  50  ARG50       0.5346
     10  NH1       29.0540  -45.7790   24.4900 N.pl3  50  ARG50       0.1354
     11  NH2       29.1630  -46.0500   22.2170 N.pl3  50  ARG50       0.1354
     12  N         28.3280  -36.3100   19.6340 N.3    90  TYR90      -0.1227
     13  CA        27.9660  -37.0590   18.4460 C.3    90  TYR90       0.1736
     14  C         26.5020  -37.5100   18.4820 C.2    90  TYR90       0.2595
     15  O         25.8080  -37.4310   17.4740 O.2    90  TYR90      -0.2718
     16  CB        28.9280  -38.2410   18.2490 C.3    90  TYR90       0.0548
     17  CG        30.1360  -37.8450   17.4310 C.ar   90  TYR90      -0.0200
     18  CD1       29.9830  -37.3980   16.1120 C.ar   90  TYR90      -0.0009
     19  CD2       31.4210  -37.8390   17.9820 C.ar   90  TYR90      -0.0009
     20  CE1       31.0640  -36.9500   15.3700 C.ar   90  TYR90       0.0417
     21  CE2       32.5170  -37.3920   17.2410 C.ar   90  TYR90       0.0417
     22  CZ        32.3260  -36.9460   15.9370 C.ar   90  TYR90       0.1957
     23  OH        33.3800  -36.4670   15.1970 O.3    90  TYR90      -0.2866
     24  N         26.0350  -37.9450   19.6510 N.am   91  LEU91      -0.1980
     25  CA        24.6570  -38.3880   19.8150 C.3    91  LEU91       0.1596
     26  C         23.6480  -37.2780   19.5240 C.2    91  LEU91       0.2287
     27  O         22.6140  -37.5280   18.9020 O.2    91  LEU91      -0.2864
     28  CB        24.4360  -38.9120   21.2340 C.3    91  LEU91       0.0297
     29  CG        24.4990  -40.4150   21.5210 C.3    91  LEU91       0.0022
     30  CD1       25.7200  -41.0370   20.9050 C.3    91  LEU91       0.0001
     31  CD2       24.4670  -40.6210   23.0310 C.3    91  LEU91       0.0001
     32  N         23.8320  -36.8030   15.7640 N.3    94  ASP94      -0.1239
     33  CA        23.3700  -38.0410   15.1480 C.3    94  ASP94       0.1674
     34  C         21.8460  -38.1640   15.1840 C.2    94  ASP94       0.2266
     35  O         21.2230  -38.5190   14.1880 O.2    94  ASP94      -0.2867
     36  CB        23.9760  -39.2530   15.8480 C.3    94  ASP94       0.1410
     37  CG        23.4600  -40.5520   15.2830 C.2    94  ASP94       0.3668
     38  OD1       23.8960  -40.9460   14.1890 O.co2  94  ASP94      -0.2456
     39  OD2       22.5950  -41.1700   15.9170 O.co2  94  ASP94      -0.2456
     40  N         19.7270  -38.6280   12.0700 N.3    98  ASP98      -0.1239
     41  CA        18.9680  -39.8700   11.8980 C.3    98  ASP98       0.1674
     42  C         17.4670  -39.6860   12.1050 C.2    98  ASP98       0.2266
     43  O         16.6910  -40.6450   11.9940 O.2    98  ASP98      -0.2867
     44  CB        19.4750  -40.9540   12.8600 C.3    98  ASP98       0.1410
     45  CG        20.9290  -41.3310   12.6100 C.2    98  ASP98       0.3668
     46  OD1       21.4200  -41.0840   11.4880 O.co2  98  ASP98      -0.2456
     47  OD2       21.5750  -41.8800   13.5320 O.co2  98  ASP98      -0.2456
     48  N         15.7680  -39.2820   14.7730 N.3   100  SER100     -0.1217
     49  CA        15.2670  -40.1050   15.8670 C.3   100  SER100      0.1889
     50  C         14.2940  -39.3220   16.7330 C.2   100  SER100      0.2288
     51  O         14.2820  -38.0890   16.7160 O.2   100  SER100     -0.2866
     52  CB        16.4300  -40.6180   16.7320 C.3   100  SER100      0.2089
     53  OG        17.2530  -41.5210   16.0150 O.3   100  SER100     -0.2183
     54  N         15.7930  -41.2240   23.0440 N.3   103  ARG103     -0.1245
     55  CA        17.0600  -41.8250   23.4360 C.3   103  ARG103      0.1563
     56  C         17.0610  -41.9620   24.9620 C.2   103  ARG103      0.2260
     57  O         16.6300  -41.0550   25.6710 O.2   103  ARG103     -0.2867
     58  CB        18.2420  -40.9720   23.0020 C.3   103  ARG103      0.0307
     59  CG        19.5720  -41.5450   23.4810 C.3   103  ARG103      0.0489
     60  CD        20.7310  -40.7270   22.9760 C.3   103  ARG103      0.2205
     61  NE        20.7630  -40.7130   21.5190 N.pl3 103  ARG103     -0.0865
     62  CZ        21.3000  -41.6720   20.7740 C.cat 103  ARG103      0.5346
     63  NH1       21.8630  -42.7350   21.3440 N.pl3 103  ARG103      0.1354
     64  NH2       21.2690  -41.5640   19.4540 N.pl3 103  ARG103      0.1354
     65  N         35.5900  -40.7050   14.0050 N.3   159  THR159     -0.1218
     66  CA        34.1630  -40.8760   14.2450 C.3   159  THR159      0.1862
     67  C         33.3520  -40.0580   13.2350 C.2   159  THR159      0.2287
     68  O         32.3260  -40.5190   12.7290 O.2   159  THR159     -0.2866
     69  CB        33.7740  -40.4520   15.6860 C.3   159  THR159      0.1770
     70  OG1       34.5650  -41.1810   16.6340 O.3   159  THR159     -0.2211
     71  CG2       32.3060  -40.7380   15.9510 C.3   159  THR159      0.0375
     72  N         30.7420  -41.3530   10.3790 N.3   163  GLN163     -0.1245
     73  CA        29.4070  -40.7830   10.2530 C.3   163  GLN163      0.1566
     74  C         29.1630  -40.4120    8.7900 C.2   163  GLN163      0.2260
     75  O         28.0380  -40.4690    8.3050 O.2   163  GLN163     -0.2867
     76  CB        29.2700  -39.5500   11.1440 C.3   163  GLN163      0.0367
     77  CG        29.0950  -39.8500   12.6270 C.3   163  GLN163      0.0905
     78  CD        27.8180  -40.6120   12.9330 C.2   163  GLN163      0.2608
     79  OE1       27.7770  -41.8420   12.8650 O.2   163  GLN163     -0.2717
     80  NE2       26.7610  -39.8810   13.2580 N.am  163  GLN163     -0.0878
     81  N         28.2950  -43.5400    7.1500 N.3   166  ASP166     -0.1239
     82  CA        26.9590  -43.9490    7.5780 C.3   166  ASP166      0.1674
     83  C         25.8160  -43.2330    6.8370 C.2   166  ASP166      0.2266
     84  O         24.8690  -43.8750    6.3630 O.2   166  ASP166     -0.2867
     85  CB        26.8180  -43.7260    9.0920 C.3   166  ASP166      0.1410
     86  CG        25.4090  -43.9980    9.6030 C.2   166  ASP166      0.3668
     87  OD1       24.4970  -43.1870    9.3280 O.co2 166  ASP166     -0.2456
     88  OD2       25.2170  -45.0280   10.2760 O.co2 166  ASP166     -0.2456
     89  N         32.8720  -45.3090   12.6800 N.3   203  LYS203     -0.1231
     90  CA        31.8740  -44.5620   13.4230 C.3   203  LYS203      0.1693
     91  C         31.7050  -45.0560   14.8650 C.2   203  LYS203      0.2592
     92  O         31.2500  -44.3000   15.7170 O.2   203  LYS203     -0.2718
     93  CB        30.5060  -44.6080   12.7140 C.3   203  LYS203      0.0285
     94  CG        29.7020  -45.9070   12.9120 C.3   203  LYS203      0.0035
     95  CD        28.2520  -45.7170   12.4770 C.3   203  LYS203      0.0206
     96  CE        27.4080  -46.9630   12.7110 C.3   203  LYS203      0.1093
     97  NZ        25.9750  -46.7630   12.3410 N.3   203  LYS203     -0.1314
     98  N         32.0850  -46.3030   15.1460 N.am  204  THR204     -0.1953
     99  CA        31.9020  -46.8480   16.5000 C.3   204  THR204      0.1897
    100  C         33.1110  -47.4810   17.2030 C.2   204  THR204      0.2313
    101  O         33.4250  -47.1350   18.3420 O.2   204  THR204     -0.2863
    102  CB        30.7550  -47.8930   16.5150 C.3   204  THR204      0.1794
    103  OG1       29.5120  -47.2370   16.2620 O.3   204  THR204     -0.2208
    104  CG2       30.6780  -48.6100   17.8610 C.3   204  THR204      0.0378
    105  N         36.0960  -44.8740   18.9030 N.3   207  TYR207     -0.1241
    106  CA        35.7540  -44.1030   20.0990 C.3   207  TYR207      0.1605
    107  C         35.0690  -44.8890   21.2240 C.2   207  TYR207      0.2264
    108  O         35.0510  -44.4580   22.3860 O.2   207  TYR207     -0.2867
    109  CB        34.8940  -42.9000   19.6880 C.3   207  TYR207      0.0534
    110  CG        33.3990  -43.0950   19.8280 C.ar  207  TYR207     -0.0201
    111  CD1       32.7600  -42.8530   21.0460 C.ar  207  TYR207     -0.0009
    112  CD2       32.6190  -43.4960   18.7420 C.ar  207  TYR207     -0.0009
    113  CE1       31.3810  -43.0020   21.1770 C.ar  207  TYR207      0.0417
    114  CE2       31.2360  -43.6520   18.8640 C.ar  207  TYR207      0.0417
    115  CZ        30.6280  -43.4040   20.0850 C.ar  207  TYR207      0.1957
    116  OH        29.2740  -43.5810   20.2360 O.3   207  TYR207     -0.2866
    117  N         28.2950  -52.6890   17.3800 N.3   243  GLN243     -0.1245
    118  CA        27.4120  -52.0060   16.4400 C.3   243  GLN243      0.1566
    119  C         26.4130  -52.9840   15.8280 C.2   243  GLN243      0.2260
    120  O         25.2920  -52.6000   15.4970 O.2   243  GLN243     -0.2867
    121  CB        28.2150  -51.3200   15.3390 C.3   243  GLN243      0.0367
    122  CG        27.4040  -50.3460   14.5020 C.3   243  GLN243      0.0905
    123  CD        26.6580  -49.3000   15.3420 C.2   243  GLN243      0.2608
    124  OE1       27.2410  -48.6380   16.2060 O.2   243  GLN243     -0.2717
    125  NE2       25.3610  -49.1450   15.0780 N.am  243  GLN243     -0.0878
    126  N         23.8530  -53.2740   18.2000 N.3   246  ASP246     -0.1225
    127  CA        23.0810  -52.0340   18.0900 C.3   246  ASP246      0.1805
    128  C         22.0910  -52.0950   16.9310 C.2   246  ASP246      0.2597
    129  O         20.9460  -51.6550   17.0570 O.2   246  ASP246     -0.2718
    130  CB        23.9910  -50.8230   17.8860 C.3   246  ASP246      0.1424
    131  CG        23.2080  -49.5390   17.7960 C.2   246  ASP246      0.3668
    132  OD1       22.4110  -49.2880   18.7150 O.co2 246  ASP246     -0.2456
    133  OD2       23.3700  -48.7820   16.8200 O.co2 246  ASP246     -0.2456
    134  N         22.5390  -52.6350   15.7990 N.am  247  ASP247     -0.1974
    135  CA        21.6760  -52.7550   14.6320 C.3   247  ASP247      0.1709
    136  C         20.5720  -53.7800   14.8980 C.2   247  ASP247      0.2293
    137  O         19.4060  -53.5310   14.6020 O.2   247  ASP247     -0.2864
    138  CB        22.4850  -53.1610   13.3890 C.3   247  ASP247      0.1436
    139  CG        23.3760  -52.0410   12.8750 C.2   247  ASP247      0.3671
    140  OD1       23.2360  -50.8930   13.3430 O.co2 247  ASP247     -0.2456
    141  OD2       24.2170  -52.3050   11.9910 O.co2 247  ASP247     -0.2456
    142  N         17.9690  -52.4700   17.3050 N.3   250  ASP250     -0.1239
    143  CA        17.2180  -51.4100   16.6800 C.3   250  ASP250      0.1674
    144  C         15.9700  -51.9840   16.0250 C.2   250  ASP250      0.2266
    145  O         14.8960  -51.3820   16.0620 O.2   250  ASP250     -0.2867
    146  CB        18.0690  -50.7100   15.6290 C.3   250  ASP250      0.1410
    147  CG        17.4110  -49.4560   15.1100 C.2   250  ASP250      0.3668
    148  OD1       17.5530  -48.4000   15.7680 O.co2 250  ASP250     -0.2456
    149  OD2       16.7320  -49.5330   14.0560 O.co2 250  ASP250     -0.2456
    150  N         15.1780  -46.3060   23.0030 N.3   260  LYS260     -0.1245
    151  CA        15.1910  -45.5030   21.7860 C.3   260  LYS260      0.1561
    152  C         14.4230  -46.2320   20.6930 C.2   260  LYS260      0.2260
    153  O         14.5200  -47.4550   20.5740 O.2   260  LYS260     -0.2867
    154  CB        16.6390  -45.2400   21.3410 C.3   260  LYS260      0.0271
    155  CG        17.4170  -46.4930   20.9480 C.3   260  LYS260      0.0035
    156  CD        18.9310  -46.2590   20.8520 C.3   260  LYS260      0.0206
    157  CE        19.6320  -47.5230   20.3350 C.3   260  LYS260      0.1093
    158  NZ        21.1140  -47.4540   20.4110 N.3   260  LYS260     -0.1314
    159  N         15.1750  -46.3860   13.7870 N.3   263  THR263     -0.1203
    160  CA        14.9380  -45.6240   12.5530 C.3   263  THR263      0.1994
    161  C         15.7790  -46.1630   11.3890 C.2   263  THR263      0.2617
    162  O         15.7830  -45.5780   10.2960 O.2   263  THR263     -0.2717
    163  CB        15.3320  -44.1410   12.7090 C.3   263  THR263      0.1784
    164  OG1       16.6760  -44.0570   13.2050 O.3   263  THR263     -0.2211
    165  CG2       14.3840  -43.4170   13.6530 C.3   263  THR263      0.0376
    166  N         16.4850  -47.2660   11.6280 N.am  264  ASP264     -0.1973
    167  CA        17.3610  -47.8590   10.6200 C.3   264  ASP264      0.1709
    168  C         16.6980  -48.2280    9.2960 C.2   264  ASP264      0.2293
    169  O         17.2360  -47.9330    8.2240 O.2   264  ASP264     -0.2864
    170  CB        18.0770  -49.0820   11.2000 C.3   264  ASP264      0.1436
    171  CG        19.2860  -48.7040   12.0500 C.2   264  ASP264      0.3671
    172  OD1       19.6810  -47.5020   12.0650 O.co2 264  ASP264     -0.2456
    173  OD2       19.8460  -49.6180   12.6930 O.co2 264  ASP264     -0.2456
    174  N         19.1050  -47.4310    6.2940 N.3   269  LYS269     -0.1245
    175  CA        20.4890  -47.5910    6.7460 C.3   269  LYS269      0.1561
    176  C         21.1460  -48.8900    6.2840 C.2   269  LYS269      0.2260
    177  O         20.4810  -49.9080    6.1240 O.2   269  LYS269     -0.2867
    178  CB        20.5390  -47.5190    8.2760 C.3   269  LYS269      0.0271
    179  CG        20.1260  -46.1730    8.8400 C.3   269  LYS269      0.0035
    180  CD        21.1490  -45.1110    8.4720 C.3   269  LYS269      0.0206
    181  CE        20.7730  -43.7500    9.0330 C.3   269  LYS269      0.1093
    182  NZ        21.9310  -42.8380    8.9080 N.3   269  LYS269     -0.1314
@<TRIPOS>BOND
     1   177   176    2
     2   176   175    1
     3   174   175    1
     4    84    83    2
     5   175   178    1
     6    83    82    1
     7    81    82    1
     8    82    85    1
     9   169   168    2
    10   178   179    1
    11    75    74    2
    12   180   179    1
    13   180   181    1
    14    74    73    1
    15   182   181    1
    16    85    86    1
    17   168   167    1
    18    87    86   ar
    19    86    88   ar
    20    73    72    1
    21    73    76    1
    22   162   161    2
    23   167   170    1
    24   167   166    1
    25    76    77    1
    26   170   171    1
    27   161   166   am
    28   161   160    1
    29    46    45   ar
    30    41    40    1
    31    41    42    1
    32    41    44    1
    33   141   139   ar
    34    43    42    2
    35   171   172   ar
    36   171   173   ar
    37    97    96    1
    38    95    96    1
    39    95    94    1
    40   160   163    1
    41   160   159    1
    42    45    44    1
    43    45    47   ar
    44    77    78    1
    45    89    90    1
    46   163   164    1
    47   163   165    1
    48    93    94    1
    49    93    90    1
    50    68    67    2
    51    79    78    2
    52   139   140   ar
    53   139   138    1
    54    78    80   am
    55    67    66    1
    56   138   135    1
    57    90    91    1
    58    65    66    1
    59   149   147   ar
    60    35    34    2
    61    38    37   ar
    62    66    69    1
    63   122   121    1
    64   122   123    1
    65   137   136    2
    66   135   136    1
    67   135   134    1
    68    48    49    1
    69    91    98   am
    70    91    92    2
    71   125   123   am
    72   147   146    1
    73   147   148   ar
    74    98    99    1
    75    33    34    1
    76    33    32    1
    77    33    36    1
    78    23    22    1
    79    37    36    1
    80    37    39   ar
    81   121   118    1
    82   123   124    2
    83    20    22   ar
    84    20    18   ar
    85   120   119    2
    86   146   143    1
    87    69    71    1
    88    69    70    1
    89   134   128   am
    90   119   118    1
    91    49    52    1
    92    49    50    1
    93    22    21   ar
    94    53    52    1
    95   144   145    2
    96   144   143    1
    97    18    17   ar
    98   103   102    1
    99   118   117    1
   100    99   102    1
   101    99   100    1
   102   102   104    1
   103   143   142    1
   104    51    50    2
   105   133   131   ar
   106   128   129    2
   107   128   127    1
   108   100   101    2
   109    21    19   ar
   110    17    19   ar
   111    17    16    1
   112    15    14    2
   113   131   130    1
   114   131   132   ar
   115   130   127    1
   116   127   126    1
   117    16    13    1
   118    13    14    1
   119    13    12    1
   120    14    24   am
   121   112   114   ar
   122   112   110   ar
   123   114   115   ar
   124    27    26    2
   125   105   106    1
   126    64    62    1
   127    26    25    1
   128    24    25    1
   129   109   110    1
   130   109   106    1
   131    25    28    1
   132   110   111   ar
   133   115   116    1
   134   115   113   ar
   135   106   107    1
   136   157   158    1
   137   157   156    1
   138   153   152    2
   139   152   151    1
   140    62    63    1
   141    62    61    2
   142   156   155    1
   143    30    29    1
   144   155   154    1
   145   111   113   ar
   146   107   108    2
   147    28    29    1
   148   154   151    1
   149    61    60    1
   150    29    31    1
   151   151   150    1
   152    11     9    1
   153    60    59    1
   154    58    55    1
   155    58    59    1
   156    54    55    1
   157     8     9    2
   158     8     7    1
   159     9    10    1
   160    55    56    1
   161     7     6    1
   162    56    57    2
   163     6     5    1
   164     5     2    1
   165     2     1    1
   166     2     3    1
   167     3     4    2
