@<TRIPOS>MOLECULE
tmp/3dyhB00.pdb
 224 211 0 0 0
SMALL
GASTEIGER

@<TRIPOS>ATOM
      1  N         27.2650  -35.0010   22.5410 N.3    90  HIS90      -0.1226
      2  CA        27.3760  -34.2330   21.2940 C.3    90  HIS90       0.1752
      3  C         26.9000  -35.0790   20.0990 C.2    90  HIS90       0.2596
      4  O         26.0420  -34.6510   19.3490 O.2    90  HIS90      -0.2718
      5  CB        28.8230  -33.7320   21.1320 C.3    90  HIS90       0.0759
      6  CG        29.2550  -33.4710   19.7090 C.ar   90  HIS90       0.0818
      7  ND1       28.7690  -32.4250   18.9610 N.ar   90  HIS90      -0.2268
      8  CD2       30.1920  -34.0810   18.9390 C.ar   90  HIS90       0.1154
      9  CE1       29.3640  -32.4160   17.7760 C.ar   90  HIS90       0.1986
     10  NE2       30.2350  -33.4130   17.7360 N.ar   90  HIS90      -0.2212
     11  N         27.4430  -36.2850   19.9540 N.am   91  TYR91      -0.1962
     12  CA        27.1510  -37.1000   18.7800 C.3    91  TYR91       0.1771
     13  C         25.6640  -37.4060   18.7240 C.2    91  TYR91       0.2619
     14  O         25.0590  -37.2980   17.6540 O.2    91  TYR91      -0.2715
     15  CB        27.9340  -38.4280   18.8130 C.3    91  TYR91       0.0574
     16  CG        29.4240  -38.2940   18.6030 C.ar   91  TYR91      -0.0198
     17  CD1       29.9730  -37.2190   17.8920 C.ar   91  TYR91      -0.0009
     18  CD2       30.2880  -39.2570   19.1100 C.ar   91  TYR91      -0.0009
     19  CE1       31.3660  -37.1230   17.6990 C.ar   91  TYR91       0.0417
     20  CE2       31.6580  -39.1720   18.9220 C.ar   91  TYR91       0.0417
     21  CZ        32.1860  -38.1140   18.2120 C.ar   91  TYR91       0.1957
     22  OH        33.5570  -38.0570   18.0630 O.3    91  TYR91      -0.2866
     23  N         25.0840  -37.7260   19.8830 N.am   92  LEU92      -0.1977
     24  CA        23.6890  -38.1940   19.9640 C.3    92  LEU92       0.1596
     25  C         22.7000  -37.0820   19.7060 C.2    92  LEU92       0.2287
     26  O         21.6930  -37.2780   19.0080 O.2    92  LEU92      -0.2864
     27  CB        23.4320  -38.8530   21.3110 C.3    92  LEU92       0.0297
     28  CG        23.5930  -40.3810   21.3800 C.3    92  LEU92       0.0022
     29  CD1       24.3650  -41.0150   20.2490 C.3    92  LEU92       0.0001
     30  CD2       24.1170  -40.7730   22.7100 C.3    92  LEU92       0.0001
     31  N         23.3110  -34.4700   17.6890 N.3    94  GLU94      -0.1231
     32  CA        23.3410  -34.2870   16.2260 C.3    94  GLU94       0.1699
     33  C         22.7910  -35.4860   15.4210 C.2    94  GLU94       0.2592
     34  O         22.0780  -35.3190   14.4370 O.2    94  GLU94      -0.2718
     35  CB        24.7700  -33.9330   15.7810 C.3    94  GLU94       0.0402
     36  CG        25.4660  -32.8820   16.6410 C.3    94  GLU94       0.1161
     37  CD        24.9380  -31.4720   16.4510 C.2    94  GLU94       0.3649
     38  OE1       23.9250  -31.2930   15.7150 O.co2  94  GLU94      -0.2457
     39  OE2       25.5720  -30.5360   17.0210 O.co2  94  GLU94      -0.2457
     40  N         23.1490  -36.6870   15.8480 N.am   95  ASP95      -0.1960
     41  CA        22.6750  -37.9170   15.2340 C.3    95  ASP95       0.1840
     42  C         21.1580  -38.0710   15.3010 C.2    95  ASP95       0.2622
     43  O         20.5700  -38.5260   14.3440 O.2    95  ASP95      -0.2715
     44  CB        23.3130  -39.1170   15.9040 C.3    95  ASP95       0.1450
     45  CG        22.7460  -40.4330   15.3950 C.2    95  ASP95       0.3671
     46  OD1       23.0910  -40.8110   14.2740 O.co2  95  ASP95      -0.2456
     47  OD2       21.9710  -41.0900   16.1260 O.co2  95  ASP95      -0.2456
     48  N         20.5270  -37.7350   16.4350 N.am   96  ASP96      -0.1971
     49  CA        19.0490  -37.7620   16.5160 C.3    96  ASP96       0.1709
     50  C         18.3830  -36.8230   15.4870 C.2    96  ASP96       0.2293
     51  O         17.3350  -37.1520   14.9040 O.2    96  ASP96      -0.2864
     52  CB        18.5710  -37.4470   17.9530 C.3    96  ASP96       0.1436
     53  CG        18.7380  -38.6280   18.8970 C.2    96  ASP96       0.3671
     54  OD1       18.8310  -39.7860   18.4310 O.co2  96  ASP96      -0.2456
     55  OD2       18.7960  -38.4110   20.1220 O.co2  96  ASP96      -0.2456
     56  N         19.9890  -35.8890   12.5650 N.3    98  MET98      -0.1230
     57  CA        20.2930  -36.5060   11.2450 C.3    98  MET98       0.1702
     58  C         19.3790  -37.7000   10.9510 C.2    98  MET98       0.2592
     59  O         19.0660  -37.9760    9.7920 O.2    98  MET98      -0.2718
     60  CB        21.7480  -36.9970   11.1880 C.3    98  MET98       0.0401
     61  CG        22.8020  -35.8970   11.1980 C.3    98  MET98       0.0596
     62  SD        24.4770  -36.5440   11.1060 S.3    98  MET98      -0.1393
     63  CE        25.3900  -35.4200   12.1360 C.3    98  MET98       0.0692
     64  N         19.0010  -38.4240   12.0020 N.am   99  ASP99      -0.1974
     65  CA        18.2410  -39.6730   11.8680 C.3    99  ASP99       0.1709
     66  C         16.7330  -39.4610   11.9800 C.2    99  ASP99       0.2293
     67  O         15.9560  -40.4030   11.7400 O.2    99  ASP99      -0.2864
     68  CB        18.7170  -40.7120   12.8890 C.3    99  ASP99       0.1436
     69  CG        20.1100  -41.2460   12.5710 C.2    99  ASP99       0.3671
     70  OD1       20.5860  -40.9440   11.4640 O.co2  99  ASP99      -0.2456
     71  OD2       20.7230  -41.9710   13.4090 O.co2  99  ASP99      -0.2456
     72  N         15.0270  -38.9950   14.6900 N.3   101  SER101     -0.1217
     73  CA        14.5650  -39.8270   15.7930 C.3   101  SER101      0.1889
     74  C         13.5900  -39.0300   16.6460 C.2   101  SER101      0.2288
     75  O         13.6210  -37.7980   16.6590 O.2   101  SER101     -0.2866
     76  CB        15.7310  -40.3190   16.6570 C.3   101  SER101      0.2089
     77  OG        16.5630  -41.2200   15.9480 O.3   101  SER101     -0.2183
     78  N         14.8390  -40.6940   22.9340 N.3   104  ARG104     -0.1245
     79  CA        16.1020  -41.2640   23.3660 C.3   104  ARG104      0.1563
     80  C         16.0660  -41.4640   24.8830 C.2   104  ARG104      0.2260
     81  O         15.6620  -40.5600   25.6100 O.2   104  ARG104     -0.2867
     82  CB        17.2410  -40.3150   22.9890 C.3   104  ARG104      0.0307
     83  CG        18.6130  -40.8560   23.3150 C.3   104  ARG104      0.0489
     84  CD        19.5650  -40.5770   22.1820 C.3   104  ARG104      0.2205
     85  NE        20.3650  -41.7660   22.0160 N.pl3 104  ARG104     -0.0865
     86  CZ        20.8390  -42.2300   20.8750 C.cat 104  ARG104      0.5346
     87  NH1       20.6310  -41.6090   19.7100 N.pl3 104  ARG104      0.1354
     88  NH2       21.5530  -43.3350   20.9290 N.pl3 104  ARG104      0.1354
     89  N         30.4880  -30.5340   22.4520 N.3   129  LYS129     -0.1245
     90  CA        31.8160  -30.8500   21.9240 C.3   129  LYS129      0.1561
     91  C         32.8770  -29.8930   22.4770 C.2   129  LYS129      0.2260
     92  O         33.9420  -30.3410   22.9380 O.2   129  LYS129     -0.2867
     93  CB        31.8390  -30.8090   20.3970 C.3   129  LYS129      0.0271
     94  CG        33.2660  -30.9250   19.7940 C.3   129  LYS129      0.0035
     95  CD        33.4740  -32.1640   18.9160 C.3   129  LYS129      0.0206
     96  CE        33.1160  -31.8290   17.4540 C.3   129  LYS129      0.1093
     97  NZ        32.9680  -33.0350   16.5080 N.3   129  LYS129     -0.1314
     98  N         35.1570  -40.5810   13.9200 N.3   160  THR160     -0.1203
     99  CA        33.7350  -40.8170   14.1490 C.3   160  THR160      0.1994
    100  C         32.8510  -40.0500   13.1520 C.2   160  THR160      0.2617
    101  O         31.8280  -40.5770   12.7090 O.2   160  THR160     -0.2717
    102  CB        33.3290  -40.5310   15.6300 C.3   160  THR160      0.1784
    103  OG1       34.1700  -41.2930   16.5080 O.3   160  THR160     -0.2211
    104  CG2       31.8390  -40.9210   15.9000 C.3   160  THR160      0.0376
    105  N         33.2330  -38.8110   12.8120 N.am  161  ALA161     -0.1979
    106  CA        32.4500  -38.0120   11.8650 C.3   161  ALA161      0.1597
    107  C         32.6240  -38.6130   10.4660 C.2   161  ALA161      0.2287
    108  O         31.6950  -38.6340    9.6760 O.2   161  ALA161     -0.2864
    109  CB        32.8610  -36.5520   11.8930 C.3   161  ALA161      0.0319
    110  N         30.1700  -41.4500   10.4090 N.3   164  GLN164     -0.1245
    111  CA        28.8580  -40.8670   10.2600 C.3   164  GLN164      0.1566
    112  C         28.5670  -40.5310    8.8070 C.2   164  GLN164      0.2260
    113  O         27.4410  -40.6760    8.3610 O.2   164  GLN164     -0.2867
    114  CB        28.7350  -39.6240   11.1770 C.3   164  GLN164      0.0367
    115  CG        27.3360  -39.0770   11.3130 C.3   164  GLN164      0.0905
    116  CD        26.3930  -39.9720   12.1390 C.2   164  GLN164      0.2608
    117  OE1       26.6640  -41.1600   12.3920 O.2   164  GLN164     -0.2717
    118  NE2       25.2930  -39.3860   12.5880 N.am  164  GLN164     -0.0878
    119  N         27.6200  -43.6550    7.1670 N.3   167  ASP167     -0.1239
    120  CA        26.2780  -44.0900    7.5910 C.3   167  ASP167      0.1674
    121  C         25.1780  -43.3330    6.8590 C.2   167  ASP167      0.2266
    122  O         24.1450  -43.8790    6.4580 O.2   167  ASP167     -0.2867
    123  CB        26.1100  -43.8100    9.0990 C.3   167  ASP167      0.1410
    124  CG        24.6900  -44.0480    9.5880 C.2   167  ASP167      0.3668
    125  OD1       23.7880  -43.1900    9.3900 O.co2 167  ASP167     -0.2456
    126  OD2       24.4740  -45.1030   10.1850 O.co2 167  ASP167     -0.2456
    127  N         32.1500  -45.2050   12.6870 N.3   204  LYS204     -0.1231
    128  CA        31.1400  -44.4550   13.4330 C.3   204  LYS204      0.1693
    129  C         30.9930  -44.8990   14.8820 C.2   204  LYS204      0.2592
    130  O         30.5130  -44.1220   15.7150 O.2   204  LYS204     -0.2718
    131  CB        29.7560  -44.4830   12.7450 C.3   204  LYS204      0.0285
    132  CG        28.9680  -45.7600   13.0180 C.3   204  LYS204      0.0035
    133  CD        27.4660  -45.5430   12.8060 C.3   204  LYS204      0.0206
    134  CE        26.7080  -46.8790   12.8470 C.3   204  LYS204      0.1093
    135  NZ        25.2190  -46.6320   12.8020 N.3   204  LYS204     -0.1314
    136  N         31.4070  -46.1320   15.1980 N.am  205  THR205     -0.1953
    137  CA        31.1860  -46.6460   16.5480 C.3   205  THR205      0.1897
    138  C         32.4350  -47.1840   17.2520 C.2   205  THR205      0.2313
    139  O         32.7130  -46.8320   18.4030 O.2   205  THR205     -0.2863
    140  CB        30.0870  -47.7300   16.5350 C.3   205  THR205      0.1794
    141  OG1       28.8350  -47.1440   16.1330 O.3   205  THR205     -0.2208
    142  CG2       29.9260  -48.3740   17.9240 C.3   205  THR205      0.0378
    143  N         35.3500  -44.5450   19.0140 N.3   208  TYR208     -0.1241
    144  CA        35.0120  -43.7300   20.1970 C.3   208  TYR208      0.1605
    145  C         34.4150  -44.5470   21.3360 C.2   208  TYR208      0.2264
    146  O         34.5500  -44.1840   22.4930 O.2   208  TYR208     -0.2867
    147  CB        34.1060  -42.5170   19.8400 C.3   208  TYR208      0.0534
    148  CG        32.5990  -42.7370   19.8880 C.ar  208  TYR208     -0.0201
    149  CD1       31.8680  -42.4360   21.0350 C.ar  208  TYR208     -0.0009
    150  CD2       31.8990  -43.2080   18.7720 C.ar  208  TYR208     -0.0009
    151  CE1       30.4820  -42.6070   21.0750 C.ar  208  TYR208      0.0417
    152  CE2       30.5070  -43.3850   18.8110 C.ar  208  TYR208      0.0417
    153  CZ        29.8140  -43.0960   19.9570 C.ar  208  TYR208      0.1957
    154  OH        28.4280  -43.2710   19.9870 O.3   208  TYR208     -0.2866
    155  N         29.0450  -54.6180   19.2230 N.3   243  PHE243     -0.1227
    156  CA        28.1840  -53.6040   19.8580 C.3   243  PHE243      0.1736
    157  C         27.1880  -52.9510   18.8880 C.2   243  PHE243      0.2595
    158  O         26.0170  -52.7880   19.2190 O.2   243  PHE243     -0.2718
    159  CB        29.0540  -52.5150   20.5250 C.3   243  PHE243      0.0547
    160  CG        28.2580  -51.4400   21.2120 C.ar  243  PHE243     -0.0202
    161  CD1       27.8490  -51.5920   22.5350 C.ar  243  PHE243     -0.0042
    162  CD2       27.9010  -50.2840   20.5330 C.ar  243  PHE243     -0.0042
    163  CE1       27.1190  -50.5860   23.1800 C.ar  243  PHE243     -0.0003
    164  CE2       27.1460  -49.2810   21.1590 C.ar  243  PHE243     -0.0003
    165  CZ        26.7570  -49.4250   22.4760 C.ar  243  PHE243     -0.0000
    166  N         27.6480  -52.5820   17.6850 N.am  244  GLN244     -0.1979
    167  CA        26.7530  -51.9370   16.7260 C.3   244  GLN244      0.1601
    168  C         25.8060  -52.9370   16.0810 C.2   244  GLN244      0.2287
    169  O         24.6330  -52.6470   15.9010 O.2   244  GLN244     -0.2864
    170  CB        27.5180  -51.1730   15.6490 C.3   244  GLN244      0.0394
    171  CG        26.6130  -50.3290   14.7780 C.3   244  GLN244      0.0908
    172  CD        25.8570  -49.2600   15.5600 C.2   244  GLN244      0.2608
    173  OE1       26.4450  -48.4990   16.3420 O.2   244  GLN244     -0.2717
    174  NE2       24.5440  -49.1950   15.3440 N.am  244  GLN244     -0.0878
    175  N         23.2190  -53.1370   18.4370 N.3   247  ASP247     -0.1225
    176  CA        22.3850  -51.9130   18.3470 C.3   247  ASP247      0.1805
    177  C         21.3750  -52.0450   17.1970 C.2   247  ASP247      0.2597
    178  O         20.1880  -51.8250   17.3900 O.2   247  ASP247     -0.2718
    179  CB        23.2450  -50.6520   18.1800 C.3   247  ASP247      0.1424
    180  CG        22.4280  -49.3640   18.2610 C.2   247  ASP247      0.3668
    181  OD1       21.7900  -49.1370   19.3120 O.co2 247  ASP247     -0.2456
    182  OD2       22.4220  -48.5740   17.2750 O.co2 247  ASP247     -0.2456
    183  N         21.8570  -52.4480   16.0240 N.am  248  ASP248     -0.1974
    184  CA        21.0080  -52.6930   14.8690 C.3   248  ASP248      0.1709
    185  C         19.9310  -53.7580   15.1080 C.2   248  ASP248      0.2293
    186  O         18.7680  -53.5460   14.7640 O.2   248  ASP248     -0.2864
    187  CB        21.8410  -53.0640   13.6500 C.3   248  ASP248      0.1436
    188  CG        22.7520  -51.9460   13.2110 C.2   248  ASP248      0.3671
    189  OD1       22.7520  -50.8640   13.8510 O.co2 248  ASP248     -0.2456
    190  OD2       23.4720  -52.1530   12.2210 O.co2 248  ASP248     -0.2456
    191  N         17.2670  -52.5030   17.3810 N.3   251  ASP251     -0.1239
    192  CA        16.4490  -51.4950   16.7210 C.3   251  ASP251      0.1674
    193  C         15.1950  -52.1350   16.1380 C.2   251  ASP251      0.2266
    194  O         14.1150  -51.5630   16.1900 O.2   251  ASP251     -0.2867
    195  CB        17.2290  -50.8110   15.6010 C.3   251  ASP251      0.1410
    196  CG        16.6310  -49.4690   15.2110 C.2   251  ASP251      0.3668
    197  OD1       16.8730  -48.4670   15.9400 O.co2 251  ASP251     -0.2456
    198  OD2       15.9130  -49.4080   14.1820 O.co2 251  ASP251     -0.2456
    199  N         14.3290  -45.8380   22.9430 N.3   261  LYS261     -0.1245
    200  CA        14.2560  -45.0370   21.7220 C.3   261  LYS261      0.1561
    201  C         13.5270  -45.8480   20.6730 C.2   261  LYS261      0.2260
    202  O         13.7060  -47.0600   20.6120 O.2   261  LYS261     -0.2867
    203  CB        15.6690  -44.6910   21.2310 C.3   261  LYS261      0.0271
    204  CG        16.3730  -45.8250   20.4850 C.3   261  LYS261      0.0035
    205  CD        17.8750  -45.8460   20.7360 C.3   261  LYS261      0.0206
    206  CE        18.5630  -46.7970   19.7640 C.3   261  LYS261      0.1093
    207  NZ        19.9170  -47.1920   20.2350 N.3   261  LYS261     -0.1314
    208  N         15.7060  -47.3990   11.7250 N.3   265  ASP265     -0.1239
    209  CA        16.6300  -47.9610   10.7420 C.3   265  ASP265      0.1674
    210  C         15.9470  -48.3420    9.4390 C.2   265  ASP265      0.2266
    211  O         16.4230  -48.0010    8.3620 O.2   265  ASP265     -0.2867
    212  CB        17.4210  -49.1310   11.3440 C.3   265  ASP265      0.1410
    213  CG        18.4790  -48.6720   12.3550 C.2   265  ASP265      0.3668
    214  OD1       18.6380  -47.4400   12.5840 O.co2 265  ASP265     -0.2456
    215  OD2       19.1630  -49.5540   12.9190 O.co2 265  ASP265     -0.2456
    216  N         18.3670  -47.4840    6.4050 N.3   270  LYS270     -0.1245
    217  CA        19.7320  -47.6180    6.8820 C.3   270  LYS270      0.1561
    218  C         20.3720  -48.9030    6.3830 C.2   270  LYS270      0.2260
    219  O         19.6860  -49.9010    6.1750 O.2   270  LYS270     -0.2867
    220  CB        19.7530  -47.5930    8.4130 C.3   270  LYS270      0.0271
    221  CG        19.4540  -46.2240    9.0340 C.3   270  LYS270      0.0035
    222  CD        20.6600  -45.3100    8.8990 C.3   270  LYS270      0.0206
    223  CE        20.3400  -43.8730    9.2440 C.3   270  LYS270      0.1093
    224  NZ        21.3280  -43.0060    8.5360 N.3   270  LYS270     -0.1314
@<TRIPOS>BOND
     1   219   218    2
     2   218   217    1
     3   216   217    1
     4   122   121    2
     5   121   120    1
     6   217   220    1
     7   119   120    1
     8   120   123    1
     9   113   112    2
    10   211   210    2
    11   220   221    1
    12   224   223    1
    13   112   111    1
    14   222   221    1
    15   222   223    1
    16   123   124    1
    17   125   124   ar
    18   210   209    1
    19   124   126   ar
    20   108   107    2
    21    59    58    2
    22   111   110    1
    23   111   114    1
    24   107   106    1
    25   209   212    1
    26   209   208    1
    27    58    57    1
    28    58    64   am
    29    62    61    1
    30    62    63    1
    31   114   115    1
    32    60    61    1
    33    60    57    1
    34    57    56    1
    35   115   116    1
    36   212   213    1
    37    70    69   ar
    38    67    66    2
    39   106   109    1
    40   106   105    1
    41    65    66    1
    42    65    64    1
    43    65    68    1
    44   116   117    2
    45   116   118   am
    46   190   188   ar
    47   213   214   ar
    48   213   215   ar
    49    69    68    1
    50    69    71   ar
    51   127   128    1
    52   101   100    2
    53   131   132    1
    54   131   128    1
    55   135   134    1
    56   133   134    1
    57   133   132    1
    58   105   100   am
    59   100    99    1
    60   188   187    1
    61   188   189   ar
    62   128   129    1
    63   187   184    1
    64    98    99    1
    65    99   102    1
    66   198   196   ar
    67    46    45   ar
    68    43    42    2
    69    34    33    2
    70    72    73    1
    71   186   185    2
    72   171   172    1
    73   171   170    1
    74   184   185    1
    75   184   183    1
    76   129   136   am
    77   129   130    2
    78    51    50    2
    79   136   137    1
    80   196   195    1
    81   196   197   ar
    82    41    42    1
    83    41    40    1
    84    41    44    1
    85    42    48   am
    86   174   172   am
    87    45    44    1
    88    45    47   ar
    89    33    40   am
    90    33    32    1
    91    50    49    1
    92   172   173    2
    93   195   192    1
    94   102   104    1
    95   102   103    1
    96   170   167    1
    97    38    37   ar
    98    35    32    1
    99    35    36    1
   100    73    74    1
   101    73    76    1
   102   169   168    2
   103    77    76    1
   104   183   177   am
   105   168   167    1
   106   141   140    1
   107   193   194    2
   108   193   192    1
   109    32    31    1
   110    48    49    1
   111    37    36    1
   112    37    39   ar
   113    97    96    1
   114    49    52    1
   115   140   137    1
   116   140   142    1
   117   137   138    1
   118    74    75    2
   119   192   191    1
   120   167   166    1
   121   177   178    2
   122   177   176    1
   123   138   139    2
   124   182   180   ar
   125    96    95    1
   126    14    13    2
   127   166   157   am
   128    19    17   ar
   129    19    21   ar
   130    10     9   ar
   131    10     8   ar
   132     9     7   ar
   133    17    16   ar
   134    52    53    1
   135    22    21    1
   136   179   180    1
   137   179   176    1
   138    21    20   ar
   139   180   181   ar
   140   176   175    1
   141    54    53   ar
   142    16    15    1
   143    16    18   ar
   144    13    12    1
   145    13    23   am
   146   150   152   ar
   147   150   148   ar
   148    12    15    1
   149    12    11    1
   150   152   153   ar
   151   157   158    2
   152   157   156    1
   153    53    55   ar
   154    95    94    1
   155    20    18   ar
   156     8     6   ar
   157     7     6   ar
   158    26    25    2
   159   143   144    1
   160   155   156    1
   161     4     3    2
   162    25    24    1
   163     6     5    1
   164    87    86    1
   165   206   207    1
   166   206   205    1
   167    94    93    1
   168   147   148    1
   169   147   144    1
   170   156   159    1
   171    23    24    1
   172   148   149   ar
   173    11     3   am
   174   153   154    1
   175   153   151   ar
   176    24    27    1
   177     3     2    1
   178   144   145    1
   179    29    28    1
   180    93    90    1
   181   204   205    1
   182   204   203    1
   183   159   160    1
   184   162   164   ar
   185   162   160   ar
   186   202   201    2
   187   201   200    1
   188    86    88    1
   189    86    85    2
   190   149   151   ar
   191     5     2    1
   192   164   165   ar
   193   160   161   ar
   194   203   200    1
   195     2     1    1
   196    27    28    1
   197   145   146    2
   198    28    30    1
   199   200   199    1
   200    90    89    1
   201    90    91    1
   202    85    84    1
   203    84    83    1
   204   165   163   ar
   205    91    92    2
   206   161   163   ar
   207    78    79    1
   208    82    83    1
   209    82    79    1
   210    79    80    1
   211    80    81    2
