@<TRIPOS>MOLECULE
tmp/3dynA00.pdb
 199 192 0 0 0
SMALL
GASTEIGER

@<TRIPOS>ATOM
      1  N         85.8550   57.7410   43.3650 N.3    74  PHE74      -0.1227
      2  CA        85.2280   56.5160   43.8380 C.3    74  PHE74       0.1736
      3  C         86.1640   55.3330   43.6840 C.2    74  PHE74       0.2595
      4  O         86.4400   54.6060   44.6360 O.2    74  PHE74      -0.2718
      5  CB        83.9270   56.2510   43.0560 C.3    74  PHE74       0.0547
      6  CG        83.1090   55.0960   43.5960 C.ar   74  PHE74      -0.0202
      7  CD1       82.1250   55.3100   44.5650 C.ar   74  PHE74      -0.0042
      8  CD2       83.3490   53.7990   43.1750 C.ar   74  PHE74      -0.0042
      9  CE1       81.3670   54.2760   45.0440 C.ar   74  PHE74      -0.0003
     10  CE2       82.6060   52.7420   43.6630 C.ar   74  PHE74      -0.0003
     11  CZ        81.6080   52.9610   44.5980 C.ar   74  PHE74      -0.0000
     12  N         86.6900   55.1510   42.4770 N.am   75  HIS75      -0.1975
     13  CA        87.4520   53.9490   42.1750 C.3    75  HIS75       0.1656
     14  C         88.8900   54.0840   42.5860 C.2    75  HIS75       0.2291
     15  O         89.7950   54.1570   41.7580 O.2    75  HIS75      -0.2864
     16  CB        87.3360   53.5890   40.7100 C.3    75  HIS75       0.0771
     17  CG        85.9900   53.0690   40.3500 C.ar   75  HIS75       0.0820
     18  ND1       85.0520   53.8380   39.6930 N.ar   75  HIS75      -0.2267
     19  CD2       85.3900   51.8880   40.6270 C.ar   75  HIS75       0.1154
     20  CE1       83.9410   53.1380   39.5590 C.ar   75  HIS75       0.1986
     21  NE2       84.1260   51.9480   40.1010 N.ar   75  HIS75      -0.2212
     22  N         88.1450   52.3120   48.1890 N.3    79  HIS79      -0.1241
     23  CA        87.1500   51.4070   47.6610 C.3    79  HIS79       0.1621
     24  C         87.6200   49.9540   47.6450 C.2    79  HIS79       0.2264
     25  O         86.9170   49.0490   48.0470 O.2    79  HIS79      -0.2867
     26  CB        86.7770   51.8310   46.2460 C.3    79  HIS79       0.0745
     27  CG        85.9640   50.8130   45.5200 C.ar   79  HIS79       0.0817
     28  ND1       84.7070   50.4230   45.9440 N.ar   79  HIS79      -0.2268
     29  CD2       86.2220   50.1020   44.4000 C.ar   79  HIS79       0.1154
     30  CE1       84.2150   49.5500   45.0890 C.ar   79  HIS79       0.1986
     31  NE2       85.1400   49.2860   44.1880 N.ar   79  HIS79      -0.2212
     32  N         90.0260   46.5700   41.0150 N.3   116  ASP116     -0.1239
     33  CA        89.8960   47.8750   40.3840 C.3   116  ASP116      0.1674
     34  C         91.2400   48.5710   40.1590 C.2   116  ASP116      0.2266
     35  O         91.3000   49.7890   40.0060 O.2   116  ASP116     -0.2867
     36  CB        88.9580   48.7840   41.2010 C.3   116  ASP116      0.1410
     37  CG        87.5350   48.7380   40.7150 C.2   116  ASP116      0.3668
     38  OD1       87.3040   48.3890   39.5170 O.co2 116  ASP116     -0.2456
     39  OD2       86.6460   48.9320   41.5780 O.co2 116  ASP116     -0.2456
     40  N         92.3390   52.0530   37.7130 N.3   119  HIS119     -0.1241
     41  CA        91.0900   52.4790   37.0970 C.3   119  HIS119      0.1621
     42  C         91.2190   53.9460   36.6340 C.2   119  HIS119      0.2264
     43  O         91.6790   54.7970   37.3700 O.2   119  HIS119     -0.2867
     44  CB        89.9640   52.2920   38.1170 C.3   119  HIS119      0.0745
     45  CG        88.5850   52.3520   37.5390 C.ar  119  HIS119      0.0817
     46  ND1       88.0420   53.5100   37.0150 N.ar  119  HIS119     -0.2268
     47  CD2       87.5800   51.4450   37.5650 C.ar  119  HIS119      0.1154
     48  CE1       86.7960   53.2730   36.6460 C.ar  119  HIS119      0.1986
     49  NE2       86.4800   52.0390   37.0000 N.ar  119  HIS119     -0.2212
     50  N         84.1770   54.7800   32.7130 N.3   123  ASN123     -0.1240
     51  CA        83.8080   53.3720   32.5960 C.3   123  ASN123      0.1653
     52  C         83.9710   52.7610   31.1960 C.2   123  ASN123      0.2266
     53  O         84.4710   53.3930   30.2810 O.2   123  ASN123     -0.2867
     54  CB        82.4210   53.1280   33.1730 C.3   123  ASN123      0.1155
     55  CG        81.3010   53.6890   32.3240 C.2   123  ASN123      0.2627
     56  OD1       80.1930   53.8070   32.8220 O.2   123  ASN123     -0.2716
     57  ND2       81.5520   54.0080   31.0610 N.am  123  ASN123     -0.0877
     58  N         88.0860   47.4950   31.0380 N.3   144  LEU144     -0.1231
     59  CA        88.5740   47.8890   32.3550 C.3   144  LEU144      0.1693
     60  C         88.9300   46.6790   33.2050 C.2   144  LEU144      0.2591
     61  O         90.0190   46.6020   33.7670 O.2   144  LEU144     -0.2718
     62  CB        87.5760   48.8060   33.0910 C.3   144  LEU144      0.0284
     63  CG        87.4610   50.2680   32.6420 C.3   144  LEU144      0.0019
     64  CD1       86.6600   51.0250   33.6750 C.3   144  LEU144      0.0001
     65  CD2       88.8020   50.9100   32.4330 C.3   144  LEU144      0.0001
     66  N         88.0390   45.7010   33.2570 N.am  145  GLU145     -0.1979
     67  CA        88.2810   44.5440   34.1140 C.3   145  GLU145      0.1602
     68  C         89.4520   43.6670   33.6230 C.2   145  GLU145      0.2287
     69  O         90.2050   43.1030   34.4250 O.2   145  GLU145     -0.2864
     70  CB        86.9980   43.7190   34.2700 C.3   145  GLU145      0.0415
     71  CG        85.8690   44.4860   34.9570 C.3   145  GLU145      0.1163
     72  CD        85.1810   45.5540   34.0810 C.2   145  GLU145      0.3649
     73  OE1       85.2670   45.4890   32.8300 O.co2 145  GLU145     -0.2457
     74  OE2       84.5340   46.4640   34.6690 O.co2 145  GLU145     -0.2457
     75  N         83.2140   41.1780   37.7460 N.3   186  THR186     -0.1218
     76  CA        82.7840   42.4520   38.3270 C.3   186  THR186      0.1862
     77  C         82.3150   43.4900   37.2880 C.2   186  THR186      0.2287
     78  O         81.7170   44.5160   37.6510 O.2   186  THR186     -0.2866
     79  CB        83.8770   43.0820   39.2050 C.3   186  THR186      0.1770
     80  OG1       85.0120   43.3750   38.3960 O.3   186  THR186     -0.2211
     81  CG2       84.2640   42.1380   40.3720 C.3   186  THR186      0.0375
     82  N         79.7600   45.1410   35.3680 N.3   188  MET188     -0.1245
     83  CA        78.3190   45.2070   35.6560 C.3   188  MET188      0.1570
     84  C         77.4460   44.9560   34.4580 C.2   188  MET188      0.2261
     85  O         76.2660   44.6800   34.6380 O.2   188  MET188     -0.2867
     86  CB        77.8970   46.5670   36.2130 C.3   188  MET188      0.0387
     87  CG        77.9520   46.6700   37.7090 C.3   188  MET188      0.0595
     88  SD        77.0320   45.4800   38.7170 S.3   188  MET188     -0.1393
     89  CE        75.3550   46.0300   38.6330 C.3   188  MET188      0.0692
     90  N         81.5760   44.2240   45.9390 N.3   225  ASP225     -0.1225
     91  CA        81.9660   45.3680   45.1270 C.3   225  ASP225      0.1805
     92  C         80.9140   46.4680   45.2600 C.2   225  ASP225      0.2597
     93  O         81.2310   47.6470   45.2190 O.2   225  ASP225     -0.2718
     94  CB        82.1390   44.9180   43.6660 C.3   225  ASP225      0.1424
     95  CG        82.7920   45.9670   42.7670 C.2   225  ASP225      0.3668
     96  OD1       83.4120   46.9460   43.2400 O.co2 225  ASP225     -0.2456
     97  OD2       82.6370   45.8220   41.5340 O.co2 225  ASP225     -0.2456
     98  N         79.6550   46.0770   45.3410 N.am  226  ILE226     -0.1980
     99  CA        78.5620   47.0430   45.3220 C.3   226  ILE226      0.1595
    100  C         77.8600   47.1580   46.6890 C.2   226  ILE226      0.2287
    101  O         76.7360   47.6380   46.7720 O.2   226  ILE226     -0.2864
    102  CB        77.5540   46.7190   44.1660 C.3   226  ILE226      0.0276
    103  CG1       76.8200   45.4070   44.4370 C.3   226  ILE226      0.0022
    104  CG2       78.3060   46.7620   42.7930 C.3   226  ILE226      0.0022
    105  CD1       75.7200   45.0790   43.4240 C.3   226  ILE226      0.0001
    106  N         78.3150   49.0520   49.4600 N.3   228  ASN228     -0.1225
    107  CA        78.4460   50.2370   50.3260 C.3   228  ASN228      0.1785
    108  C         77.1900   50.4670   51.1730 C.2   228  ASN228      0.2597
    109  O         77.2910   50.7820   52.3510 O.2   228  ASN228     -0.2718
    110  CB        78.7550   51.5240   49.5170 C.3   228  ASN228      0.1169
    111  CG        80.2190   51.6220   49.0460 C.2   228  ASN228      0.2627
    112  OD1       81.1150   50.9740   49.5860 O.2   228  ASN228     -0.2716
    113  ND2       80.4560   52.4670   48.0430 N.am  228  ASN228     -0.0877
    114  N         76.0190   50.3930   50.5480 N.am  229  GLU229     -0.1979
    115  CA        74.7600   50.7260   51.2180 C.3   229  GLU229      0.1602
    116  C         74.3660   49.7220   52.3210 C.2   229  GLU229      0.2287
    117  O         73.3820   49.9280   53.0140 O.2   229  GLU229     -0.2864
    118  CB        73.6170   50.8230   50.1970 C.3   229  GLU229      0.0415
    119  CG        73.6330   52.0770   49.3610 C.3   229  GLU229      0.1163
    120  CD        73.4840   53.3460   50.2000 C.2   229  GLU229      0.3649
    121  OE1       74.0960   54.3720   49.8360 O.co2 229  GLU229     -0.2457
    122  OE2       72.7960   53.2890   51.2550 O.co2 229  GLU229     -0.2457
    123  N         79.9680   57.7970   50.2680 N.3   239  TRP239     -0.1227
    124  CA        80.3500   57.0970   49.0450 C.3   239  TRP239      0.1737
    125  C         79.5180   57.5610   47.8670 C.2   239  TRP239      0.2595
    126  O         80.0320   57.6600   46.7540 O.2   239  TRP239     -0.2718
    127  CB        80.2620   55.5780   49.2220 C.3   239  TRP239      0.0564
    128  CG        81.4730   55.0330   49.9010 C.ar  239  TRP239      0.0003
    129  CD1       81.5410   54.5260   51.1540 C.ar  239  TRP239      0.0946
    130  CD2       82.7990   54.9490   49.3600 C.ar  239  TRP239      0.0152
    131  NE1       82.8170   54.1330   51.4370 N.ar  239  TRP239     -0.2442
    132  CE2       83.6190   54.4150   50.3620 C.ar  239  TRP239      0.0810
    133  CE3       83.3760   55.3000   48.1240 C.ar  239  TRP239      0.0012
    134  CZ2       84.9960   54.2260   50.1860 C.ar  239  TRP239      0.0191
    135  CZ3       84.7420   55.1020   47.9460 C.ar  239  TRP239      0.0001
    136  CH2       85.5290   54.5370   48.9640 C.ar  239  TRP239      0.0015
    137  N         78.2570   57.9010   48.1100 N.am  240  VAL240     -0.1980
    138  CA        77.3650   58.2740   47.0190 C.3   240  VAL240      0.1595
    139  C         77.8400   59.5420   46.3030 C.2   240  VAL240      0.2287
    140  O         77.7810   59.6340   45.0740 O.2   240  VAL240     -0.2864
    141  CB        75.8820   58.4640   47.4720 C.3   240  VAL240      0.0276
    142  CG1       74.9690   58.5860   46.2310 C.3   240  VAL240      0.0022
    143  CG2       75.4170   57.2960   48.3580 C.3   240  VAL240      0.0022
    144  N         80.6460   58.6080   44.0890 N.3   243  LEU243     -0.1245
    145  CA        80.1650   57.9480   42.8790 C.3   243  LEU243      0.1561
    146  C         79.6580   58.9610   41.8370 C.2   243  LEU243      0.2260
    147  O         80.1260   58.9820   40.6910 O.2   243  LEU243     -0.2867
    148  CB        79.0650   56.9330   43.2130 C.3   243  LEU243      0.0270
    149  CG        78.6140   56.0520   42.0270 C.3   243  LEU243      0.0019
    150  CD1       79.7310   55.1410   41.5520 C.3   243  LEU243      0.0001
    151  CD2       77.3680   55.2520   42.3280 C.3   243  LEU243      0.0001
    152  N         80.7050   59.8480   38.0350 N.3   247  TYR247     -0.1241
    153  CA        79.7230   59.7930   36.9750 C.3   247  TYR247      0.1605
    154  C         79.6460   61.1260   36.1990 C.2   247  TYR247      0.2264
    155  O         79.4380   61.1280   34.9690 O.2   247  TYR247     -0.2867
    156  CB        78.3430   59.5310   37.5660 C.3   247  TYR247      0.0534
    157  CG        78.0190   58.1080   37.9250 C.ar  247  TYR247     -0.0201
    158  CD1       78.9690   57.1020   37.8410 C.ar  247  TYR247     -0.0009
    159  CD2       76.7470   57.7770   38.3820 C.ar  247  TYR247     -0.0009
    160  CE1       78.6290   55.7780   38.1000 C.ar  247  TYR247      0.0417
    161  CE2       76.4130   56.4730   38.6860 C.ar  247  TYR247      0.0417
    162  CZ        77.3480   55.4830   38.5380 C.ar  247  TYR247      0.1957
    163  OH        76.9410   54.2120   38.8160 O.3   247  TYR247     -0.2866
    164  N         71.4220   57.5910   33.6610 N.3   264  PHE264     -0.1241
    165  CA        71.8430   57.3330   35.0480 C.3   264  PHE264      0.1605
    166  C         73.1230   58.0610   35.5050 C.2   264  PHE264      0.2264
    167  O         73.3610   58.1620   36.7070 O.2   264  PHE264     -0.2867
    168  CB        71.8980   55.8260   35.3420 C.3   264  PHE264      0.0534
    169  CG        73.2010   55.1600   34.9840 C.ar  264  PHE264     -0.0203
    170  CD1       74.1850   54.9750   35.9500 C.ar  264  PHE264     -0.0042
    171  CD2       73.3670   54.5540   33.7460 C.ar  264  PHE264     -0.0042
    172  CE1       75.3640   54.2880   35.6530 C.ar  264  PHE264     -0.0003
    173  CE2       74.5350   53.8660   33.4350 C.ar  264  PHE264     -0.0003
    174  CZ        75.5330   53.7230   34.3910 C.ar  264  PHE264     -0.0000
    175  N         69.4490   58.0060   42.3410 N.3   275  ALA275     -0.1231
    176  CA        70.5190   57.0420   42.1760 C.3   275  ALA275      0.1694
    177  C         70.3810   55.8220   43.1290 C.2   275  ALA275      0.2591
    178  O         70.4410   54.6660   42.6980 O.2   275  ALA275     -0.2718
    179  CB        71.8840   57.7320   42.3640 C.3   275  ALA275      0.0304
    180  N         70.1310   56.0620   44.4080 N.am  276  GLN276     -0.1979
    181  CA        70.2010   54.9740   45.3650 C.3   276  GLN276      0.1601
    182  C         68.9090   54.1580   45.4480 C.2   276  GLN276      0.2287
    183  O         68.9630   52.9390   45.6160 O.2   276  GLN276     -0.2864
    184  CB        70.6050   55.4950   46.7420 C.3   276  GLN276      0.0394
    185  CG        72.0250   56.0820   46.8190 C.3   276  GLN276      0.0908
    186  CD        73.0820   55.1530   46.2310 C.2   276  GLN276      0.2608
    187  OE1       73.1510   54.9900   45.0230 O.2   276  GLN276     -0.2717
    188  NE2       73.8270   54.4640   47.0880 N.am  276  GLN276     -0.0878
    189  N         68.9520   51.5660   42.6410 N.3   279  PHE279     -0.1241
    190  CA        70.0150   50.5850   42.7690 C.3   279  PHE279      0.1605
    191  C         69.7200   49.6220   43.9350 C.2   279  PHE279      0.2264
    192  O         69.9190   48.4220   43.8250 O.2   279  PHE279     -0.2867
    193  CB        71.3480   51.2940   42.9940 C.3   279  PHE279      0.0534
    194  CG        72.5390   50.4150   42.8290 C.ar  279  PHE279     -0.0203
    195  CD1       72.9140   49.9750   41.5780 C.ar  279  PHE279     -0.0042
    196  CD2       73.3860   50.1730   43.8950 C.ar  279  PHE279     -0.0042
    197  CE1       74.0710   49.2320   41.4140 C.ar  279  PHE279     -0.0003
    198  CE2       74.5090   49.3850   43.7460 C.ar  279  PHE279     -0.0003
    199  CZ        74.8540   48.9050   42.5120 C.ar  279  PHE279     -0.0000
@<TRIPOS>BOND
     1    53    52    2
     2    58    59    1
     3    57    55   am
     4    52    51    1
     5    55    56    2
     6    55    54    1
     7    59    62    1
     8    59    60    1
     9    65    63    1
    10    51    50    1
    11    51    54    1
    12    63    62    1
    13    63    64    1
    14    73    72   ar
    15    60    66   am
    16    60    61    2
    17    66    67    1
    18   173   171   ar
    19   173   174   ar
    20    68    67    1
    21    68    69    2
    22   164   165    1
    23   171   169   ar
    24    72    74   ar
    25    72    71    1
    26    67    70    1
    27    70    71    1
    28   174   172   ar
    29    84    85    2
    30    84    83    1
    31   155   154    2
    32   169   168    1
    33   169   170   ar
    34   165   168    1
    35   165   166    1
    36    82    83    1
    37   166   167    2
    38   172   170   ar
    39    83    86    1
    40   154   153    1
    41    86    87    1
    42    42    41    1
    43    42    43    2
    44    48    49   ar
    45    48    46   ar
    46   153   156    1
    47   153   152    1
    48    49    47   ar
    49    46    45   ar
    50    41    40    1
    51    41    44    1
    52    77    78    2
    53    77    76    1
    54    45    47   ar
    55    45    44    1
    56   156   157    1
    57    87    88    1
    58    75    76    1
    59   158   157   ar
    60   158   160   ar
    61   157   159   ar
    62   160   162   ar
    63    76    79    1
    64   159   161   ar
    65    80    79    1
    66   162   161   ar
    67   162   163    1
    68    89    88    1
    69    79    81    1
    70    38    37   ar
    71    20    18   ar
    72    20    21   ar
    73    18    17   ar
    74    35    34    2
    75    21    19   ar
    76    34    33    1
    77    17    19   ar
    78    17    16    1
    79    33    32    1
    80    33    36    1
    81   147   146    2
    82    16    13    1
    83    37    36    1
    84    37    39   ar
    85   197   195   ar
    86   197   199   ar
    87    97    95   ar
    88   150   149    1
    89   195   194   ar
    90    15    14    2
    91   146   145    1
    92   149   151    1
    93   149   148    1
    94    13    12    1
    95    13    14    1
    96   176   175    1
    97   176   179    1
    98   176   177    1
    99    12     3   am
   100   199   198   ar
   101   189   190    1
   102   178   177    2
   103    95    96   ar
   104    95    94    1
   105   190   193    1
   106   190   191    1
   107   104   102    1
   108   194   193    1
   109   194   196   ar
   110   145   148    1
   111   145   144    1
   112     5     6    1
   113     5     2    1
   114   177   180   am
   115     8     6   ar
   116     8    10   ar
   117     1     2    1
   118   105   103    1
   119     6     7   ar
   120    10    11   ar
   121    94    91    1
   122     3     2    1
   123     3     4    2
   124   198   196   ar
   125   192   191    2
   126   102   103    1
   127   102    99    1
   128    31    29   ar
   129    31    30   ar
   130    29    27   ar
   131   180   181    1
   132     7     9   ar
   133    11     9   ar
   134   187   186    2
   135   140   139    2
   136    30    28   ar
   137    91    92    1
   138    91    90    1
   139    93    92    2
   140    92    98   am
   141    99    98    1
   142    99   100    1
   143   181   182    1
   144   181   184    1
   145   182   183    2
   146    27    28   ar
   147    27    26    1
   148   186   185    1
   149   186   188   am
   150   142   141    1
   151    26    23    1
   152   139   138    1
   153   100   101    2
   154   184   185    1
   155   126   125    2
   156   138   141    1
   157   138   137    1
   158   141   143    1
   159    24    23    1
   160    24    25    2
   161    23    22    1
   162   125   137   am
   163   125   124    1
   164   135   133   ar
   165   135   136   ar
   166   113   111   am
   167   133   130   ar
   168   136   134   ar
   169   124   127    1
   170   124   123    1
   171   111   110    1
   172   111   112    2
   173   127   128    1
   174   130   128   ar
   175   130   132   ar
   176   119   118    1
   177   119   120    1
   178   106   107    1
   179   110   107    1
   180   121   120   ar
   181   128   129   ar
   182   134   132   ar
   183   118   115    1
   184   120   122   ar
   185   107   108    1
   186   132   131   ar
   187   114   108   am
   188   114   115    1
   189   129   131   ar
   190   108   109    2
   191   115   116    1
   192   116   117    2
