@<TRIPOS>MOLECULE
tmp/3dynB01.pdb
 130 125 0 0 0
SMALL
GASTEIGER

@<TRIPOS>ATOM
      1  N        105.0570   30.2280    8.5010 N.3    74  PHE74      -0.1227
      2  CA       103.6820   29.9830    8.1360 C.3    74  PHE74       0.1736
      3  C        102.8150   31.2480    8.2810 C.2    74  PHE74       0.2595
      4  O        102.1950   31.6890    7.3240 O.2    74  PHE74      -0.2718
      5  CB       103.1170   28.8410    8.9790 C.3    74  PHE74       0.0547
      6  CG       101.7480   28.4200    8.5650 C.ar   74  PHE74      -0.0202
      7  CD1      101.5790   27.4140    7.6280 C.ar   74  PHE74      -0.0042
      8  CD2      100.6240   29.0550    9.0810 C.ar   74  PHE74      -0.0042
      9  CE1      100.3220   26.9930    7.2750 C.ar   74  PHE74      -0.0003
     10  CE2       99.3480   28.6510    8.6980 C.ar   74  PHE74      -0.0003
     11  CZ        99.2080   27.6560    7.7650 C.ar   74  PHE74      -0.0000
     12  N        102.7820   31.8130    9.4860 N.am   75  HIS75      -0.1975
     13  CA       101.8800   32.9150    9.8090 C.3    75  HIS75       0.1656
     14  C        102.4610   34.2290    9.3270 C.2    75  HIS75       0.2291
     15  O        102.8520   35.0880   10.1300 O.2    75  HIS75      -0.2864
     16  CB       101.5970   32.9760   11.3180 C.3    75  HIS75       0.0771
     17  CG       100.7800   31.8370   11.8050 C.ar   75  HIS75       0.0820
     18  ND1      101.3380   30.7450   12.4300 N.ar   75  HIS75      -0.2267
     19  CD2       99.4800   31.5270   11.5940 C.ar   75  HIS75       0.1154
     20  CE1      100.3960   29.8490   12.6680 C.ar   75  HIS75       0.1986
     21  NE2       99.2490   30.3200   12.2070 N.ar   75  HIS75      -0.2212
     22  N        100.1280   33.9500    3.9150 N.3    79  HIS79      -0.1241
     23  CA        99.0090   33.2640    4.5350 C.3    79  HIS79       0.1621
     24  C         97.7600   34.1430    4.6020 C.2    79  HIS79       0.2264
     25  O         96.6550   33.7180    4.2870 O.2    79  HIS79      -0.2867
     26  CB        99.4230   32.7940    5.9310 C.3    79  HIS79       0.0745
     27  CG        98.2980   32.2610    6.7480 C.ar   79  HIS79       0.0817
     28  ND1       97.5440   31.1640    6.3690 N.ar   79  HIS79      -0.2268
     29  CD2       97.7530   32.7190    7.9000 C.ar   79  HIS79       0.1154
     30  CE1       96.5870   30.9740    7.2680 C.ar   79  HIS79       0.1986
     31  NE2       96.6480   31.9510    8.1580 N.ar   79  HIS79      -0.2212
     32  N         95.6300   37.4200   11.3610 N.3   116  ASP116     -0.1239
     33  CA        96.8880   36.9160   11.9090 C.3   116  ASP116      0.1674
     34  C         97.9600   38.0060   12.0340 C.2   116  ASP116      0.2266
     35  O         99.1690   37.7190   12.0840 O.2   116  ASP116     -0.2867
     36  CB        97.4220   35.7430   11.0630 C.3   116  ASP116      0.1410
     37  CG        97.0650   34.3860   11.6360 C.2   116  ASP116      0.3668
     38  OD1       96.7960   34.2750   12.8510 O.co2 116  ASP116     -0.2456
     39  OD2       97.0570   33.4030   10.8610 O.co2 116  ASP116     -0.2456
     40  N        101.7850   38.1470   14.2490 N.3   119  HIS119     -0.1241
     41  CA       101.8580   36.8450   14.8760 C.3   119  HIS119      0.1621
     42  C        103.3210   36.5520   15.2400 C.2   119  HIS119      0.2264
     43  O        104.1950   36.7550   14.4340 O.2   119  HIS119     -0.2867
     44  CB       101.3260   35.8090   13.8800 C.3   119  HIS119      0.0745
     45  CG       101.0100   34.4820   14.4900 C.ar  119  HIS119      0.0817
     46  ND1      101.9730   33.6720   15.0630 N.ar  119  HIS119     -0.2268
     47  CD2       99.8460   33.7920   14.5540 C.ar  119  HIS119      0.1154
     48  CE1      101.4000   32.5720   15.5140 C.ar  119  HIS119      0.1986
     49  NE2      100.1160   32.6060   15.1940 N.ar  119  HIS119     -0.2212
     50  N         94.8410   35.9200   19.2730 N.3   145  GLU145     -0.1245
     51  CA        93.7480   36.4140   18.4780 C.3   145  GLU145      0.1567
     52  C         93.2470   37.7540   18.9720 C.2   145  GLU145      0.2260
     53  O         92.9360   38.6310   18.1690 O.2   145  GLU145     -0.2867
     54  CB        92.6100   35.3960   18.4300 C.3   145  GLU145      0.0388
     55  CG        92.9840   34.0930   17.7140 C.3   145  GLU145      0.1160
     56  CD        93.8930   33.1410   18.5390 C.2   145  GLU145      0.3649
     57  OE1       93.9880   33.2900   19.8000 O.co2 145  GLU145     -0.2457
     58  OE2       94.5720   32.2830   17.8970 O.co2 145  GLU145     -0.2457
     59  N         95.9370   40.0900   17.4610 N.3   148  HIS148     -0.1241
     60  CA        95.7420   40.3300   16.0380 C.3   148  HIS148      0.1621
     61  C         94.6600   41.3800   15.8330 C.2   148  HIS148      0.2264
     62  O         94.7880   42.3020   14.9960 O.2   148  HIS148     -0.2867
     63  CB        95.3090   39.0580   15.3040 C.3   148  HIS148      0.0745
     64  CG        96.2110   37.8770   15.5140 C.ar  148  HIS148      0.0817
     65  ND1       97.5870   37.9650   15.4950 N.ar  148  HIS148     -0.2268
     66  CD2       95.9220   36.5580   15.6440 C.ar  148  HIS148      0.1154
     67  CE1       98.1040   36.7740   15.7430 C.ar  148  HIS148      0.1986
     68  NE2       97.1170   35.8930   15.8070 N.ar  148  HIS148     -0.2212
     69  N         88.8680   32.4010   15.2010 N.3   186  THR186     -0.1218
     70  CA        89.9180   31.6230   14.5540 C.3   186  THR186      0.1862
     71  C         90.8400   30.8830   15.5510 C.2   186  THR186      0.2287
     72  O         91.6900   30.1090   15.1380 O.2   186  THR186     -0.2866
     73  CB        90.7760   32.5240   13.6000 C.3   186  THR186      0.1770
     74  OG1       91.3650   33.6170   14.3370 O.3   186  THR186     -0.2211
     75  CG2       89.9000   33.0970   12.4630 C.3   186  THR186      0.0375
     76  N         91.8480   27.9890   17.4960 N.3   188  MET188     -0.1245
     77  CA        91.4870   26.5760   17.3160 C.3   188  MET188      0.1570
     78  C         91.1300   25.8570   18.6130 C.2   188  MET188      0.2261
     79  O         90.4550   24.8560   18.5740 O.2   188  MET188     -0.2867
     80  CB        92.6000   25.8040   16.6240 C.3   188  MET188      0.0387
     81  CG        92.6160   25.9740   15.1270 C.3   188  MET188      0.0595
     82  SD        91.1170   25.4130   14.3370 S.3   188  MET188     -0.1393
     83  CE        91.2680   23.6400   14.5020 C.3   188  MET188      0.0692
     84  N         90.6400   30.0260    6.8820 N.3   225  ASP225     -0.1225
     85  CA        91.9100   30.0390    7.6160 C.3   225  ASP225      0.1805
     86  C         92.6770   28.7110    7.4420 C.2   225  ASP225      0.2597
     87  O         93.9150   28.6990    7.3600 O.2   225  ASP225     -0.2718
     88  CB        91.6330   30.3220    9.1000 C.3   225  ASP225      0.1424
     89  CG        92.8840   30.6610    9.9060 C.2   225  ASP225      0.3668
     90  OD1       93.9430   31.0270    9.3280 O.co2 225  ASP225     -0.2456
     91  OD2       92.7570   30.6490   11.1590 O.co2 225  ASP225     -0.2456
     92  N         91.9630   27.5930    7.4900 N.am  226  ILE226     -0.1980
     93  CA        92.6260   26.3070    7.4610 C.3   226  ILE226      0.1595
     94  C         92.4130   25.5990    6.1130 C.2   226  ILE226      0.2287
     95  O         92.5520   24.3850    6.0210 O.2   226  ILE226     -0.2864
     96  CB        92.1990   25.4300    8.6770 C.3   226  ILE226      0.0276
     97  CG1       90.6950   25.0670    8.5990 C.3   226  ILE226      0.0022
     98  CG2       92.5580   26.1730   10.0080 C.3   226  ILE226      0.0022
     99  CD1       90.1850   24.1400    9.7340 C.3   226  ILE226      0.0001
    100  N        104.3880   25.1170    7.9340 N.3   243  LEU243     -0.1245
    101  CA       103.7310   24.8770    9.2240 C.3   243  LEU243      0.1561
    102  C        104.6330   24.0920   10.2010 C.2   243  LEU243      0.2260
    103  O        104.8420   24.4950   11.3610 O.2   243  LEU243     -0.2867
    104  CB       102.4140   24.1240    8.9980 C.3   243  LEU243      0.0270
    105  CG       101.5310   24.0250   10.2570 C.3   243  LEU243      0.0019
    106  CD1      101.1710   25.3900   10.7840 C.3   243  LEU243      0.0001
    107  CD2      100.2940   23.2070    9.9980 C.3   243  LEU243      0.0001
    108  N        106.1010   24.9650   13.8860 N.3   247  TYR247     -0.1241
    109  CA       105.8800   24.0390   15.0070 C.3   247  TYR247      0.1605
    110  C        107.2060   23.6190   15.6330 C.2   247  TYR247      0.2264
    111  O        107.3400   23.5760   16.8530 O.2   247  TYR247     -0.2867
    112  CB       105.1140   22.7940   14.5400 C.3   247  TYR247      0.0534
    113  CG       103.6090   22.9700   14.3440 C.ar  247  TYR247     -0.0201
    114  CD1      103.0050   24.2020   14.4610 C.ar  247  TYR247     -0.0009
    115  CD2      102.8210   21.9000   13.9360 C.ar  247  TYR247     -0.0009
    116  CE1      101.6310   24.3520   14.2890 C.ar  247  TYR247      0.0417
    117  CE2      101.4590   22.0430   13.7080 C.ar  247  TYR247      0.0417
    118  CZ       100.8660   23.2730   13.9360 C.ar  247  TYR247      0.1957
    119  OH        99.5110   23.4750   13.7490 O.3   247  TYR247     -0.2866
    120  N         94.2680   15.7120   10.7350 N.3   279  PHE279     -0.1241
    121  CA        93.7450   17.0650   10.5390 C.3   279  PHE279      0.1605
    122  C         92.7160   17.1100    9.4210 C.2   279  PHE279      0.2264
    123  O         91.6120   17.6480    9.6000 O.2   279  PHE279     -0.2867
    124  CB        94.8760   18.0490   10.2290 C.3   279  PHE279      0.0534
    125  CG        94.4410   19.4940   10.2440 C.ar  279  PHE279     -0.0203
    126  CD1       94.0440   20.1020   11.4350 C.ar  279  PHE279     -0.0042
    127  CD2       94.3510   20.2240    9.0680 C.ar  279  PHE279     -0.0042
    128  CE1       93.5970   21.4430   11.4560 C.ar  279  PHE279     -0.0003
    129  CE2       93.9010   21.5580    9.0850 C.ar  279  PHE279     -0.0003
    130  CZ        93.5380   22.1590   10.2810 C.ar  279  PHE279     -0.0000
@<TRIPOS>BOND
     1    22    23    1
     2    25    24    2
     3    23    24    1
     4    23    26    1
     5    26    27    1
     6    95    94    2
     7    94    93    1
     8    28    27   ar
     9    28    30   ar
    10    27    29   ar
    11    84    85    1
    12    30    31   ar
    13     9     7   ar
    14     9    11   ar
    15     4     3    2
    16    87    86    2
    17    86    92   am
    18    86    85    1
    19    93    92    1
    20    93    96    1
    21    85    88    1
    22     7     6   ar
    23    11    10   ar
    24    29    31   ar
    25   100   101    1
    26     2     3    1
    27     2     1    1
    28     2     5    1
    29     3    12   am
    30     6     5    1
    31     6     8   ar
    32    97    96    1
    33    97    99    1
    34    96    98    1
    35    10     8   ar
    36   104   101    1
    37   104   105    1
    38   127   129   ar
    39   127   125   ar
    40   129   130   ar
    41    88    89    1
    42   101   102    1
    43    14    13    1
    44    14    15    2
    45    90    89   ar
    46   122   123    2
    47   122   121    1
    48    12    13    1
    49    13    16    1
    50    89    91   ar
    51   107   105    1
    52   102   103    2
    53   124   125    1
    54   124   121    1
    55   125   126   ar
    56   105   106    1
    57   130   128   ar
    58   121   120    1
    59    39    37   ar
    60    36    37    1
    61    36    33    1
    62    16    17    1
    63    32    33    1
    64   126   128   ar
    65    19    17   ar
    66    19    21   ar
    67    37    38   ar
    68    17    18   ar
    69    33    34    1
    70    34    35    2
    71    21    20   ar
    72    18    20   ar
    73    75    73    1
    74    73    74    1
    75    73    70    1
    76   117   115   ar
    77   117   118   ar
    78   119   118    1
    79    44    45    1
    80    44    41    1
    81   108   109    1
    82   115   113   ar
    83   118   116   ar
    84    40    41    1
    85   116   114   ar
    86    82    83    1
    87    82    81    1
    88   113   114   ar
    89   113   112    1
    90    43    42    2
    91    45    47   ar
    92    45    46   ar
    93   112   109    1
    94    47    49   ar
    95    70    69    1
    96    70    71    1
    97    41    42    1
    98    62    61    2
    99   109   110    1
   100    46    48   ar
   101    81    80    1
   102    72    71    2
   103    49    48   ar
   104    63    64    1
   105    63    60    1
   106    65    64   ar
   107    65    67   ar
   108    64    66   ar
   109   110   111    2
   110    66    68   ar
   111    67    68   ar
   112    61    60    1
   113    60    59    1
   114    80    77    1
   115    77    76    1
   116    77    78    1
   117    55    54    1
   118    55    56    1
   119    58    56   ar
   120    53    52    2
   121    54    51    1
   122    51    52    1
   123    51    50    1
   124    56    57   ar
   125    79    78    2
