@<TRIPOS>MOLECULE
tmp/3dysA00.pdb
 176 169 0 0 0
SMALL
GASTEIGER

@<TRIPOS>ATOM
      1  N         86.4120   57.6940   43.6650 N.3    70  PHE70      -0.1227
      2  CA        85.7940   56.4540   44.0850 C.3    70  PHE70       0.1736
      3  C         86.7230   55.2350   43.8880 C.2    70  PHE70       0.2595
      4  O         86.9900   54.4940   44.8340 O.2    70  PHE70      -0.2718
      5  CB        84.4860   56.2360   43.3090 C.3    70  PHE70       0.0547
      6  CG        83.6600   55.0760   43.8120 C.ar   70  PHE70      -0.0202
      7  CD1       82.6230   55.2830   44.7210 C.ar   70  PHE70      -0.0042
      8  CD2       83.9360   53.7760   43.4070 C.ar   70  PHE70      -0.0042
      9  CE1       81.8530   54.2170   45.1780 C.ar   70  PHE70      -0.0003
     10  CE2       83.1660   52.7080   43.8520 C.ar   70  PHE70      -0.0003
     11  CZ        82.1260   52.9290   44.7390 C.ar   70  PHE70      -0.0000
     12  N         87.2000   55.0270   42.6630 N.am   71  HIS71      -0.1975
     13  CA        87.9310   53.8030   42.3240 C.3    71  HIS71       0.1656
     14  C         89.4010   53.9640   42.6750 C.2    71  HIS71       0.2291
     15  O         90.2630   54.1620   41.8320 O.2    71  HIS71      -0.2864
     16  CB        87.7130   53.4150   40.8640 C.3    71  HIS71       0.0771
     17  CG        86.2990   53.0160   40.5620 C.ar   71  HIS71       0.0820
     18  ND1       85.3720   53.8940   40.0250 N.ar   71  HIS71      -0.2267
     19  CD2       85.6540   51.8350   40.7290 C.ar   71  HIS71       0.1154
     20  CE1       84.2230   53.2570   39.8610 C.ar   71  HIS71       0.1986
     21  NE2       84.3650   52.0090   40.2830 N.ar   71  HIS71      -0.2212
     22  N         88.6780   52.1410   48.2590 N.3    75  HIS75      -0.1241
     23  CA        87.6790   51.2390   47.7150 C.3    75  HIS75       0.1621
     24  C         88.1700   49.7820   47.7150 C.2    75  HIS75       0.2264
     25  O         87.4500   48.8890   48.1300 O.2    75  HIS75      -0.2867
     26  CB        87.2510   51.6730   46.3040 C.3    75  HIS75       0.0745
     27  CG        86.3780   50.6760   45.6120 C.ar   75  HIS75       0.0817
     28  ND1       85.1340   50.3210   46.0850 N.ar   75  HIS75      -0.2268
     29  CD2       86.5750   49.9450   44.4870 C.ar   75  HIS75       0.1154
     30  CE1       84.5980   49.4200   45.2790 C.ar   75  HIS75       0.1986
     31  NE2       85.4560   49.1660   44.3050 N.ar   75  HIS75      -0.2212
     32  N         90.9460   43.9400   42.2710 N.3   111  HIS111     -0.1226
     33  CA        89.8710   43.9730   41.2730 C.3   111  HIS111      0.1752
     34  C         89.6650   45.2790   40.5040 C.2   111  HIS111      0.2596
     35  O         89.0260   45.2480   39.4600 O.2   111  HIS111     -0.2718
     36  CB        88.5350   43.5780   41.9070 C.3   111  HIS111      0.0759
     37  CG        87.8370   44.7150   42.5670 C.ar  111  HIS111      0.0818
     38  ND1       88.1360   45.1140   43.8440 N.ar  111  HIS111     -0.2268
     39  CD2       86.8950   45.5740   42.1090 C.ar  111  HIS111      0.1154
     40  CE1       87.4070   46.1770   44.1500 C.ar  111  HIS111      0.1986
     41  NE2       86.6470   46.4810   43.1120 N.ar  111  HIS111     -0.2212
     42  N         90.1660   46.4110   41.0160 N.am  112  ASP112     -0.1974
     43  CA        90.0390   47.6860   40.3380 C.3   112  ASP112      0.1709
     44  C         91.3950   48.3690   40.0880 C.2   112  ASP112      0.2293
     45  O         91.4650   49.5900   39.9180 O.2   112  ASP112     -0.2864
     46  CB        89.1240   48.6320   41.1360 C.3   112  ASP112      0.1436
     47  CG        87.6680   48.5170   40.7570 C.2   112  ASP112      0.3671
     48  OD1       87.3280   48.0660   39.6240 O.co2 112  ASP112     -0.2456
     49  OD2       86.8490   48.8800   41.6300 O.co2 112  ASP112     -0.2456
     50  N         92.5050   51.7750   37.8140 N.3   115  HIS115     -0.1241
     51  CA        91.2460   52.2310   37.2340 C.3   115  HIS115      0.1621
     52  C         91.4250   53.7040   36.8760 C.2   115  HIS115      0.2264
     53  O         91.8410   54.4790   37.7130 O.2   115  HIS115     -0.2867
     54  CB        90.1300   52.0390   38.2510 C.3   115  HIS115      0.0745
     55  CG        88.7430   52.1140   37.6910 C.ar  115  HIS115      0.0817
     56  ND1       88.1990   53.2740   37.1800 N.ar  115  HIS115     -0.2268
     57  CD2       87.7540   51.1930   37.6670 C.ar  115  HIS115      0.1154
     58  CE1       86.9510   53.0420   36.8120 C.ar  115  HIS115      0.1986
     59  NE2       86.6500   51.7890   37.1090 N.ar  115  HIS115     -0.2212
     60  N         88.2040   47.3300   31.1840 N.3   140  LEU140     -0.1231
     61  CA        88.7250   47.7140   32.4880 C.3   140  LEU140      0.1693
     62  C         89.1070   46.5070   33.2960 C.2   140  LEU140      0.2591
     63  O         90.1980   46.4270   33.8400 O.2   140  LEU140     -0.2718
     64  CB        87.7060   48.5670   33.2550 C.3   140  LEU140      0.0284
     65  CG        87.5250   50.0140   32.7880 C.3   140  LEU140      0.0019
     66  CD1       86.4280   50.6530   33.6270 C.3   140  LEU140      0.0001
     67  CD2       88.8210   50.8020   32.8620 C.3   140  LEU140      0.0001
     68  N         88.2140   45.5390   33.3530 N.am  141  GLU141     -0.1979
     69  CA        88.4430   44.3710   34.1800 C.3   141  GLU141      0.1602
     70  C         89.5940   43.5110   33.6440 C.2   141  GLU141      0.2287
     71  O         90.3860   42.9840   34.4080 O.2   141  GLU141     -0.2864
     72  CB        87.1530   43.5590   34.3100 C.3   141  GLU141      0.0415
     73  CG        86.0960   44.2500   35.1070 C.3   141  GLU141      0.1163
     74  CD        85.4050   45.4110   34.3540 C.2   141  GLU141      0.3649
     75  OE1       85.3870   45.4360   33.0880 O.co2 141  GLU141     -0.2457
     76  OE2       84.8640   46.2990   35.0650 O.co2 141  GLU141     -0.2457
     77  N         83.4210   41.0890   37.9730 N.3   182  THR182     -0.1218
     78  CA        83.0580   42.3600   38.5920 C.3   182  THR182      0.1862
     79  C         82.5300   43.3830   37.5710 C.2   182  THR182      0.2287
     80  O         82.0190   44.4410   37.9600 O.2   182  THR182     -0.2866
     81  CB        84.2150   42.9620   39.4210 C.3   182  THR182      0.1770
     82  OG1       85.3300   43.2350   38.5810 O.3   182  THR182     -0.2211
     83  CG2       84.6390   42.0220   40.5370 C.3   182  THR182      0.0375
     84  N         79.8550   44.9800   35.8590 N.3   184  MET184     -0.1245
     85  CA        78.4040   45.0930   36.0880 C.3   184  MET184      0.1570
     86  C         77.5190   44.8940   34.8670 C.2   184  MET184      0.2261
     87  O         76.3470   44.5940   35.0300 O.2   184  MET184     -0.2867
     88  CB        78.0410   46.4350   36.7440 C.3   184  MET184      0.0387
     89  CG        78.3560   46.4790   38.2300 C.3   184  MET184      0.0595
     90  SD        77.4400   45.2460   39.2360 S.3   184  MET184     -0.1393
     91  CE        75.7620   45.8500   39.0160 C.3   184  MET184      0.0692
     92  N         81.9470   44.0440   46.2190 N.3   221  ASP221     -0.1225
     93  CA        82.2870   45.1820   45.3660 C.3   221  ASP221      0.1805
     94  C         81.2280   46.2820   45.4930 C.2   221  ASP221      0.2597
     95  O         81.5600   47.4550   45.5790 O.2   221  ASP221     -0.2718
     96  CB        82.4160   44.7090   43.9110 C.3   221  ASP221      0.1424
     97  CG        83.0740   45.7210   42.9830 C.2   221  ASP221      0.3668
     98  OD1       83.6570   46.7170   43.4280 O.co2 221  ASP221     -0.2456
     99  OD2       83.0070   45.4990   41.7660 O.co2 221  ASP221     -0.2456
    100  N         79.9610   45.8940   45.5230 N.am  222  ILE222     -0.1980
    101  CA        78.8660   46.8660   45.4910 C.3   222  ILE222      0.1595
    102  C         78.1960   47.0530   46.8590 C.2   222  ILE222      0.2287
    103  O         77.0850   47.5510   46.9460 O.2   222  ILE222     -0.2864
    104  CB        77.8420   46.5300   44.3780 C.3   222  ILE222      0.0276
    105  CG1       77.1770   45.1730   44.6070 C.3   222  ILE222      0.0022
    106  CG2       78.5360   46.5620   43.0120 C.3   222  ILE222      0.0022
    107  CD1       76.0770   44.8680   43.6130 C.3   222  ILE222      0.0001
    108  N         78.8130   49.0060   49.6180 N.3   224  ASN224     -0.1225
    109  CA        78.9570   50.1930   50.4690 C.3   224  ASN224      0.1785
    110  C         77.6940   50.4700   51.3020 C.2   224  ASN224      0.2597
    111  O         77.7900   50.9070   52.4470 O.2   224  ASN224     -0.2718
    112  CB        79.2930   51.4600   49.6430 C.3   224  ASN224      0.1169
    113  CG        80.7310   51.4870   49.1130 C.2   224  ASN224      0.2627
    114  OD1       81.6300   50.8070   49.6260 O.2   224  ASN224     -0.2716
    115  ND2       80.9490   52.3020   48.0710 N.am  224  ASN224     -0.0877
    116  N         76.5150   50.2380   50.7200 N.am  225  GLU225     -0.1979
    117  CA        75.2520   50.5520   51.4090 C.3   225  GLU225      0.1602
    118  C         74.8780   49.5660   52.5280 C.2   225  GLU225      0.2287
    119  O         73.9270   49.8120   53.2810 O.2   225  GLU225     -0.2864
    120  CB        74.1020   50.6700   50.4030 C.3   225  GLU225      0.0415
    121  CG        74.1540   51.9150   49.5330 C.3   225  GLU225      0.1163
    122  CD        74.0080   53.2180   50.3250 C.2   225  GLU225      0.3649
    123  OE1       74.5510   54.2460   49.8630 O.co2 225  GLU225     -0.2457
    124  OE2       73.3600   53.2200   51.4010 O.co2 225  GLU225     -0.2457
    125  N         78.8000   57.8200   48.1120 N.3   236  VAL236     -0.1245
    126  CA        77.8770   58.1480   47.0220 C.3   236  VAL236      0.1561
    127  C         78.3140   59.4360   46.3300 C.2   236  VAL236      0.2260
    128  O         78.3000   59.5410   45.1050 O.2   236  VAL236     -0.2867
    129  CB        76.4310   58.2970   47.5070 C.3   236  VAL236      0.0252
    130  CG1       75.4850   58.4210   46.3040 C.3   236  VAL236      0.0019
    131  CG2       76.0330   57.0970   48.3880 C.3   236  VAL236      0.0019
    132  N         81.2580   58.5580   44.1170 N.3   239  LEU239     -0.1245
    133  CA        80.8250   57.9180   42.8870 C.3   239  LEU239      0.1561
    134  C         80.2880   58.9470   41.8920 C.2   239  LEU239      0.2260
    135  O         80.7110   58.9640   40.7310 O.2   239  LEU239     -0.2867
    136  CB        79.7500   56.8500   43.1700 C.3   239  LEU239      0.0270
    137  CG        79.3380   55.9760   41.9730 C.3   239  LEU239      0.0019
    138  CD1       80.5650   55.2710   41.4000 C.3   239  LEU239      0.0001
    139  CD2       78.2200   54.9560   42.3200 C.3   239  LEU239      0.0001
    140  N         81.1770   59.8900   38.0260 N.3   243  TYR243     -0.1241
    141  CA        80.1440   59.9320   37.0040 C.3   243  TYR243      0.1605
    142  C         80.0420   61.3040   36.3170 C.2   243  TYR243      0.2264
    143  O         79.8910   61.3830   35.0920 O.2   243  TYR243     -0.2867
    144  CB        78.7950   59.5820   37.6250 C.3   243  TYR243      0.0534
    145  CG        78.5550   58.1160   37.8830 C.ar  243  TYR243     -0.0201
    146  CD1       79.5830   57.1740   37.7730 C.ar  243  TYR243     -0.0009
    147  CD2       77.2900   57.6660   38.2540 C.ar  243  TYR243     -0.0009
    148  CE1       79.3520   55.8420   37.9880 C.ar  243  TYR243      0.0417
    149  CE2       77.0580   56.3180   38.4960 C.ar  243  TYR243      0.0417
    150  CZ        78.0900   55.4210   38.3480 C.ar  243  TYR243      0.1957
    151  OH        77.8700   54.0890   38.5770 O.3   243  TYR243     -0.2866
    152  N         70.2920   58.0100   42.5380 N.3   271  ALA271     -0.1231
    153  CA        71.3610   57.0170   42.2980 C.3   271  ALA271      0.1694
    154  C         71.2000   55.7310   43.1390 C.2   271  ALA271      0.2591
    155  O         71.4450   54.6300   42.6470 O.2   271  ALA271     -0.2718
    156  CB        72.7450   57.6490   42.5640 C.3   271  ALA271      0.0304
    157  N         70.7570   55.8650   44.3870 N.am  272  GLN272     -0.1979
    158  CA        70.7650   54.7540   45.3360 C.3   272  GLN272      0.1601
    159  C         69.4680   53.9830   45.4460 C.2   272  GLN272      0.2287
    160  O         69.4860   52.7830   45.6950 O.2   272  GLN272     -0.2864
    161  CB        71.1810   55.2590   46.7190 C.3   272  GLN272      0.0394
    162  CG        72.5820   55.8600   46.7790 C.3   272  GLN272      0.0908
    163  CD        73.6440   54.9080   46.2680 C.2   272  GLN272      0.2608
    164  OE1       73.8030   54.7380   45.0630 O.2   272  GLN272     -0.2717
    165  NE2       74.3740   54.2810   47.1810 N.am  272  GLN272     -0.0878
    166  N         69.2350   51.3410   42.7370 N.3   275  PHE275     -0.1241
    167  CA        70.3560   50.4380   42.9350 C.3   275  PHE275      0.1605
    168  C         70.1450   49.5030   44.1280 C.2   275  PHE275      0.2264
    169  O         70.4010   48.3190   44.0290 O.2   275  PHE275     -0.2867
    170  CB        71.6540   51.2130   43.1070 C.3   275  PHE275      0.0534
    171  CG        72.8740   50.3620   42.9860 C.ar  275  PHE275     -0.0203
    172  CD1       73.2480   49.8480   41.7490 C.ar  275  PHE275     -0.0042
    173  CD2       73.6530   50.0720   44.1030 C.ar  275  PHE275     -0.0042
    174  CE1       74.3710   49.0500   41.6370 C.ar  275  PHE275     -0.0003
    175  CE2       74.7930   49.2720   43.9890 C.ar  275  PHE275     -0.0003
    176  CZ        75.1460   48.7590   42.7660 C.ar  275  PHE275     -0.0000
@<TRIPOS>BOND
     1    60    61    1
     2    61    64    1
     3    61    62    1
     4    65    67    1
     5    65    64    1
     6    65    66    1
     7    75    74   ar
     8    62    68   am
     9    62    63    2
    10    68    69    1
    11    70    69    1
    12    70    71    2
    13    69    72    1
    14    72    73    1
    15    74    76   ar
    16    74    73    1
    17    86    87    2
    18    86    85    1
    19   143   142    2
    20    84    85    1
    21    85    88    1
    22   142   141    1
    23    88    89    1
    24    58    59   ar
    25    58    56   ar
    26    52    51    1
    27    52    53    2
    28   141   144    1
    29   141   140    1
    30    59    57   ar
    31    56    55   ar
    32    51    50    1
    33    51    54    1
    34    79    80    2
    35    79    78    1
    36   144   145    1
    37    57    55   ar
    38    55    54    1
    39   146   145   ar
    40   146   148   ar
    41   145   147   ar
    42    77    78    1
    43   148   150   ar
    44    89    90    1
    45   147   149   ar
    46   150   149   ar
    47   150   151    1
    48    82    81    1
    49    78    81    1
    50    91    90    1
    51    81    83    1
    52    35    34    2
    53    48    47   ar
    54    20    18   ar
    55    20    21   ar
    56    45    44    2
    57    18    17   ar
    58    44    43    1
    59    21    19   ar
    60    43    42    1
    61    43    46    1
    62    34    42   am
    63    34    33    1
    64    17    19   ar
    65    17    16    1
    66   135   134    2
    67    47    46    1
    68    47    49   ar
    69    16    13    1
    70    33    36    1
    71    33    32    1
    72   138   137    1
    73   174   172   ar
    74   174   176   ar
    75   172   171   ar
    76    99    97   ar
    77    15    14    2
    78   134   133    1
    79    36    37    1
    80   137   139    1
    81   137   136    1
    82    39    37   ar
    83    39    41   ar
    84   153   152    1
    85   153   156    1
    86   153   154    1
    87    13    12    1
    88    13    14    1
    89    37    38   ar
    90   155   154    2
    91    12     3   am
    92   166   167    1
    93   176   175   ar
    94   133   136    1
    95   133   132    1
    96   167   170    1
    97   167   168    1
    98    97    98   ar
    99    97    96    1
   100   171   170    1
   101   171   173   ar
   102   106   104    1
   103    41    40   ar
   104   154   157   am
   105     5     6    1
   106     5     2    1
   107     8     6   ar
   108     8    10   ar
   109   107   105    1
   110     1     2    1
   111     6     7   ar
   112    38    40   ar
   113    10    11   ar
   114     3     2    1
   115     3     4    2
   116    96    93    1
   117   175   173   ar
   118   169   168    2
   119    31    29   ar
   120    31    30   ar
   121   104   105    1
   122   104   101    1
   123   157   158    1
   124    29    27   ar
   125     7     9   ar
   126    11     9   ar
   127   164   163    2
   128   128   127    2
   129    30    28   ar
   130   158   159    1
   131   158   161    1
   132    93    94    1
   133    93    92    1
   134   159   160    2
   135   101   100    1
   136   101   102    1
   137    94   100   am
   138    94    95    2
   139    27    28   ar
   140    27    26    1
   141   163   162    1
   142   163   165   am
   143    26    23    1
   144   130   129    1
   145   127   126    1
   146   161   162    1
   147   102   103    2
   148   126   129    1
   149   126   125    1
   150   129   131    1
   151    23    24    1
   152    23    22    1
   153    24    25    2
   154   115   113   am
   155   113   114    2
   156   113   112    1
   157   121   122    1
   158   121   120    1
   159   108   109    1
   160   112   109    1
   161   123   122   ar
   162   122   124   ar
   163   120   117    1
   164   109   110    1
   165   116   110   am
   166   116   117    1
   167   110   111    2
   168   117   118    1
   169   118   119    2
