@<TRIPOS>MOLECULE
tmp/3dz8A00.pdb
 123 116 0 0 0
SMALL
GASTEIGER

@<TRIPOS>ATOM
      1  N          4.7220   15.5990   17.9970 N.3    22  SER22      -0.1202
      2  CA         3.7040   14.9650   18.8040 C.3    22  SER22       0.2020
      3  C          2.8380   14.1450   17.8840 C.2    22  SER22       0.2619
      4  O          2.4640   14.5950   16.7830 O.2    22  SER22      -0.2717
      5  CB         2.8160   16.0030   19.5030 C.3    22  SER22       0.2103
      6  OG         3.5790   16.8820   20.3280 O.3    22  SER22      -0.2182
      7  N          2.5850   12.9270   18.3140 N.am   23  SER23      -0.1937
      8  CA         1.5810   12.0740   17.7430 C.3    23  SER23       0.2055
      9  C          2.0400   11.3180   16.4650 C.2    23  SER23       0.2643
     10  O          1.2330   10.6320   15.8320 O.2    23  SER23      -0.2714
     11  CB         0.2770   12.8620   17.5410 C.3    23  SER23       0.2130
     12  OG        -0.8020   11.9850   17.3980 O.3    23  SER23      -0.2179
     13  N          3.3380   11.3940   16.1330 N.am   24  VAL24      -0.1963
     14  CA         3.8910   10.5710   15.0330 C.3    24  VAL24       0.1727
     15  C          4.0590    9.0490   15.3690 C.2    24  VAL24       0.2617
     16  O          4.2520    8.2280   14.4710 O.2    24  VAL24      -0.2715
     17  CB         5.1940   11.1590   14.4980 C.3    24  VAL24       0.0290
     18  CG1        4.9550   12.6590   14.0990 C.3    24  VAL24       0.0023
     19  CG2        6.3360   11.0030   15.5200 C.3    24  VAL24       0.0023
     20  N          4.0100    8.6830   16.6500 N.am   25  GLY25      -0.1940
     21  CA         4.1220    7.2780   17.0740 C.3    25  GLY25       0.2014
     22  C          5.3890    6.8880   17.8260 C.2    25  GLY25       0.2639
     23  O          5.7330    5.6970   17.8810 O.2    25  GLY25      -0.2714
     24  N          6.0690    7.8800   18.4000 N.am   26  LYS26      -0.1963
     25  CA         7.3080    7.6560   19.1480 C.3    26  LYS26       0.1728
     26  C          7.1090    6.6860   20.3120 C.2    26  LYS26       0.2617
     27  O          7.8450    5.7140   20.4480 O.2    26  LYS26      -0.2715
     28  CB         7.8710    8.9810   19.6830 C.3    26  LYS26       0.0311
     29  CG         8.2630    9.9790   18.5670 C.3    26  LYS26       0.0038
     30  CD         8.9030   11.2470   19.1240 C.3    26  LYS26       0.0206
     31  CE         7.9560   12.0410   20.1000 C.3    26  LYS26       0.1093
     32  NZ         6.6080   12.5210   19.5150 N.3    26  LYS26      -0.1314
     33  N          6.1120    6.9540   21.1390 N.am   27  THR27      -0.1937
     34  CA         5.8280    6.1120   22.2920 C.3    27  THR27       0.2028
     35  C          5.4560    4.7100   21.8370 C.2    27  THR27       0.2642
     36  O          5.9580    3.7000   22.3670 O.2    27  THR27      -0.2714
     37  CB         4.6730    6.7040   23.1070 C.3    27  THR27       0.1808
     38  OG1        4.9690    8.0730   23.4540 O.3    27  THR27      -0.2208
     39  CG2        4.4210    5.8700   24.3530 C.3    27  THR27       0.0379
     40  N          4.6080    4.6570   20.8190 N.am   28  SER28      -0.1949
     41  CA         4.1450    3.3830   20.2770 C.3    28  SER28       0.1924
     42  C          5.3100    2.5430   19.7600 C.2    28  SER28       0.2314
     43  O          5.3700    1.3290   19.9750 O.2    28  SER28      -0.2863
     44  CB         3.1080    3.6120   19.1740 C.3    28  SER28       0.2116
     45  OG         1.9310    4.1640   19.7110 O.3    28  SER28      -0.2180
     46  N          9.8300    8.6380   28.8940 N.3    53  LYS53      -0.1245
     47  CA         9.5710    7.2140   28.6880 C.3    53  LYS53       0.1561
     48  C         10.8990    6.5910   28.3560 C.2    53  LYS53       0.2260
     49  O         11.5860    7.0530   27.4090 O.2    53  LYS53      -0.2867
     50  CB         8.5900    7.0200   27.5470 C.3    53  LYS53       0.0271
     51  CG         7.2520    7.6420   27.8430 C.3    53  LYS53       0.0035
     52  CD         6.5060    8.0090   26.6260 C.3    53  LYS53       0.0206
     53  CE         5.0970    8.5110   26.9860 C.3    53  LYS53       0.1093
     54  NZ         4.5920    9.3990   25.8990 N.3    53  LYS53      -0.1314
     55  N         12.3830    8.7520   25.3220 N.3    66  ILE66      -0.1245
     56  CA        11.5140    9.7640   24.7840 C.3    66  ILE66       0.1561
     57  C         11.3290   10.7880   25.8750 C.2    66  ILE66       0.2260
     58  O         11.0680   10.4290   27.0100 O.2    66  ILE66      -0.2867
     59  CB        10.1180    9.2160   24.4370 C.3    66  ILE66       0.0252
     60  CG1       10.1770    8.2750   23.2460 C.3    66  ILE66       0.0019
     61  CG2        9.1100   10.3560   24.0970 C.3    66  ILE66       0.0019
     62  CD1        8.9460    7.4660   23.1100 C.3    66  ILE66       0.0001
     63  N          8.7910   13.8910   25.8180 N.3    68  ASP68      -0.1239
     64  CA         7.6990   14.3500   24.9500 C.3    68  ASP68       0.1674
     65  C          8.0280   15.7140   24.3110 C.2    68  ASP68       0.2266
     66  O          8.5750   16.6010   24.9570 O.2    68  ASP68      -0.2867
     67  CB         6.4010   14.5460   25.7350 C.3    68  ASP68       0.1410
     68  CG         5.7040   13.2540   26.1080 C.2    68  ASP68       0.3668
     69  OD1        6.0680   12.1550   25.6070 O.co2  68  ASP68      -0.2456
     70  OD2        4.7640   13.3840   26.9370 O.co2  68  ASP68      -0.2456
     71  N          7.0220    6.6430   10.0530 N.3   126  ASN126     -0.1225
     72  CA         6.1710    5.7090   10.7910 C.3   126  ASN126      0.1785
     73  C          4.7220    5.6520   10.2600 C.2   126  ASN126      0.2597
     74  O          4.2890    6.5240    9.5080 O.2   126  ASN126     -0.2718
     75  CB         6.1500    6.0790   12.2750 C.3   126  ASN126      0.1169
     76  CG         5.4950    5.0260   13.1190 C.2   126  ASN126      0.2627
     77  OD1        5.6990    3.8300   12.8740 O.2   126  ASN126     -0.2716
     78  ND2        4.6720    5.4450   14.0990 N.am  126  ASN126     -0.0877
     79  N          3.9990    4.6210   10.6770 N.am  127  LYS127     -0.1980
     80  CA         2.5840    4.4010   10.3180 C.3   127  LYS127      0.1596
     81  C          2.4730    3.9080    8.8760 C.2   127  LYS127      0.2287
     82  O          1.4630    4.1600    8.1980 O.2   127  LYS127     -0.2864
     83  CB         1.6860    5.6510   10.5580 C.3   127  LYS127      0.0298
     84  CG         1.8100    6.2960   11.9700 C.3   127  LYS127      0.0038
     85  CD         0.5720    7.1170   12.3750 C.3   127  LYS127      0.0206
     86  CE         0.8690    7.9720   13.5940 C.3   127  LYS127      0.1093
     87  NZ        -0.2270    8.8920   13.9820 N.3   127  LYS127     -0.1314
     88  N          1.8010    1.1120    7.8790 N.3   129  ASP129     -0.1225
     89  CA         0.5910    0.2810    7.7570 C.3   129  ASP129      0.1805
     90  C         -0.6290    1.0360    7.1790 C.2   129  ASP129      0.2597
     91  O         -1.5520    0.4050    6.6740 O.2   129  ASP129     -0.2718
     92  CB         0.2050   -0.3130    9.1030 C.3   129  ASP129      0.1424
     93  CG        -0.1110    0.7590   10.1550 C.2   129  ASP129      0.3668
     94  OD1        0.8230    1.4940   10.5520 O.co2 129  ASP129     -0.2456
     95  OD2       -1.2800    0.8640   10.5790 O.co2 129  ASP129     -0.2456
     96  N         -0.6340    2.3680    7.2560 N.am  130  MET130     -0.1979
     97  CA        -1.7870    3.1670    6.8150 C.3   130  MET130      0.1605
     98  C         -1.6240    3.6940    5.3750 C.2   130  MET130      0.2287
     99  O         -1.7400    4.8840    5.1500 O.2   130  MET130     -0.2864
    100  CB        -1.9980    4.3550    7.7660 C.3   130  MET130      0.0413
    101  CG        -2.2340    3.9720    9.2270 C.3   130  MET130      0.0598
    102  SD        -3.6660    2.9050    9.4320 S.3   130  MET130     -0.1393
    103  CE        -5.0050    3.9820    8.8800 C.3   130  MET130      0.0692
    104  N          6.2930    0.5200   10.9490 N.3   156  SER156     -0.1202
    105  CA         4.9920    0.5200   11.5700 C.3   156  SER156      0.2020
    106  C          5.1280   -0.0260   12.9850 C.2   156  SER156      0.2619
    107  O          5.4170   -1.2000   13.1730 O.2   156  SER156     -0.2717
    108  CB         3.9890   -0.3230   10.8140 C.3   156  SER156      0.2103
    109  OG         2.7720   -0.4280   11.5700 O.3   156  SER156     -0.2182
    110  N          4.9050    0.8500   13.9610 N.am  157  ALA157     -0.1965
    111  CA         4.8180    0.4540   15.3810 C.3   157  ALA157      0.1728
    112  C          3.6500   -0.4920   15.5980 C.2   157  ALA157      0.2616
    113  O          3.7540   -1.4580   16.3580 O.2   157  ALA157     -0.2715
    114  CB         4.6600    1.6770   16.2510 C.3   157  ALA157      0.0334
    115  N          2.5400   -0.2280   14.9120 N.am  158  LYS158     -0.1977
    116  CA         1.3140   -1.0330   15.0880 C.3   158  LYS158      0.1596
    117  C          1.4520   -2.4350   14.5050 C.2   158  LYS158      0.2287
    118  O          0.9570   -3.4120   15.0750 O.2   158  LYS158     -0.2864
    119  CB         0.1000   -0.3240   14.4700 C.3   158  LYS158      0.0298
    120  CG        -1.1360   -1.1860   14.3240 C.3   158  LYS158      0.0038
    121  CD        -1.6870   -1.6310   15.6600 C.3   158  LYS158      0.0206
    122  CE        -2.9620   -2.4220   15.4600 C.3   158  LYS158      0.1093
    123  NZ        -2.7270   -3.7130   14.7390 N.3   158  LYS158     -0.1314
@<TRIPOS>BOND
     1    99    98    2
     2    98    97    1
     3    91    90    2
     4    97    96    1
     5    97   100    1
     6    90    96   am
     7    90    89    1
     8    89    88    1
     9    89    92    1
    10   100   101    1
    11    82    81    2
    12    81    80    1
    13   103   102    1
    14    92    93    1
    15   101   102    1
    16    74    73    2
    17    71    72    1
    18    93    94   ar
    19    93    95   ar
    20    73    79   am
    21    73    72    1
    22    80    83    1
    23    80    79    1
    24    83    84    1
    25    72    75    1
    26   108   109    1
    27   108   105    1
    28   104   105    1
    29   105   106    1
    30    84    85    1
    31    75    76    1
    32    85    86    1
    33    77    76    2
    34   106   107    2
    35   106   110   am
    36    76    78   am
    37    86    87    1
    38   110   111    1
    39    18    17    1
    40   120   119    1
    41   120   121    1
    42   119   116    1
    43    16    15    2
    44    17    14    1
    45    17    19    1
    46   117   118    2
    47   117   116    1
    48   123   122    1
    49   115   116    1
    50   115   112   am
    51    14    15    1
    52    14    13    1
    53    15    20   am
    54   111   112    1
    55   111   114    1
    56   122   121    1
    57   112   113    2
    58    10     9    2
    59    13     9   am
    60     9     8    1
    61    20    21    1
    62     4     3    2
    63    21    22    1
    64    12    11    1
    65    11     8    1
    66     8     7    1
    67    22    23    2
    68    22    24   am
    69     3     7   am
    70     3     2    1
    71     1     2    1
    72    24    25    1
    73    29    30    1
    74    29    28    1
    75     2     5    1
    76    30    31    1
    77    25    28    1
    78    25    26    1
    79    44    45    1
    80    44    41    1
    81     5     6    1
    82    32    31    1
    83    42    43    2
    84    42    41    1
    85    41    40    1
    86    26    27    2
    87    26    33   am
    88    40    35   am
    89    33    34    1
    90    35    34    1
    91    35    36    2
    92    34    37    1
    93    37    38    1
    94    37    39    1
    95    62    60    1
    96    60    59    1
    97    61    59    1
    98    65    64    1
    99    65    66    2
   100    59    56    1
   101    56    55    1
   102    56    57    1
   103    64    67    1
   104    64    63    1
   105    69    68   ar
   106    67    68    1
   107    57    58    2
   108    54    53    1
   109    68    70   ar
   110    52    53    1
   111    52    51    1
   112    49    48    2
   113    50    51    1
   114    50    47    1
   115    48    47    1
   116    47    46    1
