@<TRIPOS>MOLECULE
tmp/3dzdB00.pdb
 151 146 0 0 0
SMALL
GASTEIGER

@<TRIPOS>ATOM
      1  N        -27.6520    2.0160   21.8970 N.3   129  GLU129     -0.1231
      2  CA       -28.7730    2.5780   21.1600 C.3   129  GLU129      0.1699
      3  C        -29.5330    3.5990   22.0000 C.2   129  GLU129      0.2592
      4  O        -30.1090    3.2830   23.0420 O.2   129  GLU129     -0.2718
      5  CB       -29.7150    1.4700   20.6730 C.3   129  GLU129      0.0402
      6  CG       -29.0640    0.4470   19.7350 C.3   129  GLU129      0.1161
      7  CD       -28.8850    0.9570   18.3080 C.2   129  GLU129      0.3649
      8  OE1      -29.5350    1.9590   17.9280 O.co2 129  GLU129     -0.2457
      9  OE2      -28.0890    0.3430   17.5630 O.co2 129  GLU129     -0.2457
     10  N        -29.5100    4.8400   21.5400 N.am  130  PHE130     -0.1962
     11  CA       -30.2430    5.9130   22.1870 C.3   130  PHE130      0.1771
     12  C        -31.1670    6.4540   21.1340 C.2   130  PHE130      0.2619
     13  O        -30.7980    7.3350   20.3630 O.2   130  PHE130     -0.2715
     14  CB       -29.2840    6.9980   22.6820 C.3   130  PHE130      0.0574
     15  CG       -29.9270    8.0090   23.5910 C.ar  130  PHE130     -0.0200
     16  CD1      -29.3550    9.2580   23.7730 C.ar  130  PHE130     -0.0042
     17  CD2      -31.1050    7.7110   24.2610 C.ar  130  PHE130     -0.0042
     18  CE1      -29.9470   10.2010   24.6220 C.ar  130  PHE130     -0.0003
     19  CE2      -31.6990    8.6360   25.1050 C.ar  130  PHE130     -0.0003
     20  CZ       -31.1250    9.8940   25.2790 C.ar  130  PHE130     -0.0000
     21  N        -32.3600    5.8890   21.0700 N.am  131  VAL131     -0.1977
     22  CA       -33.3060    6.2490   20.0360 C.3   131  VAL131      0.1596
     23  C        -34.1720    7.4240   20.4670 C.2   131  VAL131      0.2287
     24  O        -34.7460    7.4210   21.5590 O.2   131  VAL131     -0.2864
     25  CB       -34.1790    5.0450   19.6890 C.3   131  VAL131      0.0276
     26  CG1      -35.4320    5.4650   18.8990 C.3   131  VAL131      0.0022
     27  CG2      -33.3530    4.0260   18.9400 C.3   131  VAL131      0.0022
     28  N        -38.7960    6.7700   36.3280 N.3   160  SER160     -0.1202
     29  CA       -38.3820    5.3920   36.1190 C.3   160  SER160      0.2020
     30  C        -38.5320    4.9770   34.6590 C.2   160  SER160      0.2619
     31  O        -39.5710    5.2250   34.0420 O.2   160  SER160     -0.2717
     32  CB       -39.2130    4.4560   37.0020 C.3   160  SER160      0.2103
     33  OG       -38.5380    4.1520   38.2080 O.3   160  SER160     -0.2182
     34  N        -37.4920    4.3390   34.1240 N.am  161  GLY161     -0.1942
     35  CA       -37.5430    3.7690   32.7930 C.3   161  GLY161      0.2014
     36  C        -37.3130    4.7510   31.6700 C.2   161  GLY161      0.2640
     37  O        -37.6170    4.4670   30.5190 O.2   161  GLY161     -0.2714
     38  N        -36.7620    5.9120   31.9900 N.am  162  THR162     -0.1936
     39  CA       -36.5360    6.9320   30.9630 C.3   162  THR162      0.2028
     40  C        -35.1850    6.8610   30.2540 C.2   162  THR162      0.2643
     41  O        -34.9190    7.6570   29.3640 O.2   162  THR162     -0.2714
     42  CB       -36.7100    8.3480   31.5160 C.3   162  THR162      0.1808
     43  OG1      -35.9530    8.4800   32.7240 O.3   162  THR162     -0.2208
     44  CG2      -38.1770    8.6260   31.7800 C.3   162  THR162      0.0379
     45  N        -34.3370    5.9130   30.6330 N.am  163  GLY163     -0.1939
     46  CA       -33.0750    5.7280   29.9320 C.3   163  GLY163      0.2014
     47  C        -31.8880    6.3620   30.6270 C.2   163  GLY163      0.2639
     48  O        -30.9310    6.7660   29.9800 O.2   163  GLY163     -0.2714
     49  N        -31.9440    6.4520   31.9490 N.am  164  LYS164     -0.1963
     50  CA       -30.8840    7.1140   32.6950 C.3   164  LYS164      0.1728
     51  C        -29.5630    6.3600   32.6000 C.2   164  LYS164      0.2616
     52  O        -28.5160    6.9600   32.3760 O.2   164  LYS164     -0.2715
     53  CB       -31.3040    7.3510   34.1500 C.3   164  LYS164      0.0311
     54  CG       -32.3770    8.4520   34.2820 C.3   164  LYS164      0.0038
     55  CD       -32.9100    8.5980   35.7020 C.3   164  LYS164      0.0206
     56  CE       -33.5250    7.2970   36.1950 C.3   164  LYS164      0.1093
     57  NZ       -34.8290    7.5310   36.8630 N.3   164  LYS164     -0.1314
     58  N        -29.6250    5.0400   32.7480 N.am  165  GLU165     -0.1963
     59  CA       -28.4290    4.2300   32.6710 C.3   165  GLU165      0.1733
     60  C        -27.8060    4.2730   31.2840 C.2   165  GLU165      0.2616
     61  O        -26.5860    4.1990   31.1320 O.2   165  GLU165     -0.2715
     62  CB       -28.7210    2.7920   33.0690 C.3   165  GLU165      0.0429
     63  CG       -27.4970    1.9160   32.9610 C.3   165  GLU165      0.1163
     64  CD       -27.7300    0.5180   33.4890 C.2   165  GLU165      0.3649
     65  OE1      -28.5350    0.3680   34.4400 O.co2 165  GLU165     -0.2457
     66  OE2      -27.1040   -0.4260   32.9490 O.co2 165  GLU165     -0.2457
     67  N        -28.6490    4.4030   30.2710 N.am  166  ILE166     -0.1977
     68  CA       -28.1590    4.5060   28.9020 C.3   166  ILE166      0.1596
     69  C        -27.3110    5.7540   28.7140 C.2   166  ILE166      0.2287
     70  O        -26.1520    5.6700   28.3160 O.2   166  ILE166     -0.2864
     71  CB       -29.3110    4.4980   27.8900 C.3   166  ILE166      0.0276
     72  CG1      -29.8130    3.0720   27.6980 C.3   166  ILE166      0.0022
     73  CG2      -28.8660    5.0600   26.5730 C.3   166  ILE166      0.0022
     74  CD1      -30.6610    2.9050   26.4580 C.3   166  ILE166      0.0001
     75  N        -27.1750    4.6500   40.7180 N.3   228  ASP228     -0.1239
     76  CA       -28.6000    4.6230   40.3870 C.3   228  ASP228      0.1674
     77  C        -29.4380    4.8640   41.6410 C.2   228  ASP228      0.2266
     78  O        -29.2300    4.2080   42.6580 O.2   228  ASP228     -0.2867
     79  CB       -28.9700    3.2770   39.7650 C.3   228  ASP228      0.1410
     80  CG       -30.0560    3.3980   38.7170 C.2   228  ASP228      0.3668
     81  OD1      -30.8580    4.3570   38.7850 O.co2 228  ASP228     -0.2456
     82  OD2      -30.1050    2.5320   37.8160 O.co2 228  ASP228     -0.2456
     83  N        -42.4150   13.2650   24.7250 N.3   303  ARG303     -0.1245
     84  CA       -41.4390   13.1120   23.6430 C.3   303  ARG303      0.1563
     85  C        -42.0560   12.9770   22.2580 C.2   303  ARG303      0.2260
     86  O        -41.4070   12.4940   21.3310 O.2   303  ARG303     -0.2867
     87  CB       -40.5310   11.9190   23.8880 C.3   303  ARG303      0.0307
     88  CG       -39.6660   12.0240   25.1220 C.3   303  ARG303      0.0489
     89  CD       -38.7240   10.8490   25.1680 C.3   303  ARG303      0.2205
     90  NE       -38.2030   10.5970   26.5020 N.pl3 303  ARG303     -0.0865
     91  CZ       -37.2820    9.6730   26.7740 C.cat 303  ARG303      0.5346
     92  NH1      -36.7810    8.9290   25.7960 N.pl3 303  ARG303      0.1354
     93  NH2      -36.8540    9.5000   28.0180 N.pl3 303  ARG303      0.1354
     94  N        -39.5060    4.4900   18.8780 N.3   310  LEU310     -0.1245
     95  CA       -39.0640    3.4600   19.8110 C.3   310  LEU310      0.1561
     96  C        -39.8280    2.1510   19.6090 C.2   310  LEU310      0.2260
     97  O        -39.2460    1.0650   19.6680 O.2   310  LEU310     -0.2867
     98  CB       -39.2260    3.9580   21.2420 C.3   310  LEU310      0.0270
     99  CG       -38.1750    4.9660   21.6870 C.3   310  LEU310      0.0019
    100  CD1      -38.6440    5.7540   22.9050 C.3   310  LEU310      0.0001
    101  CD2      -36.8730    4.2110   21.9700 C.3   310  LEU310      0.0001
    102  N        -38.4180    0.4820   16.6890 N.3   313  TYR313     -0.1227
    103  CA       -37.0700    0.0010   16.9530 C.3   313  TYR313      0.1736
    104  C        -37.0930   -1.3300   17.6920 C.2   313  TYR313      0.2595
    105  O        -36.3260   -2.2340   17.3670 O.2   313  TYR313     -0.2718
    106  CB       -36.2820    1.0230   17.7630 C.3   313  TYR313      0.0548
    107  CG       -35.0590    0.4760   18.4560 C.ar  313  TYR313     -0.0200
    108  CD1      -33.8730    0.2850   17.7690 C.ar  313  TYR313     -0.0009
    109  CD2      -35.0830    0.1760   19.8080 C.ar  313  TYR313     -0.0009
    110  CE1      -32.7480   -0.2000   18.4020 C.ar  313  TYR313      0.0417
    111  CE2      -33.9580   -0.3190   20.4610 C.ar  313  TYR313      0.0417
    112  CZ       -32.7900   -0.5000   19.7510 C.ar  313  TYR313      0.1957
    113  OH       -31.6650   -0.9880   20.3910 O.3   313  TYR313     -0.2866
    114  N        -37.9640   -1.4370   18.6950 N.am  314  PHE314     -0.1976
    115  CA       -38.0740   -2.6510   19.4950 C.3   314  PHE314      0.1639
    116  C        -38.7200   -3.7760   18.6940 C.2   314  PHE314      0.2290
    117  O        -38.2840   -4.9180   18.7510 O.2   314  PHE314     -0.2864
    118  CB       -38.8620   -2.3890   20.7830 C.3   314  PHE314      0.0560
    119  CG       -38.1240   -1.5430   21.7810 C.ar  314  PHE314     -0.0200
    120  CD1      -36.8770   -1.9280   22.2430 C.ar  314  PHE314     -0.0042
    121  CD2      -38.6710   -0.3550   22.2490 C.ar  314  PHE314     -0.0042
    122  CE1      -36.1850   -1.1450   23.1640 C.ar  314  PHE314     -0.0003
    123  CE2      -37.9880    0.4260   23.1740 C.ar  314  PHE314     -0.0003
    124  CZ       -36.7430    0.0320   23.6280 C.ar  314  PHE314     -0.0000
    125  N        -40.0150    4.1130   28.9640 N.3   345  VAL345     -0.1231
    126  CA       -39.4400    3.2820   27.9080 C.3   345  VAL345      0.1692
    127  C        -39.4070    1.8090   28.3300 C.2   345  VAL345      0.2591
    128  O        -39.5620    0.9110   27.5040 O.2   345  VAL345     -0.2718
    129  CB       -38.0000    3.7460   27.5010 C.3   345  VAL345      0.0266
    130  CG1      -37.4190    2.8520   26.3890 C.3   345  VAL345      0.0020
    131  CG2      -37.9870    5.2300   27.0910 C.3   345  VAL345      0.0020
    132  N        -39.1920    1.5660   29.6190 N.am  346  ARG346     -0.1980
    133  CA       -39.2180    0.2110   30.1600 C.3   346  ARG346      0.1597
    134  C        -40.5870   -0.4180   29.8890 C.2   346  ARG346      0.2287
    135  O        -40.6840   -1.5560   29.4410 O.2   346  ARG346     -0.2864
    136  CB       -38.9480    0.2610   31.6620 C.3   346  ARG346      0.0334
    137  CG       -38.3860   -1.0060   32.2930 C.3   346  ARG346      0.0492
    138  CD       -37.5910   -0.6450   33.5600 C.3   346  ARG346      0.2205
    139  NE       -38.4540   -0.0760   34.5970 N.pl3 346  ARG346     -0.0865
    140  CZ       -38.0250    0.6910   35.5990 C.cat 346  ARG346      0.5346
    141  NH1      -36.7350    0.9990   35.7040 N.pl3 346  ARG346      0.1354
    142  NH2      -38.8910    1.1560   36.4950 N.pl3 346  ARG346      0.1354
    143  N        -41.0030   -1.0120   25.9710 N.3   349  LYS349     -0.1245
    144  CA       -40.1640   -2.0820   25.4780 C.3   349  LYS349      0.1561
    145  C        -40.7920   -3.4400   25.7870 C.2   349  LYS349      0.2260
    146  O        -40.9580   -4.2800   24.9010 O.2   349  LYS349     -0.2867
    147  CB       -38.7870   -1.9860   26.1130 C.3   349  LYS349      0.0271
    148  CG       -37.9070   -3.1640   25.8900 C.3   349  LYS349      0.0035
    149  CD       -36.8350   -3.2010   26.9550 C.3   349  LYS349      0.0206
    150  CE       -36.3190   -4.6100   27.1740 C.3   349  LYS349      0.1093
    151  NZ       -35.7320   -4.7790   28.5340 N.3   349  LYS349     -0.1314
@<TRIPOS>BOND
     1   102   103    1
     2   103   104    1
     3   103   106    1
     4   105   104    2
     5     9     7   ar
     6   104   114   am
     7   106   107    1
     8   108   110   ar
     9   108   107   ar
    10     8     7   ar
    11     7     6    1
    12   110   112   ar
    13   107   109   ar
    14   116   117    2
    15   116   115    1
    16   114   115    1
    17    94    95    1
    18    26    25    1
    19    27    25    1
    20   115   118    1
    21    96    97    2
    22    96    95    1
    23    25    22    1
    24     6     5    1
    25   112   113    1
    26   112   111   ar
    27   109   111   ar
    28    95    98    1
    29    22    23    1
    30    22    21    1
    31    13    12    2
    32    23    24    2
    33     5     2    1
    34   118   119    1
    35    21    12   am
    36    12    11    1
    37     2     1    1
    38     2     3    1
    39    98    99    1
    40    86    85    2
    41    10     3   am
    42    10    11    1
    43    99   101    1
    44    99   100    1
    45   119   120   ar
    46   119   121   ar
    47     3     4    2
    48    11    14    1
    49   120   122   ar
    50   121   123   ar
    51    85    84    1
    52    14    15    1
    53   122   124   ar
    54   123   124   ar
    55    15    16   ar
    56    15    17   ar
    57    84    87    1
    58    84    83    1
    59    16    18   ar
    60    87    88    1
    61    17    19   ar
    62    18    20   ar
    63   146   145    2
    64    19    20   ar
    65    88    89    1
    66    89    90    1
    67   144   145    1
    68   144   143    1
    69   144   147    1
    70    92    91    1
    71   148   147    1
    72   148   149    1
    73   130   129    1
    74    74    72    1
    75    90    91    2
    76    73    71    1
    77    91    93    1
    78   149   150    1
    79   131   129    1
    80   150   151    1
    81   129   126    1
    82   128   127    2
    83    72    71    1
    84    71    68    1
    85   126   127    1
    86   126   125    1
    87    70    69    2
    88   127   132   am
    89    69    68    1
    90    68    67    1
    91    41    40    2
    92   135   134    2
    93   132   133    1
    94   134   133    1
    95    46    47    1
    96    46    45    1
    97    48    47    2
    98   133   136    1
    99    40    45   am
   100    40    39    1
   101    67    60   am
   102    37    36    2
   103    47    49   am
   104    39    42    1
   105    39    38    1
   106    61    60    2
   107    60    59    1
   108    42    44    1
   109    42    43    1
   110   136   137    1
   111    36    38   am
   112    36    35    1
   113    49    50    1
   114   137   138    1
   115    52    51    2
   116    51    50    1
   117    51    58   am
   118    59    58    1
   119    59    62    1
   120    50    53    1
   121    35    34    1
   122    66    64   ar
   123    63    62    1
   124    63    64    1
   125    64    65   ar
   126   138   139    1
   127    31    30    2
   128    34    30   am
   129    53    54    1
   130    54    55    1
   131   139   140    2
   132    30    29    1
   133   140   141    1
   134   140   142    1
   135    55    56    1
   136    29    28    1
   137    29    32    1
   138    56    57    1
   139    32    33    1
   140    82    80   ar
   141    80    81   ar
   142    80    79    1
   143    79    76    1
   144    76    75    1
   145    76    77    1
   146    77    78    2
