@<TRIPOS>MOLECULE
tmp/3dzhB00.pdb
 170 165 0 0 0
SMALL
GASTEIGER

@<TRIPOS>ATOM
      1  N         19.7980    2.9320  -33.0810 N.3    81  TRP81      -0.1241
      2  CA        20.6820    1.8770  -32.5020 C.3    81  TRP81       0.1605
      3  C         20.1730    1.4420  -31.1320 C.2    81  TRP81       0.2264
      4  O         19.4200    2.1260  -30.4910 O.2    81  TRP81      -0.2867
      5  CB        22.1180    2.3850  -32.3750 C.3    81  TRP81       0.0550
      6  CG        22.2400    3.7120  -31.6200 C.ar   81  TRP81       0.0003
      7  CD1       22.2240    5.0090  -32.1490 C.ar   81  TRP81       0.0946
      8  CD2       22.2670    3.8810  -30.1990 C.ar   81  TRP81       0.0152
      9  NE1       22.3140    5.9510  -31.1370 N.ar   81  TRP81      -0.2442
     10  CE2       22.3290    5.2960  -29.9290 C.ar   81  TRP81       0.0810
     11  CE3       22.2650    2.9730  -29.1010 C.ar   81  TRP81       0.0012
     12  CZ2       22.3920    5.8030  -28.6490 C.ar   81  TRP81       0.0191
     13  CZ3       22.3480    3.4900  -27.8190 C.ar   81  TRP81       0.0001
     14  CH2       22.3940    4.9010  -27.5970 C.ar   81  TRP81       0.0015
     15  N         22.0560   -0.2920  -27.7500 N.3    83  ARG83      -0.1245
     16  CA        23.2660   -0.8110  -27.0290 C.3    83  ARG83       0.1563
     17  C         24.5550   -0.8950  -27.8340 C.2    83  ARG83       0.2260
     18  O         25.4570   -1.7130  -27.4510 O.2    83  ARG83      -0.2867
     19  CB        23.0180   -2.2290  -26.5040 C.3    83  ARG83       0.0307
     20  CG        22.0860   -2.2610  -25.2640 C.3    83  ARG83       0.0489
     21  CD        22.2660   -3.5890  -24.4080 C.3    83  ARG83       0.2205
     22  NE        21.3110   -3.8000  -23.3000 N.pl3  83  ARG83      -0.0865
     23  CZ        21.2430   -4.9100  -22.5340 C.cat  83  ARG83       0.5346
     24  NH1       22.0520   -5.9480  -22.7360 N.pl3  83  ARG83       0.1354
     25  NH2       20.3540   -4.9990  -21.5440 N.pl3  83  ARG83       0.1354
     26  N         25.9430    2.1190  -29.4480 N.3    85  LYS85      -0.1245
     27  CA        26.0420    3.4970  -29.9480 C.3    85  LYS85       0.1561
     28  C         27.4460    3.8690  -30.4730 C.2    85  LYS85       0.2260
     29  O         27.5460    4.6810  -31.4000 O.2    85  LYS85      -0.2867
     30  CB        25.5710    4.4680  -28.8600 C.3    85  LYS85       0.0271
     31  CG        26.5980    4.9240  -27.9400 C.3    85  LYS85       0.0035
     32  CD        25.8900    6.1510  -27.2550 C.3    85  LYS85       0.0206
     33  CE        26.8730    6.8680  -26.5070 C.3    85  LYS85       0.1093
     34  NZ        26.2180    7.4020  -25.2880 N.3    85  LYS85      -0.1314
     35  N         20.5910    9.8470  -33.6510 N.3   101  LEU101     -0.1231
     36  CA        19.9840   10.9130  -32.8290 C.3   101  LEU101      0.1693
     37  C         21.0640   11.8560  -32.3260 C.2   101  LEU101      0.2591
     38  O         20.8450   13.0600  -32.1360 O.2   101  LEU101     -0.2718
     39  CB        19.1430   10.2560  -31.7670 C.3   101  LEU101      0.0284
     40  CG        18.6270   11.2200  -30.7100 C.3   101  LEU101      0.0019
     41  CD1       17.6580   12.2200  -31.3350 C.3   101  LEU101      0.0001
     42  CD2       17.8590   10.2770  -29.6340 C.3   101  LEU101      0.0001
     43  N         22.2340   11.2920  -32.0170 N.am  102  GLU102     -0.1979
     44  CA        23.2660   12.1210  -31.4530 C.3   102  GLU102      0.1602
     45  C         23.9920   12.9560  -32.4820 C.2   102  GLU102      0.2287
     46  O         24.9160   13.7100  -32.1400 O.2   102  GLU102     -0.2864
     47  CB        24.2170   11.2470  -30.7210 C.3   102  GLU102      0.0415
     48  CG        23.5020   10.5750  -29.5190 C.3   102  GLU102      0.1163
     49  CD        22.6610    9.3710  -29.9040 C.2   102  GLU102      0.3649
     50  OE1       22.9240    8.7430  -30.9510 O.co2 102  GLU102     -0.2457
     51  OE2       21.7500    9.0630  -29.1540 O.co2 102  GLU102     -0.2457
     52  N         24.2730   13.7800  -25.0860 N.3   111  ASP111     -0.1225
     53  CA        24.8560   12.4520  -25.0450 C.3   111  ASP111      0.1805
     54  C         25.8990   12.2730  -23.9590 C.2   111  ASP111      0.2598
     55  O         26.7920   13.0660  -23.7780 O.2   111  ASP111     -0.2718
     56  CB        25.5640   12.1560  -26.4110 C.3   111  ASP111      0.1424
     57  CG        25.8740   10.7300  -26.6520 C.2   111  ASP111      0.3668
     58  OD1       26.7500   10.5240  -27.5540 O.co2 111  ASP111     -0.2456
     59  OD2       25.3100    9.8420  -26.0570 O.co2 111  ASP111     -0.2456
     60  N         25.7520   11.1830  -23.2220 N.am  112  ASP112     -0.1960
     61  CA        26.6900   10.7670  -22.1860 C.3   112  ASP112      0.1840
     62  C         26.6310   11.6660  -20.9430 C.2   112  ASP112      0.2622
     63  O         27.4880   11.4420  -20.0500 O.2   112  ASP112     -0.2715
     64  CB        28.1170   10.6460  -22.6220 C.3   112  ASP112      0.1450
     65  CG        28.3480    9.4600  -23.5710 C.2   112  ASP112      0.3671
     66  OD1       27.7680    8.3730  -23.3260 O.co2 112  ASP112     -0.2456
     67  OD2       29.1790    9.6040  -24.4860 O.co2 112  ASP112     -0.2456
     68  N         25.6670   12.5670  -20.8670 N.am  113  LEU113     -0.1963
     69  CA        25.5780   13.4020  -19.6640 C.3   113  LEU113      0.1728
     70  C         24.4410   12.9900  -18.7790 C.2   113  LEU113      0.2616
     71  O         23.4670   12.2570  -19.2120 O.2   113  LEU113     -0.2715
     72  CB        25.3790   14.8440  -20.0940 C.3   113  LEU113      0.0311
     73  CG        26.5140   15.4200  -20.9850 C.3   113  LEU113      0.0022
     74  CD1       26.1040   16.9230  -21.3600 C.3   113  LEU113      0.0001
     75  CD2       27.8990   15.3330  -20.3810 C.3   113  LEU113      0.0001
     76  N         24.5320   13.3960  -17.5120 N.am  114  THR114     -0.1951
     77  CA        23.4180   13.1820  -16.5980 C.3   114  THR114      0.1897
     78  C         23.1660   14.5450  -15.9680 C.2   114  THR114      0.2313
     79  O         24.0630   15.3740  -15.7690 O.2   114  THR114     -0.2863
     80  CB        23.9470   12.2410  -15.4480 C.3   114  THR114      0.1794
     81  OG1       24.2800   10.9680  -16.0870 O.3   114  THR114     -0.2208
     82  CG2       22.8720   12.0560  -14.2980 C.3   114  THR114      0.0378
     83  N         16.4840    5.3020  -12.9130 N.3   132  TRP132     -0.1227
     84  CA        15.1650    5.0530  -13.5310 C.3   132  TRP132      0.1737
     85  C         14.4830    3.8290  -12.9960 C.2   132  TRP132      0.2595
     86  O         13.2920    3.7680  -12.9470 O.2   132  TRP132     -0.2718
     87  CB        15.3860    4.8210  -15.0150 C.3   132  TRP132      0.0564
     88  CG        14.2390    4.4690  -15.8280 C.ar  132  TRP132      0.0003
     89  CD1       13.4770    5.3450  -16.5590 C.ar  132  TRP132      0.0946
     90  CD2       13.7510    3.1510  -16.1260 C.ar  132  TRP132      0.0152
     91  NE1       12.4870    4.6390  -17.2600 N.ar  132  TRP132     -0.2442
     92  CE2       12.6370    3.3010  -16.9840 C.ar  132  TRP132      0.0810
     93  CE3       14.0890    1.8690  -15.6770 C.ar  132  TRP132      0.0012
     94  CZ2       11.9050    2.2080  -17.4450 C.ar  132  TRP132      0.0191
     95  CZ3       13.3460    0.7680  -16.1510 C.ar  132  TRP132      0.0001
     96  CH2       12.2690    0.9610  -17.0060 C.ar  132  TRP132      0.0015
     97  N         15.2050    2.8100  -12.5770 N.am  133  ARG133     -0.1980
     98  CA        14.5480    1.6010  -12.0630 C.3   133  ARG133      0.1597
     99  C         14.3710    1.6760  -10.5720 C.2   133  ARG133      0.2287
    100  O         13.2980    1.2590  -10.0420 O.2   133  ARG133     -0.2864
    101  CB        15.4340    0.4180  -12.3500 C.3   133  ARG133      0.0334
    102  CG        14.8790   -0.8080  -11.8770 C.3   133  ARG133      0.0492
    103  CD        15.7780   -2.0570  -12.2760 C.3   133  ARG133      0.2205
    104  NE        15.4670   -2.4710  -13.6530 N.pl3 133  ARG133     -0.0865
    105  CZ        14.2990   -3.0230  -14.0000 C.cat 133  ARG133      0.5346
    106  NH1       13.3360   -3.1740  -13.0690 N.pl3 133  ARG133      0.1354
    107  NH2       14.0810   -3.3890  -15.2690 N.pl3 133  ARG133      0.1354
    108  N         16.7180   13.0260  -17.1060 N.3   141  VAL141     -0.1231
    109  CA        17.4300   12.4320  -18.2610 C.3   141  VAL141      0.1692
    110  C         16.4770   11.4870  -18.9930 C.2   141  VAL141      0.2592
    111  O         16.4240   11.4640  -20.2220 O.2   141  VAL141     -0.2718
    112  CB        18.6190   11.6290  -17.7380 C.3   141  VAL141      0.0266
    113  CG1       19.2830   10.8610  -18.8370 C.3   141  VAL141      0.0020
    114  CG2       19.6170   12.6490  -17.1690 C.3   141  VAL141      0.0020
    115  N         15.7720   10.6220  -18.2530 N.am  142  SER142     -0.1952
    116  CA        14.9680    9.6490  -18.9660 C.3   142  SER142      0.1924
    117  C         13.9130   10.3430  -19.8120 C.2   142  SER142      0.2314
    118  O         13.5440    9.8720  -20.8880 O.2   142  SER142     -0.2863
    119  CB        14.2850    8.6720  -17.9500 C.3   142  SER142      0.2116
    120  OG        15.3770    7.9460  -17.2660 O.3   142  SER142     -0.2180
    121  N         15.2900   11.7940  -23.1060 N.3   145  TRP145     -0.1241
    122  CA        15.5550   10.8550  -24.2220 C.3   145  TRP145      0.1605
    123  C         14.2330   10.4000  -24.7830 C.2   145  TRP145      0.2264
    124  O         14.1330   10.1180  -26.0010 O.2   145  TRP145     -0.2867
    125  CB        16.4460    9.6900  -23.7720 C.3   145  TRP145      0.0550
    126  CG        17.8270   10.2250  -23.5890 C.ar  145  TRP145      0.0003
    127  CD1       18.5290   10.3250  -22.3690 C.ar  145  TRP145      0.0946
    128  CD2       18.7480   10.7930  -24.5980 C.ar  145  TRP145      0.0152
    129  NE1       19.8190   10.8930  -22.5870 N.ar  145  TRP145     -0.2442
    130  CE2       19.9550   11.1660  -23.9250 C.ar  145  TRP145      0.0810
    131  CE3       18.6610   10.9540  -25.9570 C.ar  145  TRP145      0.0012
    132  CZ2       21.0330   11.7490  -24.5700 C.ar  145  TRP145      0.0191
    133  CZ3       19.7310   11.5270  -26.6320 C.ar  145  TRP145      0.0001
    134  CH2       20.9070   11.8800  -25.9480 C.ar  145  TRP145      0.0015
    135  N         13.6520   11.1490  -28.6330 N.3   149  SER149     -0.1217
    136  CA        13.6160    9.8760  -29.3800 C.3   149  SER149      0.1889
    137  C         12.3620    9.7590  -30.1650 C.2   149  SER149      0.2288
    138  O         12.3780    9.3150  -31.3360 O.2   149  SER149     -0.2866
    139  CB        13.5410    8.6900  -28.3030 C.3   149  SER149      0.2089
    140  OG        14.9610    8.5040  -28.2240 O.3   149  SER149     -0.2183
    141  N         12.9060   -2.6650  -23.7730 N.3   175  ASP175     -0.1225
    142  CA        13.0420   -1.6800  -22.7350 C.3   175  ASP175      0.1805
    143  C         13.9720   -0.5610  -23.1390 C.2   175  ASP175      0.2598
    144  O         14.1110    0.4380  -22.4380 O.2   175  ASP175     -0.2718
    145  CB        13.6100   -2.3520  -21.4990 C.3   175  ASP175      0.1424
    146  CG        12.5570   -3.0770  -20.7220 C.2   175  ASP175      0.3668
    147  OD1       11.4000   -3.2180  -21.2170 O.co2 175  ASP175     -0.2456
    148  OD2       12.8890   -3.5200  -19.6180 O.co2 175  ASP175     -0.2456
    149  N         14.6530   -0.7390  -24.2690 N.am  176  SER176     -0.1938
    150  CA        15.6360    0.2440  -24.6360 C.3   176  SER176      0.2055
    151  C         14.8490    1.4370  -25.2170 C.2   176  SER176      0.2643
    152  O         13.6680    1.3210  -25.5520 O.2   176  SER176     -0.2714
    153  CB        16.5070   -0.3580  -25.7030 C.3   176  SER176      0.2130
    154  OG        15.6710   -0.7590  -26.7980 O.3   176  SER176     -0.2179
    155  N         15.4940    2.5970  -25.3800 N.am  177  THR177     -0.1950
    156  CA        14.8040    3.6820  -26.0760 C.3   177  THR177      0.1897
    157  C         14.3170    3.2270  -27.4490 C.2   177  THR177      0.2313
    158  O         13.2070    3.6150  -27.9000 O.2   177  THR177     -0.2863
    159  CB        15.6750    4.9540  -26.1440 C.3   177  THR177      0.1794
    160  OG1       16.0300    5.2990  -24.7910 O.3   177  THR177     -0.2208
    161  CG2       14.9140    6.0780  -26.9160 C.3   177  THR177      0.0378
    162  N         11.0740    4.1930  -29.9020 N.3   182  GLU182     -0.1245
    163  CA        11.2880    4.4840  -31.3090 C.3   182  GLU182      0.1567
    164  C         10.4870    3.5320  -32.2230 C.2   182  GLU182      0.2260
    165  O          9.8440    3.9720  -33.1880 O.2   182  GLU182     -0.2867
    166  CB        12.7710    4.4500  -31.6140 C.3   182  GLU182      0.0388
    167  CG        13.4700    5.6180  -30.9170 C.3   182  GLU182      0.1160
    168  CD        14.9340    5.5860  -31.1010 C.2   182  GLU182      0.3649
    169  OE1       15.5570    4.6090  -31.5040 O.co2 182  GLU182     -0.2457
    170  OE2       15.5840    6.5810  -30.7560 O.co2 182  GLU182     -0.2457
@<TRIPOS>BOND
     1    35    36    1
     2   165   164    2
     3     1     2    1
     4    36    37    1
     5    36    39    1
     6     2     5    1
     7     2     3    1
     8    45    46    2
     9    45    44    1
    10     5     6    1
    11    37    38    2
    12    37    43   am
    13   164   163    1
    14     7     6   ar
    15     7     9   ar
    16    43    44    1
    17    39    40    1
    18     6     8   ar
    19   166   163    1
    20   166   167    1
    21   169   168   ar
    22    44    47    1
    23    29    28    2
    24   138   137    2
    25    41    40    1
    26   163   162    1
    27     9    10   ar
    28     3     4    2
    29   168   167    1
    30   168   170   ar
    31    50    49   ar
    32    47    48    1
    33    40    42    1
    34    28    27    1
    35     8    10   ar
    36     8    11   ar
    37   137   136    1
    38    27    26    1
    39    27    30    1
    40    10    12   ar
    41    49    48    1
    42    49    51   ar
    43   136   135    1
    44   136   139    1
    45    11    13   ar
    46    30    31    1
    47    12    14   ar
    48   139   140    1
    49    31    32    1
    50   158   157    2
    51    17    18    2
    52    17    16    1
    53    13    14   ar
    54    15    16    1
    55    58    57   ar
    56   157   156    1
    57    32    33    1
    58    16    19    1
    59   161   159    1
    60   154   153    1
    61    57    56    1
    62    57    59   ar
    63   133   131   ar
    64   133   134   ar
    65    33    34    1
    66    19    20    1
    67    56    53    1
    68   159   156    1
    69   159   160    1
    70   156   155    1
    71   124   123    2
    72   131   128   ar
    73   134   132   ar
    74   153   150    1
    75   152   151    2
    76   155   151   am
    77    20    21    1
    78   151   150    1
    79    52    53    1
    80    53    54    1
    81   123   122    1
    82   150   149    1
    83   128   130   ar
    84   128   126   ar
    85   132   130   ar
    86    67    65   ar
    87    21    22    1
    88   149   143   am
    89   122   125    1
    90   122   121    1
    91    54    55    2
    92    54    60   am
    93   130   129   ar
    94   141   142    1
    95   125   126    1
    96   126   127   ar
    97    65    66   ar
    98    65    64    1
    99    22    23    2
   100    60    61    1
   101   143   142    1
   102   143   144    2
   103    24    23    1
   104   142   145    1
   105    64    61    1
   106   129   127   ar
   107    23    25    1
   108    61    62    1
   109   145   146    1
   110    74    73    1
   111   147   146   ar
   112    73    75    1
   113    73    72    1
   114    62    68   am
   115    62    63    2
   116   118   117    2
   117    68    69    1
   118   146   148   ar
   119   111   110    2
   120    72    69    1
   121   117   116    1
   122    69    70    1
   123    71    70    2
   124   110   109    1
   125   110   115   am
   126   116   115    1
   127   116   119    1
   128   113   112    1
   129    70    76   am
   130   109   112    1
   131   109   108    1
   132   119   120    1
   133   112   114    1
   134    76    77    1
   135    94    96   ar
   136    94    92   ar
   137    91    92   ar
   138    91    89   ar
   139    96    95   ar
   140    92    90   ar
   141    77    78    1
   142    77    80    1
   143    89    88   ar
   144    95    93   ar
   145    90    88   ar
   146    90    93   ar
   147    81    80    1
   148    78    79    2
   149    88    87    1
   150    80    82    1
   151   107   105    1
   152    87    84    1
   153   105   104    2
   154   105   106    1
   155   104   103    1
   156    84    85    1
   157    84    83    1
   158    85    86    2
   159    85    97   am
   160    97    98    1
   161   101    98    1
   162   101   102    1
   163   103   102    1
   164    98    99    1
   165    99   100    2
