@<TRIPOS>MOLECULE
tmp/3dzlA01.pdb
 129 123 0 0 0
SMALL
GASTEIGER

@<TRIPOS>ATOM
      1  N         52.9260   -5.4810   91.3890 N.3    33  ARG33      -0.1245
      2  CA        52.4720   -4.9190   90.1030 C.3    33  ARG33       0.1563
      3  C         53.2670   -3.6020   89.7820 C.2    33  ARG33       0.2260
      4  O         53.4850   -3.2300   88.6100 O.2    33  ARG33      -0.2867
      5  CB        50.9670   -4.6500   90.1280 C.3    33  ARG33       0.0307
      6  CG        50.3990   -4.3750   88.7330 C.3    33  ARG33       0.0489
      7  CD        48.8500   -4.1900   88.7470 C.3    33  ARG33       0.2205
      8  NE        48.4960   -3.0320   89.5320 N.pl3  33  ARG33      -0.0865
      9  CZ        47.2640   -2.7040   89.9020 C.cat  33  ARG33       0.5346
     10  NH1       46.2580   -3.5690   89.7130 N.pl3  33  ARG33       0.1354
     11  NH2       47.1070   -1.6280   90.6610 N.pl3  33  ARG33       0.1354
     12  N         46.8830    5.5920   88.8870 N.3    44  GLY44      -0.1210
     13  CA        45.7950    5.9710   89.8290 C.3    44  GLY44       0.1956
     14  C         44.4750    6.1780   89.0930 C.2    44  GLY44       0.2611
     15  O         44.2660    5.7730   87.9580 O.2    44  GLY44      -0.2717
     16  N         43.6250    6.8360   89.8500 N.am   45  LEU45      -0.1979
     17  CA        42.2040    6.9690   89.5110 C.3    45  LEU45       0.1596
     18  C         41.9440    8.3620   89.0380 C.2    45  LEU45       0.2287
     19  O         42.0910    9.3340   89.7860 O.2    45  LEU45      -0.2864
     20  CB        41.3110    6.6130   90.6940 C.3    45  LEU45       0.0297
     21  CG        39.8180    6.7960   90.5500 C.3    45  LEU45       0.0022
     22  CD1       39.2240    5.7960   89.4540 C.3    45  LEU45       0.0001
     23  CD2       39.0650    6.4960   91.8590 C.3    45  LEU45       0.0001
     24  N         43.2550   10.7090   91.9690 N.3    54  ILE54      -0.1245
     25  CA        44.0370   10.1750   93.0560 C.3    54  ILE54       0.1561
     26  C         45.2020    9.5560   92.3100 C.2    54  ILE54       0.2260
     27  O         45.0510    8.4420   91.7540 O.2    54  ILE54      -0.2867
     28  CB        43.2580    9.1500   93.8980 C.3    54  ILE54       0.0252
     29  CG1       41.9850    9.7870   94.4260 C.3    54  ILE54       0.0019
     30  CG2       44.2060    8.5710   95.0550 C.3    54  ILE54       0.0019
     31  CD1       41.1980    8.8330   95.3300 C.3    54  ILE54       0.0001
     32  N         49.1890    8.3170   92.1230 N.3    56  ILE56      -0.1245
     33  CA        50.2130    7.7440   92.9770 C.3    56  ILE56       0.1561
     34  C         51.5400    7.8160   92.1760 C.2    56  ILE56       0.2260
     35  O         51.6470    7.2390   91.0620 O.2    56  ILE56      -0.2867
     36  CB        49.8770    6.2660   93.2700 C.3    56  ILE56       0.0252
     37  CG1       48.3750    6.0700   93.6970 C.3    56  ILE56       0.0019
     38  CG2       50.8140    5.7360   94.3280 C.3    56  ILE56       0.0019
     39  CD1       47.6390    5.0340   92.9380 C.3    56  ILE56       0.0001
     40  N         50.6790    1.5890   97.8440 N.3    65  HIS65      -0.1241
     41  CA        49.2500    1.6410   97.5220 C.3    65  HIS65       0.1621
     42  C         48.7160    0.2460   97.3530 C.2    65  HIS65       0.2264
     43  O         47.6060   -0.0690   97.7000 O.2    65  HIS65      -0.2867
     44  CB        49.0530    2.5170   96.2860 C.3    65  HIS65       0.0745
     45  CG        47.6460    2.4730   95.7320 C.ar   65  HIS65       0.0817
     46  ND1       46.6090    3.2360   96.2440 N.ar   65  HIS65      -0.2268
     47  CD2       47.1200    1.7300   94.7280 C.ar   65  HIS65       0.1154
     48  CE1       45.5070    2.9550   95.5770 C.ar   65  HIS65       0.1986
     49  NE2       45.7940    2.0720   94.6280 N.ar   65  HIS65      -0.2212
     50  N         47.4600   -1.2850  100.5340 N.3    68  TRP68      -0.1227
     51  CA        46.1700   -0.6920  100.8610 C.3    68  TRP68       0.1737
     52  C         45.1020   -1.3450  100.0240 C.2    68  TRP68       0.2596
     53  O         43.9690   -1.7220  100.5090 O.2    68  TRP68      -0.2718
     54  CB        46.2030    0.8200  100.5870 C.3    68  TRP68       0.0564
     55  CG        44.8690    1.4920  100.7790 C.ar   68  TRP68       0.0003
     56  CD1       44.3420    1.9150  101.9190 C.ar   68  TRP68       0.0946
     57  CD2       43.9470    1.7950   99.7560 C.ar   68  TRP68       0.0152
     58  NE1       43.1230    2.4880  101.6830 N.ar   68  TRP68      -0.2442
     59  CE2       42.8430    2.4050  100.3610 C.ar   68  TRP68       0.0810
     60  CE3       43.9220    1.5680   98.3780 C.ar   68  TRP68       0.0012
     61  CZ2       41.7060    2.7900   99.6350 C.ar   68  TRP68       0.0191
     62  CZ3       42.8480    1.9240   97.6790 C.ar   68  TRP68       0.0001
     63  CH2       41.7270    2.5530   98.3000 C.ar   68  TRP68       0.0015
     64  N         45.3720   -1.4320   98.7280 N.am   69  SER69      -0.1952
     65  CA        44.3790   -1.9110   97.8190 C.3    69  SER69       0.1924
     66  C         44.0250   -3.3470   98.1040 C.2    69  SER69       0.2314
     67  O         42.8780   -3.7760   97.9420 O.2    69  SER69      -0.2863
     68  CB        44.8910   -1.8120   96.3610 C.3    69  SER69       0.2116
     69  OG        44.0150   -2.4060   95.3520 O.3    69  SER69      -0.2180
     70  N         40.1760   -4.1680   98.6830 N.3    73  PHE73      -0.1241
     71  CA        39.6020   -4.9220   97.5710 C.3    73  PHE73       0.1605
     72  C         40.2790   -6.2940   97.5430 C.2    73  PHE73       0.2264
     73  O         41.1870   -6.5840   96.7000 O.2    73  PHE73      -0.2867
     74  CB        39.8500   -4.1700   96.2620 C.3    73  PHE73       0.0534
     75  CG        39.3440   -2.7510   96.2230 C.ar   73  PHE73      -0.0203
     76  CD1       40.2570   -1.6900   96.4370 C.ar   73  PHE73      -0.0042
     77  CD2       38.0110   -2.4700   96.0310 C.ar   73  PHE73      -0.0042
     78  CE1       39.8090   -0.3670   96.3230 C.ar   73  PHE73      -0.0003
     79  CE2       37.5650   -1.1390   95.9340 C.ar   73  PHE73      -0.0003
     80  CZ        38.5180   -0.1160   96.1000 C.ar   73  PHE73      -0.0000
     81  N         36.0130   -0.9150  103.0300 N.3   104  PHE104     -0.1241
     82  CA        36.5670    0.4070  103.4340 C.3   104  PHE104      0.1605
     83  C         36.3040    0.6640  104.8790 C.2   104  PHE104      0.2264
     84  O         35.2230    0.3630  105.4180 O.2   104  PHE104     -0.2867
     85  CB        35.9610    1.5300  102.6800 C.3   104  PHE104      0.0534
     86  CG        36.5310    1.8030  101.2390 C.ar  104  PHE104     -0.0203
     87  CD1       36.2790    3.0010  100.6870 C.ar  104  PHE104     -0.0042
     88  CD2       37.3010    0.9550  100.5640 C.ar  104  PHE104     -0.0042
     89  CE1       36.7380    3.3600   99.4100 C.ar  104  PHE104     -0.0003
     90  CE2       37.8190    1.2900   99.2660 C.ar  104  PHE104     -0.0003
     91  CZ        37.5150    2.5100   98.7380 C.ar  104  PHE104     -0.0000
     92  N         31.4140   -4.5110   95.0090 N.3   112  TYR112     -0.1241
     93  CA        31.6480   -3.4170   94.0660 C.3   112  TYR112      0.1605
     94  C         31.8540   -4.0070   92.6200 C.2   112  TYR112      0.2264
     95  O         32.6410   -4.8960   92.4460 O.2   112  TYR112     -0.2867
     96  CB        32.8860   -2.7060   94.5110 C.3   112  TYR112      0.0534
     97  CG        33.3700   -1.5220   93.6680 C.ar  112  TYR112     -0.0201
     98  CD1       32.5190   -0.6790   92.9430 C.ar  112  TYR112     -0.0009
     99  CD2       34.7040   -1.3280   93.4860 C.ar  112  TYR112     -0.0009
    100  CE1       33.0380    0.3630   92.1260 C.ar  112  TYR112      0.0417
    101  CE2       35.2250   -0.3090   92.6590 C.ar  112  TYR112      0.0417
    102  CZ        34.3460    0.5580   92.0400 C.ar  112  TYR112      0.1957
    103  OH        34.8440    1.5760   91.2190 O.3   112  TYR112     -0.2866
    104  N         43.0470    5.1370   85.3620 N.3   132  GLU132     -0.1245
    105  CA        41.7870    4.4680   85.1520 C.3   132  GLU132      0.1567
    106  C         40.5840    5.3680   85.3710 C.2   132  GLU132      0.2260
    107  O         40.6180    6.4010   86.0740 O.2   132  GLU132     -0.2867
    108  CB        41.6360    3.2670   85.9660 C.3   132  GLU132      0.0388
    109  CG        41.4800    3.5880   87.3140 C.3   132  GLU132      0.1160
    110  CD        42.0090    2.5180   88.1880 C.2   132  GLU132      0.3649
    111  OE1       43.3000    2.1740   88.2080 O.co2 132  GLU132     -0.2457
    112  OE2       41.0400    2.0130   88.7970 O.co2 132  GLU132     -0.2457
    113  N         36.3090    5.3470   85.5740 N.3   134  MET134     -0.1245
    114  CA        35.1450    4.5400   85.8650 C.3   134  MET134      0.1570
    115  C         33.9770    5.4520   86.2500 C.2   134  MET134      0.2261
    116  O         34.1410    6.6490   86.1230 O.2   134  MET134     -0.2867
    117  CB        35.4000    3.4680   86.9150 C.3   134  MET134      0.0387
    118  CG        36.0100    3.9610   88.1920 C.3   134  MET134      0.0595
    119  SD        35.0910    5.1780   89.1150 S.3   134  MET134     -0.1393
    120  CE        35.7310    4.9980   90.8190 C.3   134  MET134      0.0692
    121  N         30.6310    3.0190   92.6890 N.3   139  GLN139     -0.1245
    122  CA        31.3170    2.8520   93.9590 C.3   139  GLN139      0.1566
    123  C         30.5490    3.4150   95.0930 C.2   139  GLN139      0.2260
    124  O         30.4490    2.7900   96.1310 O.2   139  GLN139     -0.2867
    125  CB        32.7020    3.4390   93.8850 C.3   139  GLN139      0.0367
    126  CG        33.5450    3.1570   95.1900 C.3   139  GLN139      0.0905
    127  CD        34.9040    3.6960   95.0190 C.2   139  GLN139      0.2608
    128  OE1       35.0650    4.8970   94.7880 O.2   139  GLN139     -0.2717
    129  NE2       35.9030    2.8250   95.0770 N.am  139  GLN139     -0.0878
@<TRIPOS>BOND
     1   105   104    1
     2   105   106    1
     3   105   108    1
     4   106   107    2
     5   113   114    1
     6   114   115    1
     7   114   117    1
     8   108   109    1
     9   116   115    2
    10   117   118    1
    11   109   110    1
    12    15    14    2
    13   110   111   ar
    14   110   112   ar
    15   118   119    1
    16     4     3    2
    17     6     7    1
    18     6     5    1
    19     7     8    1
    20    12    13    1
    21    18    17    1
    22    18    19    2
    23    14    13    1
    24    14    16   am
    25   119   120    1
    26    22    21    1
    27    17    16    1
    28    17    20    1
    29     8     9    2
    30    10     9    1
    31     3     2    1
    32     9    11    1
    33     2     5    1
    34     2     1    1
    35    21    20    1
    36    21    23    1
    37    35    34    2
    38   103   102    1
    39    27    26    2
    40    24    25    1
    41   102   100   ar
    42   102   101   ar
    43    32    33    1
    44   100    98   ar
    45    34    33    1
    46    26    25    1
    47    95    94    2
    48    94    93    1
    49   101    99   ar
    50   121   122    1
    51    39    37    1
    52    98    97   ar
    53    33    36    1
    54    25    28    1
    55    36    37    1
    56    36    38    1
    57    99    97   ar
    58    97    96    1
    59   125   122    1
    60   125   126    1
    61    28    29    1
    62    28    30    1
    63   122   123    1
    64    93    96    1
    65    93    92    1
    66    29    31    1
    67    49    47   ar
    68    49    48   ar
    69    47    45   ar
    70   128   127    2
    71   127   129   am
    72   127   126    1
    73   123   124    2
    74    69    68    1
    75    48    46   ar
    76    45    46   ar
    77    45    44    1
    78    79    77   ar
    79    79    80   ar
    80    77    75   ar
    81    80    78   ar
    82    75    74    1
    83    75    76   ar
    84    74    71    1
    85    44    41    1
    86    78    76   ar
    87    68    65    1
    88    73    72    2
    89    42    41    1
    90    42    43    2
    91    41    40    1
    92    72    71    1
    93    71    70    1
    94    62    63   ar
    95    62    60   ar
    96    65    66    1
    97    65    64    1
    98    67    66    2
    99    63    61   ar
   100    60    57   ar
   101    64    52   am
   102    91    90   ar
   103    91    89   ar
   104    90    88   ar
   105    89    87   ar
   106    61    59   ar
   107    57    59   ar
   108    57    55   ar
   109    52    53    2
   110    52    51    1
   111    59    58   ar
   112    50    51    1
   113    88    86   ar
   114    54    55    1
   115    54    51    1
   116    87    86   ar
   117    55    56   ar
   118    86    85    1
   119    58    56   ar
   120    85    82    1
   121    81    82    1
   122    82    83    1
   123    83    84    2
