@<TRIPOS>MOLECULE
tmp/3dzlA00.pdb
 151 149 0 0 0
SMALL
GASTEIGER

@<TRIPOS>ATOM
      1  N         49.7000   -6.7250   83.4850 N.3    22  TYR22      -0.1241
      2  CA        48.9820   -5.8360   84.4370 C.3    22  TYR22       0.1605
      3  C         47.5390   -6.2460   84.6380 C.2    22  TYR22       0.2264
      4  O         47.0800   -6.4490   85.7580 O.2    22  TYR22      -0.2867
      5  CB        48.9980   -4.4050   83.9630 C.3    22  TYR22       0.0534
      6  CG        48.4560   -3.4170   84.9470 C.ar   22  TYR22      -0.0201
      7  CD1       49.3030   -2.5390   85.6110 C.ar   22  TYR22      -0.0009
      8  CD2       47.0670   -3.2310   85.1020 C.ar   22  TYR22      -0.0009
      9  CE1       48.8070   -1.5870   86.4760 C.ar   22  TYR22       0.0417
     10  CE2       46.5780   -2.3300   85.9660 C.ar   22  TYR22       0.0417
     11  CZ        47.4690   -1.4390   86.6160 C.ar   22  TYR22       0.1957
     12  OH        46.9620   -0.4800   87.5330 O.3    22  TYR22      -0.2866
     13  N         49.4390   -8.7710   93.2310 N.3    30  ARG30      -0.1245
     14  CA        49.1980   -7.3910   93.1800 C.3    30  ARG30       0.1563
     15  C         50.2900   -6.5640   93.9460 C.2    30  ARG30       0.2260
     16  O         50.5730   -5.4130   93.6210 O.2    30  ARG30      -0.2867
     17  CB        47.7940   -7.1260   93.7970 C.3    30  ARG30       0.0307
     18  CG        46.6780   -7.4420   92.7390 C.3    30  ARG30       0.0489
     19  CD        45.3580   -7.6340   93.4130 C.3    30  ARG30       0.2205
     20  NE        44.8830   -6.4260   93.9760 N.pl3  30  ARG30      -0.0865
     21  CZ        43.7880   -6.3900   94.7430 C.cat  30  ARG30       0.5346
     22  NH1       43.1930   -7.5000   95.0670 N.pl3  30  ARG30       0.1354
     23  NH2       43.4520   -5.2730   95.3100 N.pl3  30  ARG30       0.1354
     24  N         52.9260   -5.4810   91.3890 N.3    33  ARG33      -0.1245
     25  CA        52.4720   -4.9190   90.1030 C.3    33  ARG33       0.1563
     26  C         53.2670   -3.6020   89.7820 C.2    33  ARG33       0.2260
     27  O         53.4850   -3.2300   88.6100 O.2    33  ARG33      -0.2867
     28  CB        50.9670   -4.6500   90.1280 C.3    33  ARG33       0.0307
     29  CG        50.3990   -4.3750   88.7330 C.3    33  ARG33       0.0489
     30  CD        48.8500   -4.1900   88.7470 C.3    33  ARG33       0.2205
     31  NE        48.4960   -3.0320   89.5320 N.pl3  33  ARG33      -0.0865
     32  CZ        47.2640   -2.7040   89.9020 C.cat  33  ARG33       0.5346
     33  NH1       46.2580   -3.5690   89.7130 N.pl3  33  ARG33       0.1354
     34  NH2       47.1070   -1.6280   90.6610 N.pl3  33  ARG33       0.1354
     35  N         43.6250    6.8360   89.8500 N.3    45  LEU45      -0.1245
     36  CA        42.2040    6.9690   89.5110 C.3    45  LEU45       0.1561
     37  C         41.9440    8.3620   89.0380 C.2    45  LEU45       0.2260
     38  O         42.0910    9.3340   89.7860 O.2    45  LEU45      -0.2867
     39  CB        41.3110    6.6130   90.6940 C.3    45  LEU45       0.0270
     40  CG        39.8180    6.7960   90.5500 C.3    45  LEU45       0.0019
     41  CD1       39.2240    5.7960   89.4540 C.3    45  LEU45       0.0001
     42  CD2       39.0650    6.4960   91.8590 C.3    45  LEU45       0.0001
     43  N         50.6790    1.5890   97.8440 N.3    65  HIS65      -0.1241
     44  CA        49.2500    1.6410   97.5220 C.3    65  HIS65       0.1621
     45  C         48.7160    0.2460   97.3530 C.2    65  HIS65       0.2264
     46  O         47.6060   -0.0690   97.7000 O.2    65  HIS65      -0.2867
     47  CB        49.0530    2.5170   96.2860 C.3    65  HIS65       0.0745
     48  CG        47.6460    2.4730   95.7320 C.ar   65  HIS65       0.0817
     49  ND1       46.6090    3.2360   96.2440 N.ar   65  HIS65      -0.2268
     50  CD2       47.1200    1.7300   94.7280 C.ar   65  HIS65       0.1154
     51  CE1       45.5070    2.9550   95.5770 C.ar   65  HIS65       0.1986
     52  NE2       45.7940    2.0720   94.6280 N.ar   65  HIS65      -0.2212
     53  N         47.4600   -1.2850  100.5340 N.3    68  TRP68      -0.1227
     54  CA        46.1700   -0.6920  100.8610 C.3    68  TRP68       0.1737
     55  C         45.1020   -1.3450  100.0240 C.2    68  TRP68       0.2596
     56  O         43.9690   -1.7220  100.5090 O.2    68  TRP68      -0.2718
     57  CB        46.2030    0.8200  100.5870 C.3    68  TRP68       0.0564
     58  CG        44.8690    1.4920  100.7790 C.ar   68  TRP68       0.0003
     59  CD1       44.3420    1.9150  101.9190 C.ar   68  TRP68       0.0946
     60  CD2       43.9470    1.7950   99.7560 C.ar   68  TRP68       0.0152
     61  NE1       43.1230    2.4880  101.6830 N.ar   68  TRP68      -0.2442
     62  CE2       42.8430    2.4050  100.3610 C.ar   68  TRP68       0.0810
     63  CE3       43.9220    1.5680   98.3780 C.ar   68  TRP68       0.0012
     64  CZ2       41.7060    2.7900   99.6350 C.ar   68  TRP68       0.0191
     65  CZ3       42.8480    1.9240   97.6790 C.ar   68  TRP68       0.0001
     66  CH2       41.7270    2.5530   98.3000 C.ar   68  TRP68       0.0015
     67  N         45.3720   -1.4320   98.7280 N.am   69  SER69      -0.1952
     68  CA        44.3790   -1.9110   97.8190 C.3    69  SER69       0.1924
     69  C         44.0250   -3.3470   98.1040 C.2    69  SER69       0.2314
     70  O         42.8780   -3.7760   97.9420 O.2    69  SER69      -0.2863
     71  CB        44.8910   -1.8120   96.3610 C.3    69  SER69       0.2116
     72  OG        44.0150   -2.4060   95.3520 O.3    69  SER69      -0.2180
     73  N         40.1760   -4.1680   98.6830 N.3    73  PHE73      -0.1241
     74  CA        39.6020   -4.9220   97.5710 C.3    73  PHE73       0.1605
     75  C         40.2790   -6.2940   97.5430 C.2    73  PHE73       0.2264
     76  O         41.1870   -6.5840   96.7000 O.2    73  PHE73      -0.2867
     77  CB        39.8500   -4.1700   96.2620 C.3    73  PHE73       0.0534
     78  CG        39.3440   -2.7510   96.2230 C.ar   73  PHE73      -0.0203
     79  CD1       40.2570   -1.6900   96.4370 C.ar   73  PHE73      -0.0042
     80  CD2       38.0110   -2.4700   96.0310 C.ar   73  PHE73      -0.0042
     81  CE1       39.8090   -0.3670   96.3230 C.ar   73  PHE73      -0.0003
     82  CE2       37.5650   -1.1390   95.9340 C.ar   73  PHE73      -0.0003
     83  CZ        38.5180   -0.1160   96.1000 C.ar   73  PHE73      -0.0000
     84  N         39.7410   -8.6880   94.2060 N.3    76  TRP76      -0.1241
     85  CA        39.4270   -7.9550   92.9510 C.3    76  TRP76       0.1605
     86  C         39.9210   -8.7280   91.7210 C.2    76  TRP76       0.2264
     87  O         41.0710   -9.1500   91.6470 O.2    76  TRP76      -0.2867
     88  CB        40.1480   -6.6530   92.9400 C.3    76  TRP76       0.0550
     89  CG        39.6850   -5.7450   91.8350 C.ar   76  TRP76       0.0003
     90  CD1       40.3270   -5.4990   90.6850 C.ar   76  TRP76       0.0946
     91  CD2       38.4450   -5.0140   91.7760 C.ar   76  TRP76       0.0152
     92  NE1       39.5860   -4.6300   89.8900 N.ar   76  TRP76      -0.2442
     93  CE2       38.4010   -4.3410   90.5220 C.ar   76  TRP76       0.0810
     94  CE3       37.3670   -4.8890   92.6380 C.ar   76  TRP76       0.0012
     95  CZ2       37.3520   -3.5150   90.1570 C.ar   76  TRP76       0.0191
     96  CZ3       36.3100   -4.1720   92.2230 C.ar   76  TRP76       0.0001
     97  CH2       36.3080   -3.4550   90.9930 C.ar   76  TRP76       0.0015
     98  N         39.7430   -8.3040   87.2840 N.3    78  TRP78      -0.1241
     99  CA        39.3330   -7.6780   86.0250 C.3    78  TRP78       0.1605
    100  C         38.8370   -8.8050   85.1340 C.2    78  TRP78       0.2264
    101  O         39.4870   -9.8420   85.0090 O.2    78  TRP78      -0.2867
    102  CB        40.5410   -6.9620   85.3640 C.3    78  TRP78       0.0550
    103  CG        41.3350   -5.9620   86.1340 C.ar   78  TRP78       0.0003
    104  CD1       42.5920   -6.1500   86.6940 C.ar   78  TRP78       0.0946
    105  CD2       40.9220   -4.7000   86.5700 C.ar   78  TRP78       0.0152
    106  NE1       43.0020   -5.0550   87.3290 N.ar   78  TRP78      -0.2442
    107  CE2       41.9610   -4.1730   87.3530 C.ar   78  TRP78       0.0810
    108  CE3       39.7310   -3.9480   86.4600 C.ar   78  TRP78       0.0012
    109  CZ2       41.9210   -2.8810   87.8770 C.ar   78  TRP78       0.0191
    110  CZ3       39.7190   -2.6820   87.0300 C.ar   78  TRP78       0.0001
    111  CH2       40.7840   -2.1900   87.7630 C.ar   78  TRP78       0.0015
    112  N         31.4140   -4.5110   95.0090 N.3   112  TYR112     -0.1241
    113  CA        31.6480   -3.4170   94.0660 C.3   112  TYR112      0.1605
    114  C         31.8540   -4.0070   92.6200 C.2   112  TYR112      0.2264
    115  O         32.6410   -4.8960   92.4460 O.2   112  TYR112     -0.2867
    116  CB        32.8860   -2.7060   94.5110 C.3   112  TYR112      0.0534
    117  CG        33.3700   -1.5220   93.6680 C.ar  112  TYR112     -0.0201
    118  CD1       32.5190   -0.6790   92.9430 C.ar  112  TYR112     -0.0009
    119  CD2       34.7040   -1.3280   93.4860 C.ar  112  TYR112     -0.0009
    120  CE1       33.0380    0.3630   92.1260 C.ar  112  TYR112      0.0417
    121  CE2       35.2250   -0.3090   92.6590 C.ar  112  TYR112      0.0417
    122  CZ        34.3460    0.5580   92.0400 C.ar  112  TYR112      0.1957
    123  OH        34.8440    1.5760   91.2190 O.3   112  TYR112     -0.2866
    124  N         35.3440   -0.0640   83.3960 N.3   116  PHE116     -0.1241
    125  CA        36.5870    0.6680   83.4060 C.3   116  PHE116      0.1605
    126  C         37.1670    0.8670   82.0180 C.2   116  PHE116      0.2264
    127  O         37.1540   -0.0600   81.2250 O.2   116  PHE116     -0.2867
    128  CB        37.6320   -0.1260   84.2120 C.3   116  PHE116      0.0534
    129  CG        37.2990   -0.1890   85.6800 C.ar  116  PHE116     -0.0203
    130  CD1       36.5210   -1.2560   86.1180 C.ar  116  PHE116     -0.0042
    131  CD2       37.9260    0.6350   86.6310 C.ar  116  PHE116     -0.0042
    132  CE1       36.1750   -1.3570   87.5100 C.ar  116  PHE116     -0.0003
    133  CE2       37.5540    0.5280   87.9810 C.ar  116  PHE116     -0.0003
    134  CZ        36.6860   -0.4690   88.4100 C.ar  116  PHE116     -0.0000
    135  N         43.0470    5.1370   85.3620 N.3   132  GLU132     -0.1245
    136  CA        41.7870    4.4680   85.1520 C.3   132  GLU132      0.1567
    137  C         40.5840    5.3680   85.3710 C.2   132  GLU132      0.2260
    138  O         40.6180    6.4010   86.0740 O.2   132  GLU132     -0.2867
    139  CB        41.6360    3.2670   85.9660 C.3   132  GLU132      0.0388
    140  CG        41.4800    3.5880   87.3140 C.3   132  GLU132      0.1160
    141  CD        42.0090    2.5180   88.1880 C.2   132  GLU132      0.3649
    142  OE1       43.3000    2.1740   88.2080 O.co2 132  GLU132     -0.2457
    143  OE2       41.0400    2.0130   88.7970 O.co2 132  GLU132     -0.2457
    144  N         36.3090    5.3470   85.5740 N.3   134  MET134     -0.1245
    145  CA        35.1450    4.5400   85.8650 C.3   134  MET134      0.1570
    146  C         33.9770    5.4520   86.2500 C.2   134  MET134      0.2261
    147  O         34.1410    6.6490   86.1230 O.2   134  MET134     -0.2867
    148  CB        35.4000    3.4680   86.9150 C.3   134  MET134      0.0387
    149  CG        36.0100    3.9610   88.1920 C.3   134  MET134      0.0595
    150  SD        35.0910    5.1780   89.1150 S.3   134  MET134     -0.1393
    151  CE        35.7310    4.9980   90.8190 C.3   134  MET134      0.0692
@<TRIPOS>BOND
     1   127   126    2
     2   126   125    1
     3   124   125    1
     4   125   128    1
     5     1     2    1
     6     5     2    1
     7     5     6    1
     8   128   129    1
     9     2     3    1
    10     3     4    2
    11     6     8   ar
    12     6     7   ar
    13   101   100    2
    14     8    10   ar
    15   100    99    1
    16   136   135    1
    17   136   137    1
    18   136   139    1
    19   102    99    1
    20   102   103    1
    21   137   138    2
    22   144   145    1
    23     7     9   ar
    24   129   130   ar
    25   129   131   ar
    26   145   146    1
    27   145   148    1
    28   139   140    1
    29    10    11   ar
    30    99    98    1
    31   130   132   ar
    32   147   146    2
    33   103   105   ar
    34   103   104   ar
    35   108   105   ar
    36   108   110   ar
    37     9    11   ar
    38   105   107   ar
    39    11    12    1
    40   131   133   ar
    41   104   106   ar
    42   148   149    1
    43   110   111   ar
    44   140   141    1
    45   106   107   ar
    46   107   109   ar
    47   132   134   ar
    48   111   109   ar
    49   133   134   ar
    50   141   142   ar
    51   141   143   ar
    52   149   150    1
    53    27    26    2
    54    29    30    1
    55    29    28    1
    56    30    31    1
    57    37    36    1
    58    37    38    2
    59   150   151    1
    60    41    40    1
    61    36    35    1
    62    36    39    1
    63    31    32    2
    64    33    32    1
    65    26    25    1
    66    92    93   ar
    67    92    90   ar
    68    32    34    1
    69    25    28    1
    70    25    24    1
    71    95    93   ar
    72    95    97   ar
    73    93    91   ar
    74    40    39    1
    75    40    42    1
    76    90    89   ar
    77    97    96   ar
    78   123   122    1
    79    87    86    2
    80    86    85    1
    81    91    89   ar
    82    91    94   ar
    83    89    88    1
    84   122   120   ar
    85   122   121   ar
    86   120   118   ar
    87    96    94   ar
    88   115   114    2
    89   114   113    1
    90   121   119   ar
    91    18    19    1
    92    18    17    1
    93    88    85    1
    94   118   117   ar
    95    85    84    1
    96    14    13    1
    97    14    17    1
    98    14    15    1
    99    19    20    1
   100   119   117   ar
   101    16    15    2
   102   117   116    1
   103    20    21    2
   104   113   116    1
   105   113   112    1
   106    52    50   ar
   107    52    51   ar
   108    50    48   ar
   109    21    22    1
   110    21    23    1
   111    72    71    1
   112    51    49   ar
   113    48    49   ar
   114    48    47    1
   115    82    80   ar
   116    82    83   ar
   117    80    78   ar
   118    83    81   ar
   119    78    77    1
   120    78    79   ar
   121    77    74    1
   122    47    44    1
   123    81    79   ar
   124    71    68    1
   125    76    75    2
   126    45    44    1
   127    45    46    2
   128    44    43    1
   129    75    74    1
   130    74    73    1
   131    65    66   ar
   132    65    63   ar
   133    68    69    1
   134    68    67    1
   135    70    69    2
   136    66    64   ar
   137    63    60   ar
   138    67    55   am
   139    64    62   ar
   140    60    62   ar
   141    60    58   ar
   142    55    56    2
   143    55    54    1
   144    62    61   ar
   145    53    54    1
   146    57    58    1
   147    57    54    1
   148    58    59   ar
   149    61    59   ar
