@<TRIPOS>MOLECULE
tmp/3dzmA00.pdb
 128 128 0 0 0
SMALL
GASTEIGER

@<TRIPOS>ATOM
      1  N         70.1210  -57.5150  -25.8800 N.3    13  PHE13      -0.1227
      2  CA        70.2140  -58.9010  -25.4170 C.3    13  PHE13       0.1736
      3  C         69.0950  -59.2730  -24.4050 C.2    13  PHE13       0.2595
      4  O         68.8040  -58.5270  -23.4670 O.2    13  PHE13      -0.2718
      5  CB        71.6320  -59.2040  -24.9240 C.3    13  PHE13       0.0547
      6  CG        71.8220  -60.6150  -24.4290 C.ar   13  PHE13      -0.0202
      7  CD1       72.5020  -61.5540  -25.2090 C.ar   13  PHE13      -0.0042
      8  CD2       71.3410  -61.0070  -23.1670 C.ar   13  PHE13      -0.0042
      9  CE1       72.6890  -62.8550  -24.7530 C.ar   13  PHE13      -0.0003
     10  CE2       71.5240  -62.3020  -22.7060 C.ar   13  PHE13      -0.0003
     11  CZ        72.1970  -63.2250  -23.5040 C.ar   13  PHE13      -0.0000
     12  N         68.4110  -60.3810  -24.6950 N.am   14  TYR14      -0.1962
     13  CA        67.4580  -60.9960  -23.8000 C.3    14  TYR14       0.1771
     14  C         67.5910  -62.5010  -23.8710 C.2    14  TYR14       0.2620
     15  O         66.6760  -63.1830  -24.2690 O.2    14  TYR14      -0.2715
     16  CB        66.0320  -60.6100  -24.1230 C.3    14  TYR14       0.0574
     17  CG        65.0710  -60.9340  -23.0100 C.ar   14  TYR14      -0.0198
     18  CD1       64.9690  -60.0970  -21.9000 C.ar   14  TYR14      -0.0009
     19  CD2       64.3110  -62.1050  -23.0320 C.ar   14  TYR14      -0.0009
     20  CE1       64.1160  -60.3960  -20.8540 C.ar   14  TYR14       0.0417
     21  CE2       63.4300  -62.4080  -21.9870 C.ar   14  TYR14       0.0417
     22  CZ        63.3470  -61.5450  -20.8990 C.ar   14  TYR14       0.1957
     23  OH        62.5090  -61.8230  -19.8460 O.3    14  TYR14      -0.2866
     24  N         68.7410  -63.0150  -23.4760 N.am   15  GLY15      -0.1954
     25  CA        69.0010  -64.4270  -23.6310 C.3    15  GLY15       0.1869
     26  C         69.2970  -64.8140  -25.0560 C.2    15  GLY15       0.2309
     27  O         69.2540  -65.9880  -25.4170 O.2    15  GLY15      -0.2863
     28  N         66.8760  -67.6720  -29.3420 N.3    45  SER45      -0.1202
     29  CA        67.2900  -68.3850  -28.1730 C.3    45  SER45       0.2020
     30  C         67.7780  -69.7230  -28.6170 C.2    45  SER45       0.2618
     31  O         67.4810  -70.1630  -29.6970 O.2    45  SER45      -0.2717
     32  CB        66.1330  -68.5210  -27.1770 C.3    45  SER45       0.2103
     33  OG        66.3160  -69.6550  -26.3440 O.3    45  SER45      -0.2182
     34  N         68.5270  -70.3670  -27.7550 N.am   46  ASP46      -0.1973
     35  CA        69.0430  -71.6880  -28.0120 C.3    46  ASP46       0.1709
     36  C         68.0440  -72.6910  -27.4120 C.2    46  ASP46       0.2293
     37  O         67.5480  -72.4870  -26.3210 O.2    46  ASP46      -0.2864
     38  CB        70.4490  -71.7450  -27.3910 C.3    46  ASP46       0.1436
     39  CG        70.8800  -73.1140  -27.0320 C.2    46  ASP46       0.3671
     40  OD1       70.2020  -74.0740  -27.4350 O.co2  46  ASP46      -0.2456
     41  OD2       71.9110  -73.2310  -26.3400 O.co2  46  ASP46      -0.2456
     42  N         62.1320  -66.6590  -27.9030 N.3    75  ASN75      -0.1240
     43  CA        61.3140  -66.2320  -26.7530 C.3    75  ASN75       0.1653
     44  C         60.5010  -65.0560  -27.1560 C.2    75  ASN75       0.2266
     45  O         61.0390  -64.1180  -27.7560 O.2    75  ASN75      -0.2867
     46  CB        62.1460  -65.8650  -25.5300 C.3    75  ASN75       0.1155
     47  CG        62.8050  -67.0580  -24.9110 C.2    75  ASN75       0.2627
     48  OD1       62.1470  -67.9650  -24.4460 O.2    75  ASN75      -0.2716
     49  ND2       64.1050  -67.0660  -24.8970 N.am   75  ASN75      -0.0877
     50  N         58.2370  -69.5620  -24.8810 N.3   106  PHE106     -0.1241
     51  CA        59.4230  -70.2210  -25.4070 C.3   106  PHE106      0.1605
     52  C         59.0870  -71.3180  -26.4020 C.2   106  PHE106      0.2264
     53  O         58.1360  -72.0580  -26.2280 O.2   106  PHE106     -0.2867
     54  CB        60.2570  -70.8400  -24.2770 C.3   106  PHE106      0.0534
     55  CG        61.2890  -71.8310  -24.7700 C.ar  106  PHE106     -0.0203
     56  CD1       62.5090  -71.4000  -25.2390 C.ar  106  PHE106     -0.0042
     57  CD2       61.0120  -73.1890  -24.8080 C.ar  106  PHE106     -0.0042
     58  CE1       63.4490  -72.2890  -25.6950 C.ar  106  PHE106     -0.0003
     59  CE2       61.9600  -74.1050  -25.2780 C.ar  106  PHE106     -0.0003
     60  CZ        63.1780  -73.6490  -25.7210 C.ar  106  PHE106     -0.0000
     61  N         67.1000  -58.0530  -14.8730 N.3   153  VAL153     -0.1245
     62  CA        67.2370  -59.5140  -14.7130 C.3   153  VAL153      0.1561
     63  C         65.8560  -60.0420  -14.4190 C.2   153  VAL153      0.2260
     64  O         65.0760  -59.3950  -13.6910 O.2   153  VAL153     -0.2867
     65  CB        68.2380  -59.8890  -13.5830 C.3   153  VAL153      0.0252
     66  CG1       68.1410  -61.3570  -13.2540 C.3   153  VAL153      0.0019
     67  CG2       69.7400  -59.4460  -13.9340 C.3   153  VAL153      0.0019
     68  N         66.6180  -75.6420  -23.1090 N.3   192  THR192     -0.1203
     69  CA        67.2370  -74.3850  -22.7750 C.3   192  THR192      0.1994
     70  C         66.1800  -73.3040  -22.6440 C.2   192  THR192      0.2618
     71  O         66.3540  -72.1920  -23.1200 O.2   192  THR192     -0.2717
     72  CB        68.2600  -74.0900  -23.8890 C.3   192  THR192      0.1784
     73  OG1       69.4280  -74.8770  -23.6400 O.3   192  THR192     -0.2211
     74  CG2       68.6690  -72.6790  -23.9150 C.3   192  THR192      0.0376
     75  N         65.0510  -73.6140  -22.0150 N.am  193  GLN193     -0.1965
     76  CA        64.0480  -72.5620  -21.8240 C.3   193  GLN193      0.1718
     77  C         64.5370  -71.5890  -20.7360 C.2   193  GLN193      0.2458
     78  O         65.4960  -71.8840  -20.0070 O.2   193  GLN193     -0.2730
     79  CB        62.6720  -73.1290  -21.5090 C.3   193  GLN193      0.0407
     80  CG        62.2970  -73.1180  -20.0300 C.3   193  GLN193      0.0908
     81  CD        62.9460  -74.2320  -19.2160 C.2   193  GLN193      0.2608
     82  OE1       63.8200  -74.9570  -19.6920 O.2   193  GLN193     -0.2717
     83  NE2       62.5010  -74.3820  -17.9910 N.am  193  GLN193     -0.0878
     84  N         63.9070  -70.4150  -20.6450 N.am  194  PRO194     -0.2716
     85  CA        64.3780  -69.4310  -19.6780 C.3   194  PRO194      0.1536
     86  C         64.3540  -69.9020  -18.2480 C.2   194  PRO194      0.2598
     87  O         63.4950  -70.6570  -17.8230 O.2   194  PRO194     -0.2715
     88  CB        63.3940  -68.2770  -19.8540 C.3   194  PRO194      0.0310
     89  CG        62.9890  -68.3600  -21.2340 C.3   194  PRO194      0.0237
     90  CD        62.8990  -69.8400  -21.5430 C.3   194  PRO194      0.0939
     91  N         65.3540  -69.4540  -17.5110 N.am  195  GLU195     -0.1964
     92  CA        65.3090  -69.4910  -16.0710 C.3   195  GLU195      0.1733
     93  C         65.7530  -68.0980  -15.5450 C.2   195  GLU195      0.2616
     94  O         64.9280  -67.2450  -15.1910 O.2   195  GLU195     -0.2715
     95  CB        66.1470  -70.6320  -15.5510 C.3   195  GLU195      0.0429
     96  CG        66.1240  -70.7170  -14.0540 C.3   195  GLU195      0.1163
     97  CD        66.7810  -71.9850  -13.5240 C.2   195  GLU195      0.3649
     98  OE1       67.5920  -72.6030  -14.2770 O.co2 195  GLU195     -0.2457
     99  OE2       66.4640  -72.3510  -12.3520 O.co2 195  GLU195     -0.2457
    100  N         67.0510  -67.8430  -15.5340 N.am  196  TRP196     -0.1960
    101  CA        67.5200  -66.4930  -15.2620 C.3   196  TRP196      0.1771
    102  C         67.8420  -65.8070  -16.5780 C.2   196  TRP196      0.2620
    103  O         68.4730  -66.3970  -17.4550 O.2   196  TRP196     -0.2715
    104  CB        68.7650  -66.5130  -14.3820 C.3   196  TRP196      0.0590
    105  CG        68.5420  -66.9810  -12.9900 C.ar  196  TRP196      0.0006
    106  CD1       68.7630  -68.2360  -12.5110 C.ar  196  TRP196      0.0946
    107  CD2       68.0640  -66.2040  -11.8890 C.ar  196  TRP196      0.0152
    108  NE1       68.4570  -68.2980  -11.1770 N.ar  196  TRP196     -0.2442
    109  CE2       68.0280  -67.0660  -10.7590 C.ar  196  TRP196      0.0810
    110  CE3       67.6760  -64.8680  -11.7380 C.ar  196  TRP196      0.0012
    111  CZ2       67.6000  -66.6360   -9.4880 C.ar  196  TRP196      0.0191
    112  CZ3       67.2710  -64.4260  -10.4540 C.ar  196  TRP196      0.0001
    113  CH2       67.2320  -65.3160   -9.3610 C.ar  196  TRP196      0.0015
    114  N         67.3860  -64.5760  -16.7410 N.am  197  VAL197     -0.1963
    115  CA        67.6390  -63.8890  -17.9910 C.3   197  VAL197      0.1727
    116  C         68.2010  -62.5080  -17.7070 C.2   197  VAL197      0.2616
    117  O         67.5570  -61.7080  -17.0370 O.2   197  VAL197     -0.2715
    118  CB        66.3420  -63.7870  -18.8840 C.3   197  VAL197      0.0290
    119  CG1       66.6720  -63.2340  -20.2950 C.3   197  VAL197      0.0023
    120  CG2       65.6500  -65.1280  -18.9940 C.3   197  VAL197      0.0023
    121  N         69.4060  -62.2460  -18.2090 N.am  198  LEU198     -0.1977
    122  CA        69.9410  -60.8810  -18.2910 C.3   198  LEU198      0.1596
    123  C         69.3440  -60.0760  -19.4530 C.2   198  LEU198      0.2287
    124  O         69.3400  -60.5190  -20.5880 O.2   198  LEU198     -0.2864
    125  CB        71.4420  -60.9390  -18.4800 C.3   198  LEU198      0.0297
    126  CG        72.1860  -59.6260  -18.3080 C.3   198  LEU198      0.0022
    127  CD1       72.0630  -59.1240  -16.8900 C.3   198  LEU198      0.0001
    128  CD2       73.6360  -59.8230  -18.6690 C.3   198  LEU198      0.0001
@<TRIPOS>BOND
     1    31    30    2
     2    28    29    1
     3    30    29    1
     4    30    34   am
     5    29    32    1
     6    35    34    1
     7    35    36    1
     8    35    38    1
     9    42    43    1
    10    45    44    2
    11    40    39   ar
    12    36    37    2
    13    38    39    1
    14    32    33    1
    15    44    43    1
    16    39    41   ar
    17    43    46    1
    18    52    53    2
    19    52    51    1
    20     1     2    1
    21    60    58   ar
    22    60    59   ar
    23    58    56   ar
    24    46    47    1
    25     2     5    1
    26     2     3    1
    27    27    26    2
    28    51    50    1
    29    51    54    1
    30    59    57   ar
    31    56    55   ar
    32     7     9   ar
    33     7     6   ar
    34    26    25    1
    35     5     6    1
    36    47    49   am
    37    47    48    2
    38    57    55   ar
    39    55    54    1
    40     9    11   ar
    41    12     3   am
    42    12    13    1
    43     6     8   ar
    44     3     4    2
    45    15    14    2
    46    16    13    1
    47    16    17    1
    48    74    72    1
    49    72    73    1
    50    72    69    1
    51    14    13    1
    52    14    24   am
    53    25    24    1
    54    11    10   ar
    55     8    10   ar
    56    71    70    2
    57    68    69    1
    58    19    17   ar
    59    19    21   ar
    60    17    18   ar
    61    69    70    1
    62    70    75   am
    63    75    76    1
    64    21    22   ar
    65    18    20   ar
    66    76    79    1
    67    76    77    1
    68    90    89    1
    69    90    84    1
    70    79    80    1
    71    89    88    1
    72    22    20   ar
    73    22    23    1
    74    77    84   am
    75    77    78    2
    76    84    85    1
    77   124   123    2
    78   119   118    1
    79    80    81    1
    80    88    85    1
    81    82    81    2
    82    85    86    1
    83   123   122    1
    84    81    83   am
    85   120   118    1
    86   118   115    1
    87   128   126    1
    88   125   126    1
    89   125   122    1
    90   126   127    1
    91   122   121    1
    92    86    87    2
    93    86    91   am
    94   121   116   am
    95   115   116    1
    96   115   114    1
    97   116   117    2
    98    91    92    1
    99   103   102    2
   100   114   102   am
   101   102   101    1
   102    92    95    1
   103    92    93    1
   104    95    96    1
   105    93   100   am
   106    93    94    2
   107   100   101    1
   108   101   104    1
   109    61    62    1
   110    62    63    1
   111    62    65    1
   112    63    64    2
   113   104   105    1
   114    98    97   ar
   115    96    97    1
   116    67    65    1
   117    65    66    1
   118    97    99   ar
   119   105   106   ar
   120   105   107   ar
   121   106   108   ar
   122   107   110   ar
   123   107   109   ar
   124   110   112   ar
   125   108   109   ar
   126   109   111   ar
   127   112   113   ar
   128   111   113   ar
