@<TRIPOS>MOLECULE
tmp/3dzmA01.pdb
 150 150 0 0 0
SMALL
GASTEIGER

@<TRIPOS>ATOM
      1  N         55.8410  -69.5630  -19.5810 N.3   128  GLN128     -0.1245
      2  CA        56.2100  -69.3540  -18.1950 C.3   128  GLN128      0.1566
      3  C         55.8640  -68.0060  -17.6480 C.2   128  GLN128      0.2260
      4  O         55.8370  -67.0260  -18.3500 O.2   128  GLN128     -0.2867
      5  CB        57.6800  -69.6370  -17.9630 C.3   128  GLN128      0.0367
      6  CG        58.1680  -70.8750  -18.6310 C.3   128  GLN128      0.0905
      7  CD        59.6590  -71.0220  -18.5100 C.2   128  GLN128      0.2608
      8  OE1       60.3690  -70.9150  -19.5020 O.2   128  GLN128     -0.2717
      9  NE2       60.1470  -71.2640  -17.2910 N.am  128  GLN128     -0.0878
     10  N         59.2430  -63.0740  -12.9650 N.3   131  LEU131     -0.1231
     11  CA        59.3820  -61.8030  -12.2370 C.3   131  LEU131      0.1696
     12  C         60.7040  -61.1770  -12.5270 C.2   131  LEU131      0.2632
     13  O         61.6600  -61.8630  -12.8880 O.2   131  LEU131     -0.2714
     14  CB        59.2890  -62.0110  -10.7580 C.3   131  LEU131      0.0284
     15  CG        57.9470  -62.5740  -10.3250 C.3   131  LEU131      0.0019
     16  CD1       58.0160  -63.0800   -8.8550 C.3   131  LEU131      0.0001
     17  CD2       56.8670  -61.4960  -10.5410 C.3   131  LEU131      0.0001
     18  N         60.7710  -59.8660  -12.3690 N.am  132  GLY132     -0.1718
     19  CA        62.0140  -59.1870  -12.6720 C.2   132  GLY132      0.1480
     20  C         62.1320  -57.7750  -12.1720 C.2   132  GLY132      0.2820
     21  O         61.1720  -57.1350  -11.7340 O.2   132  GLY132     -0.2669
     22  N         63.3510  -57.2900  -12.3240 N.am  133  LEU133     -0.1943
     23  CA        63.8890  -56.1130  -11.6500 C.3   133  LEU133      0.1599
     24  C         64.7690  -55.3880  -12.7000 C.2   133  LEU133      0.2287
     25  O         65.4080  -56.0180  -13.5580 O.2   133  LEU133     -0.2864
     26  CB        64.8040  -56.6120  -10.5190 C.3   133  LEU133      0.0297
     27  CG        64.5250  -55.9090   -9.2330 C.3   133  LEU133      0.0022
     28  CD1       63.0300  -55.8460   -9.1350 C.3   133  LEU133      0.0001
     29  CD2       65.1390  -56.6750   -8.0870 C.3   133  LEU133      0.0001
     30  N         67.1000  -58.0530  -14.8730 N.3   153  VAL153     -0.1245
     31  CA        67.2370  -59.5140  -14.7130 C.3   153  VAL153      0.1561
     32  C         65.8560  -60.0420  -14.4190 C.2   153  VAL153      0.2260
     33  O         65.0760  -59.3950  -13.6910 O.2   153  VAL153     -0.2867
     34  CB        68.2380  -59.8890  -13.5830 C.3   153  VAL153      0.0252
     35  CG1       68.1410  -61.3570  -13.2540 C.3   153  VAL153      0.0019
     36  CG2       69.7400  -59.4460  -13.9340 C.3   153  VAL153      0.0019
     37  N         63.4930  -63.6570  -13.5820 N.3   155  TYR155     -0.1227
     38  CA        63.4970  -65.0660  -13.2430 C.3   155  TYR155      0.1736
     39  C         62.1930  -65.7230  -13.7040 C.2   155  TYR155      0.2595
     40  O         61.1190  -65.1880  -13.4630 O.2   155  TYR155     -0.2718
     41  CB        63.6630  -65.2780  -11.7420 C.3   155  TYR155      0.0548
     42  CG        63.5870  -66.7410  -11.4010 C.ar  155  TYR155     -0.0200
     43  CD1       64.6490  -67.5910  -11.6980 C.ar  155  TYR155     -0.0009
     44  CD2       62.4420  -67.2950  -10.8380 C.ar  155  TYR155     -0.0009
     45  CE1       64.5920  -68.9140  -11.4220 C.ar  155  TYR155      0.0417
     46  CE2       62.3790  -68.6570  -10.5450 C.ar  155  TYR155      0.0417
     47  CZ        63.4620  -69.4480  -10.8380 C.ar  155  TYR155      0.1957
     48  OH        63.4340  -70.7910  -10.5650 O.3   155  TYR155     -0.2866
     49  N         62.2920  -66.8930  -14.3360 N.am  156  TYR156     -0.1962
     50  CA        61.1070  -67.6730  -14.7290 C.3   156  TYR156      0.1771
     51  C         60.9360  -69.0000  -13.9930 C.2   156  TYR156      0.2620
     52  O         61.8700  -69.7840  -13.8450 O.2   156  TYR156     -0.2715
     53  CB        61.1030  -67.9250  -16.2360 C.3   156  TYR156      0.0574
     54  CG        60.8700  -66.6730  -17.0510 C.ar  156  TYR156     -0.0198
     55  CD1       59.5800  -66.2360  -17.3200 C.ar  156  TYR156     -0.0009
     56  CD2       61.9370  -65.9100  -17.5300 C.ar  156  TYR156     -0.0009
     57  CE1       59.3560  -65.1010  -18.0590 C.ar  156  TYR156      0.0417
     58  CE2       61.7150  -64.7620  -18.2800 C.ar  156  TYR156      0.0417
     59  CZ        60.4210  -64.3690  -18.5350 C.ar  156  TYR156      0.1957
     60  OH        60.1620  -63.2510  -19.2680 O.3   156  TYR156     -0.2866
     61  N         59.7230  -69.2360  -13.5250 N.am  157  PHE157     -0.1960
     62  CA        59.3440  -70.5070  -12.9160 C.3   157  PHE157      0.1771
     63  C         59.1670  -71.6100  -13.9600 C.2   157  PHE157      0.2619
     64  O         58.5020  -71.4270  -14.9770 O.2   157  PHE157     -0.2715
     65  CB        58.0400  -70.3250  -12.1320 C.3   157  PHE157      0.0574
     66  CG        58.1420  -69.3320  -11.0410 C.ar  157  PHE157     -0.0200
     67  CD1       58.6110  -69.7080   -9.7800 C.ar  157  PHE157     -0.0042
     68  CD2       57.8090  -68.0080  -11.2620 C.ar  157  PHE157     -0.0042
     69  CE1       58.7220  -68.7790   -8.7470 C.ar  157  PHE157     -0.0003
     70  CE2       57.9350  -67.0480  -10.2210 C.ar  157  PHE157     -0.0003
     71  CZ        58.3840  -67.4370   -8.9740 C.ar  157  PHE157     -0.0000
     72  N         59.7530  -72.7620  -13.7000 N.am  158  GLN158     -0.1977
     73  CA        59.5620  -73.9080  -14.5680 C.3   158  GLN158      0.1601
     74  C         58.0830  -74.2470  -14.7180 C.2   158  GLN158      0.2287
     75  O         57.3060  -74.2130  -13.7590 O.2   158  GLN158     -0.2864
     76  CB        60.3320  -75.1370  -14.0640 C.3   158  GLN158      0.0394
     77  CG        59.9360  -75.5390  -12.6680 C.3   158  GLN158      0.0908
     78  CD        60.7100  -76.7270  -12.0820 C.2   158  GLN158      0.2608
     79  OE1       61.8950  -76.9160  -12.3440 O.2   158  GLN158     -0.2717
     80  NE2       60.0240  -77.5130  -11.2410 N.am  158  GLN158     -0.0878
     81  N         64.1800  -81.0770  -18.6050 N.3   188  ASN188     -0.1225
     82  CA        64.5140  -79.7330  -18.1770 C.3   188  ASN188      0.1785
     83  C         66.0070  -79.4010  -18.2260 C.2   188  ASN188      0.2597
     84  O         66.3670  -78.2500  -18.4330 O.2   188  ASN188     -0.2718
     85  CB        63.9090  -79.4310  -16.8050 C.3   188  ASN188      0.1169
     86  CG        63.9100  -77.9460  -16.4770 C.2   188  ASN188      0.2627
     87  OD1       64.1620  -77.1030  -17.3290 O.2   188  ASN188     -0.2716
     88  ND2       63.6120  -77.6260  -15.2350 N.am  188  ASN188     -0.0877
     89  N         66.8690  -80.3980  -18.0470 N.am  189  LYS189     -0.1980
     90  CA        68.3150  -80.1850  -18.1070 C.3   189  LYS189      0.1596
     91  C         68.7720  -79.9620  -19.5410 C.2   189  LYS189      0.2287
     92  O         69.7880  -79.3190  -19.7880 O.2   189  LYS189     -0.2864
     93  CB        69.0730  -81.3850  -17.5220 C.3   189  LYS189      0.0298
     94  CG        69.4980  -81.2300  -16.0700 C.3   189  LYS189      0.0038
     95  CD        70.0990  -82.5330  -15.5170 C.3   189  LYS189      0.0206
     96  CE        71.3040  -82.9830  -16.3430 C.3   189  LYS189      0.1093
     97  NZ        71.9470  -84.2410  -15.8410 N.3   189  LYS189     -0.1314
     98  N         66.6110  -78.9970  -22.2360 N.3   191  VAL191     -0.1231
     99  CA        65.9150  -77.9060  -22.8930 C.3   191  VAL191      0.1692
    100  C         66.2950  -76.5840  -22.2380 C.2   191  VAL191      0.2593
    101  O         66.2440  -76.4100  -21.0110 O.2   191  VAL191     -0.2718
    102  CB        64.3470  -78.0830  -22.8990 C.3   191  VAL191      0.0266
    103  CG1       63.6300  -76.8980  -23.6200 C.3   191  VAL191      0.0020
    104  CG2       63.9450  -79.4010  -23.5090 C.3   191  VAL191      0.0020
    105  N         66.6180  -75.6420  -23.1090 N.am  192  THR192     -0.1939
    106  CA        67.2370  -74.3850  -22.7750 C.3   192  THR192      0.2028
    107  C         66.1800  -73.3040  -22.6440 C.2   192  THR192      0.2642
    108  O         66.3540  -72.1920  -23.1200 O.2   192  THR192     -0.2714
    109  CB        68.2600  -74.0900  -23.8890 C.3   192  THR192      0.1808
    110  OG1       69.4280  -74.8770  -23.6400 O.3   192  THR192     -0.2208
    111  CG2       68.6690  -72.6790  -23.9150 C.3   192  THR192      0.0379
    112  N         65.0510  -73.6140  -22.0150 N.am  193  GLN193     -0.1963
    113  CA        64.0480  -72.5620  -21.8240 C.3   193  GLN193      0.1718
    114  C         64.5370  -71.5890  -20.7360 C.2   193  GLN193      0.2458
    115  O         65.4960  -71.8840  -20.0070 O.2   193  GLN193     -0.2730
    116  CB        62.6720  -73.1290  -21.5090 C.3   193  GLN193      0.0407
    117  CG        62.2970  -73.1180  -20.0300 C.3   193  GLN193      0.0908
    118  CD        62.9460  -74.2320  -19.2160 C.2   193  GLN193      0.2608
    119  OE1       63.8200  -74.9570  -19.6920 O.2   193  GLN193     -0.2717
    120  NE2       62.5010  -74.3820  -17.9910 N.am  193  GLN193     -0.0878
    121  N         63.9070  -70.4150  -20.6450 N.am  194  PRO194     -0.2716
    122  CA        64.3780  -69.4310  -19.6780 C.3   194  PRO194      0.1536
    123  C         64.3540  -69.9020  -18.2480 C.2   194  PRO194      0.2598
    124  O         63.4950  -70.6570  -17.8230 O.2   194  PRO194     -0.2715
    125  CB        63.3940  -68.2770  -19.8540 C.3   194  PRO194      0.0310
    126  CG        62.9890  -68.3600  -21.2340 C.3   194  PRO194      0.0237
    127  CD        62.8990  -69.8400  -21.5430 C.3   194  PRO194      0.0939
    128  N         65.3540  -69.4540  -17.5110 N.am  195  GLU195     -0.1964
    129  CA        65.3090  -69.4910  -16.0710 C.3   195  GLU195      0.1733
    130  C         65.7530  -68.0980  -15.5450 C.2   195  GLU195      0.2616
    131  O         64.9280  -67.2450  -15.1910 O.2   195  GLU195     -0.2715
    132  CB        66.1470  -70.6320  -15.5510 C.3   195  GLU195      0.0429
    133  CG        66.1240  -70.7170  -14.0540 C.3   195  GLU195      0.1163
    134  CD        66.7810  -71.9850  -13.5240 C.2   195  GLU195      0.3649
    135  OE1       67.5920  -72.6030  -14.2770 O.co2 195  GLU195     -0.2457
    136  OE2       66.4640  -72.3510  -12.3520 O.co2 195  GLU195     -0.2457
    137  N         67.0510  -67.8430  -15.5340 N.am  196  TRP196     -0.1974
    138  CA        67.5200  -66.4930  -15.2620 C.3   196  TRP196      0.1640
    139  C         67.8420  -65.8070  -16.5780 C.2   196  TRP196      0.2290
    140  O         68.4730  -66.3970  -17.4550 O.2   196  TRP196     -0.2864
    141  CB        68.7650  -66.5130  -14.3820 C.3   196  TRP196      0.0576
    142  CG        68.5420  -66.9810  -12.9900 C.ar  196  TRP196      0.0006
    143  CD1       68.7630  -68.2360  -12.5110 C.ar  196  TRP196      0.0946
    144  CD2       68.0640  -66.2040  -11.8890 C.ar  196  TRP196      0.0152
    145  NE1       68.4570  -68.2980  -11.1770 N.ar  196  TRP196     -0.2442
    146  CE2       68.0280  -67.0660  -10.7590 C.ar  196  TRP196      0.0810
    147  CE3       67.6760  -64.8680  -11.7380 C.ar  196  TRP196      0.0012
    148  CZ2       67.6000  -66.6360   -9.4880 C.ar  196  TRP196      0.0191
    149  CZ3       67.2710  -64.4260  -10.4540 C.ar  196  TRP196      0.0001
    150  CH2       67.2320  -65.3160   -9.3610 C.ar  196  TRP196      0.0015
@<TRIPOS>BOND
     1   111   109    1
     2   109   110    1
     3   109   106    1
     4   103   102    1
     5   104   102    1
     6   108   107    2
     7   105   106    1
     8   105   100   am
     9   102    99    1
    10    99   100    1
    11    99    98    1
    12   106   107    1
    13   107   112   am
    14   100   101    2
    15   112   113    1
    16   113   116    1
    17   113   114    1
    18   127   126    1
    19   127   121    1
    20   116   117    1
    21   126   125    1
    22   114   121   am
    23   114   115    2
    24   121   122    1
    25   117   118    1
    26   125   122    1
    27    92    91    2
    28   119   118    2
    29   122   123    1
    30     1     2    1
    31    91    90    1
    32     8     7    2
    33    60    59    1
    34   118   120   am
    35     6     7    1
    36     6     5    1
    37    81    82    1
    38    59    58   ar
    39    59    57   ar
    40     7     9   am
    41    84    83    2
    42     4     3    2
    43    58    56   ar
    44   123   124    2
    45   123   128   am
    46    83    82    1
    47    83    89   am
    48     2     5    1
    49     2     3    1
    50    82    85    1
    51    90    89    1
    52    90    93    1
    53    57    55   ar
    54    56    54   ar
    55    93    94    1
    56   128   129    1
    57   140   139    2
    58    87    86    2
    59    55    54   ar
    60    54    53    1
    61    85    86    1
    62   139   138    1
    63    86    88   am
    64    96    97    1
    65    96    95    1
    66    53    50    1
    67   129   132    1
    68   129   130    1
    69    94    95    1
    70   132   133    1
    71   130   137   am
    72   130   131    2
    73   137   138    1
    74   138   141    1
    75    64    63    2
    76    30    31    1
    77    50    49    1
    78    50    51    1
    79    74    73    1
    80    74    75    2
    81    31    32    1
    82    31    34    1
    83    73    76    1
    84    73    72    1
    85    32    33    2
    86   141   142    1
    87    49    39   am
    88   135   134   ar
    89    76    77    1
    90   133   134    1
    91    51    52    2
    92    51    61   am
    93    63    72   am
    94    63    62    1
    95    36    34    1
    96    39    40    2
    97    39    38    1
    98    34    35    1
    99    37    38    1
   100    25    24    2
   101    61    62    1
   102   134   136   ar
   103    38    41    1
   104   142   143   ar
   105   142   144   ar
   106    10    11    1
   107    62    65    1
   108    13    12    2
   109    24    23    1
   110    19    18    2
   111    19    20    1
   112    77    78    1
   113    12    18    1
   114    12    11    1
   115   143   145   ar
   116    79    78    2
   117    22    20   am
   118    22    23    1
   119    11    14    1
   120    20    21    2
   121    65    66    1
   122    78    80   am
   123   144   147   ar
   124   144   146   ar
   125    41    42    1
   126   147   149   ar
   127    43    45   ar
   128    43    42   ar
   129    23    26    1
   130    45    47   ar
   131    42    44   ar
   132    68    66   ar
   133    68    70   ar
   134   145   146   ar
   135    66    67   ar
   136    44    46   ar
   137    47    48    1
   138    47    46   ar
   139   146   148   ar
   140    14    15    1
   141    17    15    1
   142    26    27    1
   143   149   150   ar
   144    15    16    1
   145    70    71   ar
   146    67    69   ar
   147   148   150   ar
   148    27    28    1
   149    27    29    1
   150    71    69   ar
