@<TRIPOS>MOLECULE
tmp/3dzqA00.pdb
 229 219 0 0 0
SMALL
GASTEIGER

@<TRIPOS>ATOM
      1  N        -14.3410    0.4840   52.2440 N.3    19  VAL19      -0.1245
      2  CA       -12.8910    0.2410   52.2570 C.3    19  VAL19       0.1561
      3  C        -12.1660    0.6980   53.5280 C.2    19  VAL19       0.2260
      4  O        -12.6280    1.6060   54.2300 O.2    19  VAL19      -0.2867
      5  CB       -12.1780    0.8010   50.9990 C.3    19  VAL19       0.0252
      6  CG1      -12.6910    0.0950   49.7260 C.3    19  VAL19       0.0019
      7  CG2      -12.3600    2.3010   50.8850 C.3    19  VAL19       0.0019
      8  N         -9.8330    5.1270   57.2660 N.3    24  PHE24      -0.1241
      9  CA        -9.9730    6.4040   56.5360 C.3    24  PHE24       0.1605
     10  C        -11.1990    7.2120   56.9930 C.2    24  PHE24       0.2264
     11  O        -11.4470    8.3310   56.5180 O.2    24  PHE24      -0.2867
     12  CB       -10.0900    6.1550   55.0270 C.3    24  PHE24       0.0534
     13  CG        -9.0540    5.2300   54.4760 C.ar   24  PHE24      -0.0203
     14  CD1       -7.6980    5.4910   54.6610 C.ar   24  PHE24      -0.0042
     15  CD2       -9.4260    4.1190   53.7290 C.ar   24  PHE24      -0.0042
     16  CE1       -6.7260    4.6150   54.1450 C.ar   24  PHE24      -0.0003
     17  CE2       -8.4520    3.2460   53.2030 C.ar   24  PHE24      -0.0003
     18  CZ        -7.1120    3.5040   53.4160 C.ar   24  PHE24      -0.0000
     19  N        -15.6750    5.4860   54.6810 N.3    27  VAL27      -0.1245
     20  CA       -15.2360    5.5830   53.2630 C.3    27  VAL27       0.1561
     21  C        -15.5950    4.3270   52.4350 C.2    27  VAL27       0.2260
     22  O        -15.4400    3.2020   52.9040 O.2    27  VAL27      -0.2867
     23  CB       -13.7050    5.8570   53.1600 C.3    27  VAL27       0.0252
     24  CG1      -13.1880    5.8190   51.6930 C.3    27  VAL27       0.0019
     25  CG2      -13.3370    7.1890   53.8110 C.3    27  VAL27       0.0019
     26  N        -12.7780    7.2770   45.7470 N.3    43  ALA43      -0.1231
     27  CA       -13.0670    7.0030   47.1620 C.3    43  ALA43       0.1694
     28  C        -14.1270    7.9950   47.5840 C.2    43  ALA43       0.2592
     29  O        -14.1130    9.1660   47.1510 O.2    43  ALA43      -0.2718
     30  CB       -11.8190    7.1810   47.9990 C.3    43  ALA43       0.0304
     31  N        -15.0610    7.5410   48.4180 N.am   44  ILE44      -0.1966
     32  CA       -16.1950    8.3830   48.8220 C.3    44  ILE44       0.1727
     33  C        -16.3090    8.3900   50.3430 C.2    44  ILE44       0.2616
     34  O        -16.4020    7.3270   50.9330 O.2    44  ILE44      -0.2715
     35  CB       -17.5100    7.8100   48.1980 C.3    44  ILE44       0.0290
     36  CG1      -17.4240    7.8220   46.6680 C.3    44  ILE44       0.0022
     37  CG2      -18.7180    8.6160   48.6990 C.3    44  ILE44       0.0023
     38  CD1      -18.0710    6.6480   46.0040 C.3    44  ILE44       0.0001
     39  N        -16.2130    9.5590   50.9880 N.am   45  LYS45      -0.1977
     40  CA       -16.3700    9.6530   52.4380 C.3    45  LYS45       0.1596
     41  C        -17.7480   10.2290   52.6640 C.2    45  LYS45       0.2287
     42  O        -18.0740   11.2640   52.0730 O.2    45  LYS45      -0.2864
     43  CB       -15.3140   10.6040   52.9950 C.3    45  LYS45       0.0298
     44  CG       -15.2440   10.7850   54.5330 C.3    45  LYS45       0.0038
     45  CD       -14.0130   11.7410   54.8100 C.3    45  LYS45       0.0206
     46  CE       -13.7780   11.9340   56.2760 C.3    45  LYS45       0.1093
     47  NZ       -12.5900   12.8180   56.4480 N.3    45  LYS45      -0.1314
     48  N        -17.4980   21.2770   59.6560 N.3    58  ASP58      -0.1239
     49  CA       -16.1470   20.7240   59.7300 C.3    58  ASP58       0.1674
     50  C        -15.8270   19.8140   58.5300 C.2    58  ASP58       0.2266
     51  O        -14.7280   19.8610   57.9480 O.2    58  ASP58      -0.2867
     52  CB       -15.9460   19.9670   61.0440 C.3    58  ASP58       0.1410
     53  CG       -15.7990   20.8970   62.2600 C.2    58  ASP58       0.3668
     54  OD1      -15.6260   22.1270   62.0900 O.co2  58  ASP58      -0.2456
     55  OD2      -15.8580   20.3960   63.4080 O.co2  58  ASP58      -0.2456
     56  N        -15.5140   22.0720   55.5090 N.3    61  GLY61      -0.1210
     57  CA       -14.2640   22.8130   55.6340 C.3    61  GLY61       0.1956
     58  C        -13.0690   21.9720   55.1980 C.2    61  GLY61       0.2611
     59  O        -12.1100   22.4690   54.6030 O.2    61  GLY61      -0.2717
     60  N        -13.1180   20.6910   55.5140 N.am   62  GLU62      -0.1979
     61  CA       -12.0890   19.7840   55.0710 C.3    62  GLU62       0.1602
     62  C        -11.9920   19.7760   53.5350 C.2    62  GLU62       0.2287
     63  O        -10.8770   19.8600   52.9720 O.2    62  GLU62      -0.2864
     64  CB       -12.3640   18.3870   55.6070 C.3    62  GLU62       0.0415
     65  CG       -11.5130   17.3240   54.9170 C.3    62  GLU62       0.1163
     66  CD       -11.7130   15.9240   55.4490 C.2    62  GLU62       0.3649
     67  OE1      -12.6430   15.7000   56.2810 O.co2  62  GLU62      -0.2457
     68  OE2      -10.9450   15.0500   55.0090 O.co2  62  GLU62      -0.2457
     69  N        -10.3940   22.8770   52.1150 N.3    65  ILE65      -0.1231
     70  CA        -8.9220   22.8660   52.1860 C.3    65  ILE65       0.1692
     71  C         -8.3580   22.0390   51.0370 C.2    65  ILE65       0.2591
     72  O         -7.4820   22.4830   50.2930 O.2    65  ILE65      -0.2718
     73  CB        -8.4020   22.3310   53.5580 C.3    65  ILE65       0.0266
     74  CG1       -8.7010   23.3560   54.6650 C.3    65  ILE65       0.0019
     75  CG2       -6.8860   22.0900   53.5230 C.3    65  ILE65       0.0020
     76  CD1       -8.4680   22.8680   56.0890 C.3    65  ILE65       0.0001
     77  N         -8.8620   20.8200   50.8890 N.am   66  MET66      -0.1979
     78  CA        -8.3400   19.8760   49.8890 C.3    66  MET66       0.1605
     79  C         -8.4510   20.4310   48.4980 C.2    66  MET66       0.2287
     80  O         -7.5410   20.2220   47.6500 O.2    66  MET66      -0.2864
     81  CB        -9.1830   18.5810   49.9110 C.3    66  MET66       0.0413
     82  CG        -9.2210   17.9360   51.2460 C.3    66  MET66       0.0598
     83  SD       -10.3980   16.5730   51.2310 S.3    66  MET66      -0.1393
     84  CE        -9.6960   15.5960   49.8570 C.3    66  MET66       0.0692
     85  N         -5.6440   22.3600   46.5010 N.3    69  PHE69      -0.1241
     86  CA        -4.3520   21.7490   46.1280 C.3    69  PHE69       0.1605
     87  C         -4.4870   20.7960   44.9690 C.2    69  PHE69       0.2264
     88  O         -4.9950   19.6890   45.1340 O.2    69  PHE69      -0.2867
     89  CB        -3.7760   20.9810   47.3390 C.3    69  PHE69       0.0534
     90  CG        -3.7000   21.8070   48.5730 C.ar   69  PHE69      -0.0203
     91  CD1       -3.1380   23.1070   48.5230 C.ar   69  PHE69      -0.0042
     92  CD2       -4.2310   21.3320   49.7920 C.ar   69  PHE69      -0.0042
     93  CE1       -3.0810   23.9060   49.6690 C.ar   69  PHE69      -0.0003
     94  CE2       -4.1770   22.1290   50.9330 C.ar   69  PHE69      -0.0003
     95  CZ        -3.6260   23.4110   50.8780 C.ar   69  PHE69      -0.0000
     96  N         -0.6670   15.1680   45.8690 N.3    74  ILE74      -0.1231
     97  CA        -1.6150   15.5030   46.9440 C.3    74  ILE74       0.1692
     98  C         -2.9510   14.8900   46.5270 C.2    74  ILE74       0.2591
     99  O         -3.3370   14.9590   45.3410 O.2    74  ILE74      -0.2718
    100  CB        -1.7510   17.0230   47.0890 C.3    74  ILE74       0.0266
    101  CG1       -0.3990   17.5900   47.5230 C.3    74  ILE74       0.0019
    102  CG2       -2.8180   17.3490   48.1470 C.3    74  ILE74       0.0020
    103  CD1       -0.4070   19.1600   47.4820 C.3    74  ILE74       0.0001
    104  N         -3.6570   14.2820   47.4810 N.am   75  ILE75      -0.1980
    105  CA        -4.9180   13.6120   47.1140 C.3    75  ILE75       0.1595
    106  C         -5.8340   14.5770   46.3740 C.2    75  ILE75       0.2287
    107  O         -6.0330   15.7390   46.8040 O.2    75  ILE75      -0.2864
    108  CB        -5.6210   13.0110   48.3810 C.3    75  ILE75       0.0276
    109  CG1       -6.8510   12.1780   47.9780 C.3    75  ILE75       0.0022
    110  CG2       -5.8770   14.0890   49.4350 C.3    75  ILE75       0.0022
    111  CD1       -6.3830   10.7480   47.4180 C.3    75  ILE75       0.0001
    112  N        -17.6880   13.6200   50.3540 N.3    89  ILE89      -0.1245
    113  CA       -16.4440   14.1080   49.7580 C.3    89  ILE89       0.1561
    114  C        -15.9180   12.9660   48.8810 C.2    89  ILE89       0.2260
    115  O        -15.7730   11.8310   49.3370 O.2    89  ILE89      -0.2867
    116  CB       -15.3970   14.4850   50.8360 C.3    89  ILE89       0.0252
    117  CG1      -15.8750   15.6930   51.6870 C.3    89  ILE89       0.0019
    118  CG2      -14.0120   14.7810   50.2110 C.3    89  ILE89       0.0019
    119  CD1      -15.0060   15.7960   52.9630 C.3    89  ILE89       0.0001
    120  N        -12.8780   11.6440   46.2320 N.3    91  THR91      -0.1203
    121  CA       -11.5030   11.8370   45.8140 C.3    91  THR91       0.1994
    122  C        -11.1010   10.7700   44.8230 C.2    91  THR91       0.2618
    123  O        -11.7990    9.7630   44.6240 O.2    91  THR91      -0.2717
    124  CB       -10.5060   11.7530   47.0010 C.3    91  THR91       0.1784
    125  OG1      -10.4870   10.4120   47.5160 O.3    91  THR91      -0.2211
    126  CG2      -10.8730   12.7430   48.1140 C.3    91  THR91       0.0376
    127  N         -9.9380   10.9640   44.2180 N.am   92  GLU92      -0.1965
    128  CA        -9.3720    9.8690   43.4190 C.3    92  GLU92       0.1733
    129  C         -9.1830    8.6190   44.2880 C.2    92  GLU92       0.2616
    130  O         -9.0030    8.7300   45.5000 O.2    92  GLU92      -0.2715
    131  CB        -8.0160   10.3120   42.8580 C.3    92  GLU92       0.0429
    132  CG        -6.9610   10.5270   43.9280 C.3    92  GLU92       0.1163
    133  CD        -5.6270   11.0000   43.3320 C.2    92  GLU92       0.3649
    134  OE1       -5.1330   10.3850   42.3550 O.co2  92  GLU92      -0.2457
    135  OE2       -5.0760   11.9750   43.8720 O.co2  92  GLU92      -0.2457
    136  N         -9.2030    7.4420   43.6580 N.am   93  TYR93      -0.1960
    137  CA        -9.1020    6.1760   44.4000 C.3    93  TYR93       0.1771
    138  C         -7.6410    5.7680   44.4700 C.2    93  TYR93       0.2619
    139  O         -6.9110    5.8280   43.4610 O.2    93  TYR93      -0.2715
    140  CB        -9.9500    5.0860   43.7270 C.3    93  TYR93       0.0574
    141  CG        -9.9680    3.7820   44.5160 C.ar   93  TYR93      -0.0198
    142  CD1      -10.3090    3.7680   45.8720 C.ar   93  TYR93      -0.0009
    143  CD2       -9.6200    2.5960   43.9140 C.ar   93  TYR93      -0.0009
    144  CE1      -10.2970    2.5580   46.6230 C.ar   93  TYR93       0.0417
    145  CE2       -9.6280    1.3990   44.6340 C.ar   93  TYR93       0.0417
    146  CZ        -9.9630    1.4030   45.9870 C.ar   93  TYR93       0.1957
    147  OH        -9.9500    0.1870   46.6870 O.3    93  TYR93      -0.2866
    148  N         -7.1910    5.3610   45.6540 N.am   94  MET94      -0.1977
    149  CA        -5.8000    4.9770   45.8340 C.3    94  MET94       0.1605
    150  C         -5.8020    3.5050   46.2310 C.2    94  MET94       0.2287
    151  O         -6.1060    3.1600   47.3880 O.2    94  MET94      -0.2864
    152  CB        -5.1530    5.8680   46.9180 C.3    94  MET94       0.0413
    153  CG        -5.2280    7.3750   46.5720 C.3    94  MET94       0.0598
    154  SD        -4.1380    7.7410   45.1730 S.3    94  MET94      -0.1393
    155  CE        -2.5530    7.6400   46.0240 C.3    94  MET94       0.0692
    156  N          2.4320   21.9450   49.2610 N.3   129  LEU129     -0.1245
    157  CA         1.6010   22.3840   50.4160 C.3   129  LEU129      0.1561
    158  C          2.2990   23.5360   51.1050 C.2   129  LEU129      0.2260
    159  O          1.6730   24.5700   51.4220 O.2   129  LEU129     -0.2867
    160  CB         1.3940   21.2620   51.4220 C.3   129  LEU129      0.0270
    161  CG         0.4160   20.1720   50.9070 C.3   129  LEU129      0.0019
    162  CD1        0.2650   19.0970   51.9860 C.3   129  LEU129      0.0001
    163  CD2       -0.9700   20.7720   50.6780 C.3   129  LEU129      0.0001
    164  N          0.3580   26.0450   53.6220 N.3   134  TYR134     -0.1241
    165  CA        -0.3510   25.0670   54.4170 C.3   134  TYR134      0.1605
    166  C          0.6220   24.2700   55.2590 C.2   134  TYR134      0.2264
    167  O          1.4920   23.5860   54.7060 O.2   134  TYR134     -0.2867
    168  CB        -1.1470   24.1190   53.5050 C.3   134  TYR134      0.0534
    169  CG        -2.0480   23.1550   54.2270 C.ar  134  TYR134     -0.0201
    170  CD1       -3.2950   23.5690   54.6920 C.ar  134  TYR134     -0.0009
    171  CD2       -1.6520   21.8270   54.4380 C.ar  134  TYR134     -0.0009
    172  CE1       -4.1400   22.7000   55.3360 C.ar  134  TYR134      0.0417
    173  CE2       -2.5140   20.9280   55.1160 C.ar  134  TYR134      0.0417
    174  CZ        -3.7490   21.3970   55.5600 C.ar  134  TYR134      0.1957
    175  OH        -4.6210   20.5590   56.2180 O.3   134  TYR134     -0.2866
    176  N          0.7870   21.0300   57.5070 N.3   136  HIS136     -0.1241
    177  CA        -0.0320   19.8300   57.5880 C.3   136  HIS136      0.1621
    178  C         -0.3610   19.4380   59.0290 C.2   136  HIS136      0.2264
    179  O         -1.5300   19.1790   59.3710 O.2   136  HIS136     -0.2867
    180  CB         0.6970   18.6890   56.8770 C.3   136  HIS136      0.0745
    181  CG        -0.1460   17.4760   56.6820 C.ar  136  HIS136      0.0817
    182  ND1       -0.5190   16.6670   57.7250 N.ar  136  HIS136     -0.2268
    183  CD2       -0.6730   16.9280   55.5600 C.ar  136  HIS136      0.1154
    184  CE1       -1.2390   15.6520   57.2530 C.ar  136  HIS136      0.1986
    185  NE2       -1.3370   15.7880   55.9390 N.ar  136  HIS136     -0.2212
    186  N         -1.3270    8.0660   51.0500 N.3   145  LEU145     -0.1245
    187  CA        -2.0280    7.0020   50.3220 C.3   145  LEU145      0.1561
    188  C         -1.1730    6.6060   49.1330 C.2   145  LEU145      0.2260
    189  O         -0.4250    7.4330   48.6090 O.2   145  LEU145     -0.2867
    190  CB        -3.3870    7.4900   49.8070 C.3   145  LEU145      0.0270
    191  CG        -4.4520    7.6640   50.8830 C.3   145  LEU145      0.0019
    192  CD1       -5.6950    8.3370   50.2900 C.3   145  LEU145      0.0001
    193  CD2       -4.8330    6.2710   51.4540 C.3   145  LEU145      0.0001
    194  N         -0.0340   12.8780   49.5500 N.3   154  VAL154     -0.1231
    195  CA        -0.3020   13.3890   50.8860 C.3   154  VAL154      0.1692
    196  C         -1.8180   13.4700   51.0840 C.2   154  VAL154      0.2593
    197  O         -2.5470   14.0350   50.2380 O.2   154  VAL154     -0.2718
    198  CB         0.3470   14.7830   51.0750 C.3   154  VAL154      0.0266
    199  CG1       -0.0080   15.3160   52.4760 C.3   154  VAL154      0.0020
    200  CG2        1.8880   14.6430   50.8930 C.3   154  VAL154      0.0020
    201  N         -2.2850   12.8820   52.1910 N.am  155  SER155     -0.1938
    202  CA        -3.7020   12.8950   52.5910 C.3   155  SER155      0.2055
    203  C         -3.7910   13.3500   54.0510 C.2   155  SER155      0.2643
    204  O         -2.8240   13.8850   54.6100 O.2   155  SER155     -0.2714
    205  CB        -4.3450   11.4990   52.4220 C.3   155  SER155      0.2130
    206  OG        -5.7730   11.5600   52.4830 O.3   155  SER155     -0.2179
    207  N         -4.9580   13.1930   54.6540 N.am  156  ASP156     -0.1957
    208  CA        -5.0930   13.4350   56.1140 C.3   156  ASP156      0.1840
    209  C         -6.4100   12.8290   56.5680 C.2   156  ASP156      0.2622
    210  O         -7.4790   13.3150   56.1530 O.2   156  ASP156     -0.2715
    211  CB        -5.0320   14.9620   56.4480 C.3   156  ASP156      0.1450
    212  CG        -4.9660   15.2520   57.9430 C.2   156  ASP156      0.3671
    213  OD1       -5.0570   14.3100   58.7780 O.co2 156  ASP156     -0.2456
    214  OD2       -4.8690   16.4450   58.3140 O.co2 156  ASP156     -0.2456
    215  N         -6.3310   11.7930   57.4140 N.am  157  PHE157     -0.1960
    216  CA        -7.5170   11.1300   57.9790 C.3   157  PHE157      0.1771
    217  C         -7.8890   11.5980   59.3680 C.2   157  PHE157      0.2620
    218  O         -8.8730   11.0950   59.9580 O.2   157  PHE157     -0.2715
    219  CB        -7.3260    9.6010   57.9120 C.3   157  PHE157      0.0574
    220  CG        -6.8970    9.1710   56.5690 C.ar  157  PHE157     -0.0200
    221  CD1       -7.6930    9.4860   55.4610 C.ar  157  PHE157     -0.0042
    222  CD2       -5.6430    8.6070   56.3520 C.ar  157  PHE157     -0.0042
    223  CE1       -7.2510    9.2100   54.1530 C.ar  157  PHE157     -0.0003
    224  CE2       -5.2210    8.2880   55.0600 C.ar  157  PHE157     -0.0003
    225  CZ        -6.0120    8.6250   53.9550 C.ar  157  PHE157     -0.0000
    226  N         -7.1670   12.5940   59.8800 N.am  158  GLY158     -0.1954
    227  CA        -7.4640   13.1100   61.2190 C.3   158  GLY158      0.1869
    228  C         -6.9230   12.1960   62.3100 C.2   158  GLY158      0.2309
    229  O         -6.3030   11.1460   62.0220 O.2   158  GLY158     -0.2863
@<TRIPOS>BOND
     1   134   133   ar
     2   131   128    1
     3   131   132    1
     4   133   135   ar
     5   133   132    1
     6   128   127    1
     7   128   129    1
     8   139   138    2
     9   136   129   am
    10   136   137    1
    11   140   137    1
    12   140   141    1
    13   143   141   ar
    14   143   145   ar
    15   127   122   am
    16   129   130    2
    17   137   138    1
    18   138   148   am
    19   141   142   ar
    20   123   122    2
    21   145   146   ar
    22   122   121    1
    23    87    88    2
    24    87    86    1
    25   154   155    1
    26   154   153    1
    27    99    98    2
    28   148   149    1
    29    26    27    1
    30   121   120    1
    31   121   124    1
    32   149   150    1
    33   149   152    1
    34    96    97    1
    35   142   144   ar
    36   146   144   ar
    37   146   147    1
    38    38    36    1
    39    86    85    1
    40    86    89    1
    41   150   151    2
    42   106   107    2
    43   106   105    1
    44    98    97    1
    45    98   104   am
    46   153   152    1
    47    36    35    1
    48    97   100    1
    49   124   125    1
    50   124   126    1
    51   100   101    1
    52   100   102    1
    53   105   104    1
    54   105   108    1
    55    29    28    2
    56    27    28    1
    57    27    30    1
    58    89    90    1
    59   111   109    1
    60   103   101    1
    61    28    31   am
    62    80    79    2
    63   109   108    1
    64    35    37    1
    65    35    32    1
    66   108   110    1
    67    31    32    1
    68    79    78    1
    69    91    90   ar
    70    91    93   ar
    71    90    92   ar
    72   189   188    2
    73    32    33    1
    74   114   115    2
    75   114   113    1
    76   188   187    1
    77   156   157    1
    78   194   195    1
    79    93    95   ar
    80     6     5    1
    81   113   112    1
    82   113   116    1
    83    92    94   ar
    84   190   187    1
    85   190   191    1
    86    84    83    1
    87    78    81    1
    88    78    77    1
    89    81    82    1
    90   118   116    1
    91   197   196    2
    92   192   191    1
    93    72    71    2
    94   187   186    1
    95    33    34    2
    96    33    39   am
    97   157   158    1
    98   157   160    1
    99   163   161    1
   100   116   117    1
   101    95    94   ar
   102   191   193    1
   103     7     5    1
   104   195   198    1
   105   195   196    1
   106    77    71   am
   107   200   198    1
   108   161   160    1
   109   161   162    1
   110    39    40    1
   111     5     2    1
   112    71    70    1
   113   198   199    1
   114   196   201   am
   115   158   159    2
   116    83    82    1
   117   117   119    1
   118    24    23    1
   119    42    41    2
   120    69    70    1
   121    70    73    1
   122   201   202    1
   123     1     2    1
   124     2     3    1
   125   205   206    1
   126   205   202    1
   127    21    22    2
   128    21    20    1
   129    40    41    1
   130    40    43    1
   131   202   203    1
   132    63    62    2
   133    43    44    1
   134    23    20    1
   135    23    25    1
   136    17    18   ar
   137    17    15   ar
   138    20    19    1
   139    18    16   ar
   140   168   169    1
   141   168   165    1
   142    75    73    1
   143     3     4    2
   144    62    61    1
   145    73    74    1
   146   164   165    1
   147    15    13   ar
   148   225   223   ar
   149   225   224   ar
   150   203   204    2
   151   203   207   am
   152    16    14   ar
   153   223   221   ar
   154   169   171   ar
   155   169   170   ar
   156   165   166    1
   157   171   173   ar
   158    13    14   ar
   159    13    12    1
   160    44    45    1
   161    59    58    2
   162   207   208    1
   163    74    76    1
   164   170   172   ar
   165   167   166    2
   166    45    46    1
   167    65    66    1
   168    65    64    1
   169    68    66   ar
   170    12     9    1
   171   224   222   ar
   172    61    60    1
   173    61    64    1
   174   173   174   ar
   175    58    60   am
   176    58    57    1
   177   172   174   ar
   178    66    67   ar
   179   221   220   ar
   180    56    57    1
   181   183   185   ar
   182   183   181   ar
   183   174   175    1
   184   185   184   ar
   185   208   211    1
   186   208   209    1
   187   210   209    2
   188    46    47    1
   189   222   220   ar
   190   211   212    1
   191    11    10    2
   192     9    10    1
   193     9     8    1
   194   209   215   am
   195   220   219    1
   196   181   180    1
   197   181   182   ar
   198   180   177    1
   199   184   182   ar
   200   215   216    1
   201   176   177    1
   202   177   178    1
   203   219   216    1
   204   212   214   ar
   205   212   213   ar
   206    51    50    2
   207   216   217    1
   208    50    49    1
   209   178   179    2
   210   217   226   am
   211   217   218    2
   212    48    49    1
   213    49    52    1
   214   226   227    1
   215    52    53    1
   216   227   228    1
   217   229   228    2
   218    54    53   ar
   219    53    55   ar
