@<TRIPOS>MOLECULE
tmp/3dztA00.pdb
 245 238 0 0 0
SMALL
GASTEIGER

@<TRIPOS>ATOM
      1  N         -6.6400   -0.6340    6.6990 N.3     9  MET9       -0.1230
      2  CA        -7.8420   -0.1760    5.9950 C.3     9  MET9        0.1702
      3  C         -9.0220    0.0670    6.9250 C.2     9  MET9        0.2592
      4  O         -9.7560    1.0410    6.7460 O.2     9  MET9       -0.2718
      5  CB        -8.2270   -1.1120    4.8270 C.3     9  MET9        0.0401
      6  CG        -7.1640   -1.1200    3.7270 C.3     9  MET9        0.0596
      7  SD        -6.7570    0.5200    3.0440 S.3     9  MET9       -0.1393
      8  CE        -8.3360    1.2140    2.6570 C.3     9  MET9        0.0692
      9  N         -9.1930   -0.7910    7.9350 N.am   10  LEU10      -0.1980
     10  CA       -10.3100   -0.6400    8.8530 C.3    10  LEU10       0.1596
     11  C        -10.1500    0.6610    9.6160 C.2    10  LEU10       0.2287
     12  O        -11.1260    1.3850    9.8230 O.2    10  LEU10      -0.2864
     13  CB       -10.3930   -1.8250    9.8210 C.3    10  LEU10       0.0297
     14  CG       -11.6020   -1.8150   10.7660 C.3    10  LEU10       0.0022
     15  CD1      -12.9070   -1.9380    9.9700 C.3    10  LEU10       0.0001
     16  CD2      -11.4350   -2.9660   11.7760 C.3    10  LEU10       0.0001
     17  N        -11.1390    3.4700    7.1040 N.3    13  PHE13      -0.1241
     18  CA       -12.5930    3.5380    6.8540 C.3    13  PHE13       0.1605
     19  C        -13.3380    4.1140    8.0580 C.2    13  PHE13       0.2264
     20  O        -14.1770    5.0150    7.9150 O.2    13  PHE13      -0.2867
     21  CB       -13.1450    2.1400    6.5570 C.3    13  PHE13       0.0534
     22  CG       -12.6250    1.5200    5.2720 C.ar   13  PHE13      -0.0203
     23  CD1      -12.4140    2.2780    4.1220 C.ar   13  PHE13      -0.0042
     24  CD2      -12.3880    0.1420    5.2270 C.ar   13  PHE13      -0.0042
     25  CE1      -11.9170    1.6650    2.9480 C.ar   13  PHE13      -0.0003
     26  CE2      -11.9110   -0.4820    4.0620 C.ar   13  PHE13      -0.0003
     27  CZ       -11.6830    0.2870    2.9260 C.ar   13  PHE13      -0.0000
     28  N        -15.3140    7.6260    8.4440 N.3    17  MET17      -0.1245
     29  CA       -16.7450    7.6530    8.8000 C.3    17  MET17       0.1570
     30  C        -16.9900    8.4750   10.0520 C.2    17  MET17       0.2261
     31  O        -17.8930    9.3340   10.0740 O.2    17  MET17      -0.2867
     32  CB       -17.3240    6.2420    8.9490 C.3    17  MET17       0.0387
     33  CG       -17.4150    5.4960    7.6320 C.3    17  MET17       0.0595
     34  SD       -18.2450    3.8970    7.8620 S.3    17  MET17      -0.1393
     35  CE       -17.7660    3.1290    6.3130 C.3    17  MET17       0.0692
     36  N        -22.7880    3.5460    3.4260 N.3    34  TRP34      -0.1227
     37  CA       -21.3370    3.6000    3.2860 C.3    34  TRP34       0.1737
     38  C        -20.6800    2.2670    3.6430 C.2    34  TRP34       0.2595
     39  O        -19.6950    1.8540    3.0050 O.2    34  TRP34      -0.2718
     40  CB       -20.7310    4.7130    4.1350 C.3    34  TRP34       0.0564
     41  CG       -21.2540    6.0860    3.8420 C.ar   34  TRP34       0.0003
     42  CD1      -22.1300    6.4680    2.8350 C.ar   34  TRP34       0.0946
     43  CD2      -20.9130    7.2790    4.5490 C.ar   34  TRP34       0.0152
     44  NE1      -22.3640    7.8260    2.9170 N.ar   34  TRP34      -0.2442
     45  CE2      -21.6100    8.3490    3.9370 C.ar   34  TRP34       0.0810
     46  CE3      -20.0780    7.5490    5.6450 C.ar   34  TRP34       0.0012
     47  CZ2      -21.5250    9.6670    4.4060 C.ar   34  TRP34       0.0191
     48  CZ3      -19.9600    8.8740    6.0910 C.ar   34  TRP34       0.0001
     49  CH2      -20.6920    9.9150    5.4700 C.ar   34  TRP34       0.0015
     50  N        -21.2390    1.5880    4.6380 N.am   35  LYS35      -0.1980
     51  CA       -20.7130    0.2980    5.0690 C.3    35  LYS35       0.1596
     52  C        -20.7720   -0.7570    3.9840 C.2    35  LYS35       0.2287
     53  O        -20.0190   -1.7180    4.0280 O.2    35  LYS35      -0.2864
     54  CB       -21.4740   -0.1960    6.2820 C.3    35  LYS35       0.0298
     55  CG       -20.8600    0.2620    7.5650 C.3    35  LYS35       0.0038
     56  CD       -21.7640   -0.0970    8.7360 C.3    35  LYS35       0.0206
     57  CE       -22.6490   -1.2900    8.3740 C.3    35  LYS35       0.1093
     58  NZ       -23.6900   -1.5060    9.3940 N.3    35  LYS35      -0.1314
     59  N        -20.2900   -0.0370    0.7770 N.3    37  TRP37      -0.1241
     60  CA       -19.5980    0.5900   -0.3640 C.3    37  TRP37       0.1605
     61  C        -20.5470    1.3190   -1.3260 C.2    37  TRP37       0.2264
     62  O        -20.2650    1.4480   -2.5170 O.2    37  TRP37      -0.2867
     63  CB       -18.6600   -0.4100   -1.0740 C.3    37  TRP37       0.0550
     64  CG       -17.4860   -0.7640   -0.2220 C.ar   37  TRP37       0.0003
     65  CD1      -17.5160   -1.3330    1.0300 C.ar   37  TRP37       0.0946
     66  CD2      -16.1090   -0.5610   -0.5380 C.ar   37  TRP37       0.0152
     67  NE1      -16.2370   -1.5120    1.4970 N.ar   37  TRP37      -0.2442
     68  CE2      -15.3520   -1.0280    0.5650 C.ar   37  TRP37       0.0810
     69  CE3      -15.4340   -0.0350   -1.6510 C.ar   37  TRP37       0.0012
     70  CZ2      -13.9530   -0.9830    0.5880 C.ar   37  TRP37       0.0191
     71  CZ3      -14.0520    0.0150   -1.6280 C.ar   37  TRP37       0.0001
     72  CH2      -13.3180   -0.4540   -0.5100 C.ar   37  TRP37       0.0015
     73  N        -21.6750    4.7950   -2.0550 N.3    39  ASN39      -0.1240
     74  CA       -21.3150    6.1790   -1.7290 C.3    39  ASN39       0.1653
     75  C        -22.4680    7.1100   -2.0470 C.2    39  ASN39       0.2266
     76  O        -22.4490    7.8530   -3.0340 O.2    39  ASN39      -0.2867
     77  CB       -20.0010    6.6150   -2.3720 C.3    39  ASN39       0.1155
     78  CG       -18.7890    6.0480   -1.6550 C.2    39  ASN39       0.2627
     79  OD1      -18.8840    5.5490   -0.5080 O.2    39  ASN39      -0.2716
     80  ND2      -17.6320    6.1260   -2.3170 N.am   39  ASN39      -0.0877
     81  N        -16.5000   12.2420    3.1630 N.3    50  PHE50      -0.1227
     82  CA       -16.1240   10.8570    3.5220 C.3    50  PHE50       0.1736
     83  C        -15.2810   10.2280    2.3870 C.2    50  PHE50       0.2596
     84  O        -14.1970    9.6700    2.6290 O.2    50  PHE50      -0.2718
     85  CB       -17.3710   10.0010    3.8020 C.3    50  PHE50       0.0547
     86  CG       -17.0960    8.5220    3.8290 C.ar   50  PHE50      -0.0202
     87  CD1      -16.2570    7.9800    4.8020 C.ar   50  PHE50      -0.0042
     88  CD2      -17.6590    7.6720    2.8640 C.ar   50  PHE50      -0.0042
     89  CE1      -15.9470    6.5980    4.8260 C.ar   50  PHE50      -0.0003
     90  CE2      -17.3880    6.2750    2.8830 C.ar   50  PHE50      -0.0003
     91  CZ       -16.5190    5.7390    3.8830 C.ar   50  PHE50      -0.0000
     92  N        -15.7960   10.2920    1.1590 N.am   51  GLY51      -0.1957
     93  CA       -15.0770    9.7430   -0.0080 C.3    51  GLY51       0.1869
     94  C        -13.6790   10.3690   -0.1390 C.2    51  GLY51       0.2309
     95  O        -12.6860    9.6530   -0.2590 O.2    51  GLY51      -0.2863
     96  N        -11.1430    9.0240    2.5570 N.3    54  VAL54      -0.1231
     97  CA       -10.5870    7.6950    2.2540 C.3    54  VAL54       0.1692
     98  C         -9.5410    7.7770    1.1210 C.2    54  VAL54       0.2591
     99  O         -8.4650    7.1380    1.1670 O.2    54  VAL54      -0.2718
    100  CB       -11.7170    6.6990    1.8810 C.3    54  VAL54       0.0266
    101  CG1      -11.1530    5.3450    1.5310 C.3    54  VAL54       0.0020
    102  CG2      -12.7390    6.6030    3.0390 C.3    54  VAL54       0.0020
    103  N         -9.8750    8.5320    0.0820 N.am   55  LEU55      -0.1980
    104  CA        -8.9860    8.6850   -1.0750 C.3    55  LEU55       0.1596
    105  C         -7.6730    9.3530   -0.6660 C.2    55  LEU55       0.2287
    106  O         -6.5960    8.9710   -1.1470 O.2    55  LEU55      -0.2864
    107  CB        -9.6680    9.5160   -2.1710 C.3    55  LEU55       0.0297
    108  CG       -10.8450    8.8390   -2.8660 C.3    55  LEU55       0.0022
    109  CD1      -11.6780    9.8720   -3.6720 C.3    55  LEU55       0.0001
    110  CD2      -10.3220    7.6990   -3.7500 C.3    55  LEU55       0.0001
    111  N         -5.5550    6.8210    1.7220 N.3    58  THR58      -0.1218
    112  CA        -4.9800    5.7090    0.9760 C.3    58  THR58       0.1862
    113  C         -3.8970    6.1730   -0.0050 C.2    58  THR58       0.2287
    114  O         -3.0840    5.3690   -0.4640 O.2    58  THR58      -0.2866
    115  CB        -6.0520    4.9130    0.1900 C.3    58  THR58       0.1770
    116  OG1       -6.7510    5.8020   -0.6900 O.3    58  THR58      -0.2211
    117  CG2       -7.0480    4.2000    1.1220 C.3    58  THR58       0.0375
    118  N         -4.7860    7.5280   -2.9360 N.3    60  LEU60      -0.1245
    119  CA        -5.3970    7.5180   -4.2810 C.3    60  LEU60       0.1561
    120  C         -5.6540    8.9110   -4.8080 C.2    60  LEU60       0.2260
    121  O         -5.6590    9.1220   -6.0280 O.2    60  LEU60      -0.2867
    122  CB        -6.7240    6.7380   -4.3100 C.3    60  LEU60       0.0270
    123  CG        -6.6300    5.2190   -4.3480 C.3    60  LEU60       0.0019
    124  CD1       -7.9920    4.5940   -3.9920 C.3    60  LEU60       0.0001
    125  CD2       -6.1770    4.7860   -5.7350 C.3    60  LEU60       0.0001
    126  N         -8.8500   -0.9780  -13.4100 N.3    92  TYR92      -0.1241
    127  CA        -9.0860   -0.0330  -12.3230 C.3    92  TYR92       0.1605
    128  C         -7.9620    1.0130  -12.2430 C.2    92  TYR92       0.2264
    129  O         -8.2340    2.2110  -12.2530 O.2    92  TYR92      -0.2867
    130  CB        -9.2120   -0.8230  -11.0130 C.3    92  TYR92       0.0534
    131  CG        -9.3400   -0.0250   -9.7320 C.ar   92  TYR92      -0.0201
    132  CD1      -10.0650    1.1720   -9.6750 C.ar   92  TYR92      -0.0009
    133  CD2       -8.7660   -0.5090   -8.5540 C.ar   92  TYR92      -0.0009
    134  CE1      -10.1940    1.8970   -8.4580 C.ar   92  TYR92       0.0417
    135  CE2       -8.8780    0.1940   -7.3470 C.ar   92  TYR92       0.0417
    136  CZ        -9.5900    1.3910   -7.3070 C.ar   92  TYR92       0.1957
    137  OH        -9.6880    2.0490   -6.1060 O.3    92  TYR92      -0.2866
    138  N        -14.0120   10.8600   -8.8060 N.3   113  TYR113     -0.1241
    139  CA       -13.7530    9.4640   -8.5020 C.3   113  TYR113      0.1605
    140  C        -15.0050    8.5950   -8.6200 C.2   113  TYR113      0.2264
    141  O        -14.9150    7.3910   -8.8720 O.2   113  TYR113     -0.2867
    142  CB       -13.0960    9.3170   -7.1000 C.3   113  TYR113      0.0534
    143  CG       -12.6950    7.9020   -6.8100 C.ar  113  TYR113     -0.0201
    144  CD1      -11.5360    7.3580   -7.3880 C.ar  113  TYR113     -0.0009
    145  CD2      -13.4860    7.0850   -6.0010 C.ar  113  TYR113     -0.0009
    146  CE1      -11.1700    6.0580   -7.1520 C.ar  113  TYR113      0.0417
    147  CE2      -13.1360    5.7650   -5.7620 C.ar  113  TYR113      0.0417
    148  CZ       -11.9690    5.2640   -6.3550 C.ar  113  TYR113      0.1957
    149  OH       -11.6130    3.9680   -6.1310 O.3   113  TYR113     -0.2866
    150  N        -15.3820    4.5170   -8.9120 N.3   117  HIS117     -0.1241
    151  CA       -15.9020    3.7450   -7.8030 C.3   117  HIS117      0.1621
    152  C        -16.9590    2.7610   -8.3060 C.2   117  HIS117      0.2264
    153  O        -16.8920    1.5780   -8.0340 O.2   117  HIS117     -0.2867
    154  CB       -16.5290    4.6620   -6.7490 C.3   117  HIS117      0.0745
    155  CG       -17.0730    3.9230   -5.5720 C.ar  117  HIS117      0.0817
    156  ND1      -16.2580    3.2900   -4.6590 N.ar  117  HIS117     -0.2268
    157  CD2      -18.3480    3.6920   -5.1700 C.ar  117  HIS117      0.1154
    158  CE1      -17.0070    2.7230   -3.7270 C.ar  117  HIS117      0.1986
    159  NE2      -18.2770    2.9460   -4.0210 N.ar  117  HIS117     -0.2212
    160  N        -12.0120   -2.7450   -6.4030 N.3   124  SER124     -0.1202
    161  CA       -11.4590   -1.8730   -5.3540 C.3   124  SER124      0.2020
    162  C        -11.7920   -2.4070   -3.9780 C.2   124  SER124      0.2618
    163  O        -10.9250   -2.4610   -3.1240 O.2   124  SER124     -0.2717
    164  CB       -11.9260   -0.4160   -5.5220 C.3   124  SER124      0.2103
    165  OG       -13.3150   -0.3020   -5.2980 O.3   124  SER124     -0.2182
    166  N        -13.0410   -2.8260   -3.7840 N.am  125  LYS125     -0.1979
    167  CA       -13.4870   -3.4530   -2.5300 C.3   125  LYS125      0.1596
    168  C        -12.6250   -4.6560   -2.1490 C.2   125  LYS125      0.2287
    169  O        -12.1820   -4.7550   -0.9980 O.2   125  LYS125     -0.2864
    170  CB       -14.9450   -3.8840   -2.6660 C.3   125  LYS125      0.0298
    171  CG       -15.6280   -4.3270   -1.3810 C.3   125  LYS125      0.0038
    172  CD       -17.1200   -4.5170   -1.7100 C.3   125  LYS125      0.0206
    173  CE       -17.9970   -4.3480   -0.5090 C.3   125  LYS125      0.1093
    174  NZ       -17.6150   -5.2880    0.5660 N.3   125  LYS125     -0.1314
    175  N         -8.7920   -3.6860   -1.3490 N.3   128  PHE128     -0.1227
    176  CA        -8.5820   -2.8080   -0.1920 C.3   128  PHE128      0.1736
    177  C         -9.2870   -3.2890    1.0810 C.2   128  PHE128      0.2595
    178  O         -9.6300   -2.4810    1.9610 O.2   128  PHE128     -0.2718
    179  CB        -8.9020   -1.3390   -0.5450 C.3   128  PHE128      0.0547
    180  CG        -7.8360   -0.6970   -1.4250 C.ar  128  PHE128     -0.0202
    181  CD1       -6.6330   -0.2520   -0.8570 C.ar  128  PHE128     -0.0042
    182  CD2       -8.0050   -0.5890   -2.8000 C.ar  128  PHE128     -0.0042
    183  CE1       -5.6210    0.3080   -1.6400 C.ar  128  PHE128     -0.0003
    184  CE2       -6.9860   -0.0200   -3.6100 C.ar  128  PHE128     -0.0003
    185  CZ        -5.7850    0.4010   -3.0240 C.ar  128  PHE128     -0.0000
    186  N         -9.4460   -4.6110    1.1900 N.am  129  HIS129     -0.1961
    187  CA        -9.8960   -5.2520    2.4360 C.3   129  HIS129      0.1787
    188  C        -11.3050   -4.8250    2.8070 C.2   129  HIS129      0.2620
    189  O        -11.6270   -4.6250    3.9780 O.2   129  HIS129     -0.2715
    190  CB        -8.8920   -4.9990    3.5720 C.3   129  HIS129      0.0785
    191  CG        -7.4980   -5.4200    3.2240 C.ar  129  HIS129      0.0821
    192  ND1       -7.1920   -6.6890    2.7770 N.ar  129  HIS129     -0.2267
    193  CD2       -6.3240   -4.7450    3.2720 C.ar  129  HIS129      0.1154
    194  CE1       -5.8940   -6.7750    2.5510 C.ar  129  HIS129      0.1986
    195  NE2       -5.3390   -5.6140    2.8650 N.ar  129  HIS129     -0.2212
    196  N        -12.1410   -4.7050    1.7810 N.am  130  GLY130     -0.1954
    197  CA       -13.5330   -4.3440    1.9690 C.3   130  GLY130      0.1869
    198  C        -14.4510   -5.5530    1.8790 C.2   130  GLY130      0.2309
    199  O        -15.6280   -5.4640    2.2560 O.2   130  GLY130     -0.2863
    200  N        -15.6960   -8.7840    3.1920 N.3   132  LYS132     -0.1245
    201  CA       -15.8080   -9.5440    4.4440 C.3   132  LYS132      0.1561
    202  C        -15.3420  -11.0080    4.3320 C.2   132  LYS132      0.2260
    203  O        -14.6480  -11.5000    5.2250 O.2   132  LYS132     -0.2867
    204  CB       -17.2600   -9.4890    4.9470 C.3   132  LYS132      0.0271
    205  CG       -17.9250   -8.1040    4.7390 C.3   132  LYS132      0.0035
    206  CD       -19.2460   -7.9710    5.4910 C.3   132  LYS132      0.0206
    207  CE       -20.1940   -9.1310    5.1940 C.3   132  LYS132      0.1093
    208  NZ       -21.3310   -9.2270    6.1750 N.3   132  LYS132     -0.1314
    209  N        -11.4180  -10.8660    3.7440 N.3   135  THR135     -0.1203
    210  CA       -10.7390  -10.3350    4.9070 C.3   135  THR135      0.1994
    211  C        -10.7640  -11.3230    6.0780 C.2   135  THR135      0.2617
    212  O         -9.7970  -11.4410    6.8130 O.2   135  THR135     -0.2717
    213  CB       -11.3420   -8.9610    5.2890 C.3   135  THR135      0.1784
    214  OG1      -11.3530   -8.1140    4.1230 O.3   135  THR135     -0.2211
    215  CG2      -10.5190   -8.3070    6.2810 C.3   135  THR135      0.0376
    216  N        -11.8660  -12.0560    6.2300 N.am  136  LYS136     -0.1979
    217  CA       -11.9710  -13.0670    7.2820 C.3   136  LYS136      0.1596
    218  C        -10.8220  -14.0610    7.1460 C.2   136  LYS136      0.2287
    219  O        -10.1410  -14.3790    8.1340 O.2   136  LYS136     -0.2864
    220  CB       -13.3320  -13.7750    7.1870 C.3   136  LYS136      0.0298
    221  CG       -13.5500  -14.9310    8.1780 C.3   136  LYS136      0.0038
    222  CD       -14.7500  -15.7860    7.7560 C.3   136  LYS136      0.0206
    223  CE       -15.2120  -16.7330    8.8910 C.3   136  LYS136      0.1093
    224  NZ       -15.7850  -15.9560   10.0480 N.3   136  LYS136     -0.1314
    225  N         -7.4420  -12.3960    8.1950 N.3   139  TYR139     -0.1241
    226  CA        -7.3100  -12.2790    9.6510 C.3   139  TYR139      0.1605
    227  C         -6.9650  -13.6290   10.3100 C.2   139  TYR139      0.2264
    228  O         -6.1160  -13.7010   11.2190 O.2   139  TYR139     -0.2867
    229  CB        -8.5950  -11.7130   10.2580 C.3   139  TYR139      0.0534
    230  CG        -8.7130  -10.2030   10.2440 C.ar  139  TYR139     -0.0201
    231  CD1       -7.8020   -9.3910   10.9240 C.ar  139  TYR139     -0.0009
    232  CD2       -9.7600   -9.5860    9.5820 C.ar  139  TYR139     -0.0009
    233  CE1       -7.9370   -8.0140   10.9350 C.ar  139  TYR139      0.0417
    234  CE2       -9.9040   -8.1770    9.5860 C.ar  139  TYR139      0.0417
    235  CZ        -8.9920   -7.4110   10.2700 C.ar  139  TYR139      0.1957
    236  OH        -9.1110   -6.0350   10.2750 O.3   139  TYR139     -0.2866
    237  N        -10.2170   -7.7980   14.7140 N.3   149  LYS149     -0.1245
    238  CA       -11.4170   -6.9760   14.9470 C.3   149  LYS149      0.1561
    239  C        -11.8970   -7.1630   16.3860 C.2   149  LYS149      0.2260
    240  O        -11.8220   -8.2870   16.9220 O.2   149  LYS149     -0.2867
    241  CB       -12.5250   -7.3480   13.9540 C.3   149  LYS149      0.0271
    242  CG       -12.2420   -6.7680   12.5470 C.3   149  LYS149      0.0035
    243  CD       -13.4230   -6.8770   11.5740 C.3   149  LYS149      0.0206
    244  CE       -13.7190   -8.3430   11.3020 C.3   149  LYS149      0.1093
    245  NZ       -14.8980   -8.5690   10.3970 N.3   149  LYS149     -0.1314
@<TRIPOS>BOND
     1   126   127    1
     2   127   128    1
     3   127   130    1
     4   129   128    2
     5   130   131    1
     6   131   132   ar
     7   131   133   ar
     8   132   134   ar
     9   150   151    1
    10   141   140    2
    11   138   139    1
    12   140   139    1
    13   133   135   ar
    14   139   142    1
    15   134   136   ar
    16   152   153    2
    17   152   151    1
    18   151   154    1
    19   144   146   ar
    20   144   143   ar
    21   135   136   ar
    22   136   137    1
    23   146   148   ar
    24   142   143    1
    25   143   145   ar
    26   154   155    1
    27   160   161    1
    28   148   149    1
    29   148   147   ar
    30   121   120    2
    31   145   147   ar
    32   125   123    1
    33   155   157   ar
    34   155   156   ar
    35   164   161    1
    36   164   165    1
    37   161   162    1
    38   157   159   ar
    39   120   119    1
    40   156   158   ar
    41   123   122    1
    42   123   124    1
    43   122   119    1
    44   119   118    1
    45   159   158   ar
    46   162   166   am
    47   162   163    2
    48   166   167    1
    49   110   108    1
    50   109   108    1
    51   184   185   ar
    52   184   182   ar
    53    76    75    2
    54   185   183   ar
    55   108   107    1
    56   182   180   ar
    57   170   167    1
    58   170   171    1
    59   167   168    1
    60    62    61    2
    61    77    74    1
    62    77    78    1
    63    80    78   am
    64   107   104    1
    65   168   169    2
    66    73    74    1
    67    75    74    1
    68   172   171    1
    69   172   173    1
    70    78    79    2
    71    69    71   ar
    72    69    66   ar
    73   183   181   ar
    74    71    72   ar
    75   180   181   ar
    76   180   179    1
    77   175   176    1
    78    61    60    1
    79   106   105    2
    80   104   105    1
    81   104   103    1
    82    63    60    1
    83    63    64    1
    84   116   115    1
    85   179   176    1
    86    66    64   ar
    87    66    68   ar
    88    72    70   ar
    89   173   174    1
    90   114   113    2
    91    60    59    1
    92    95    94    2
    93    64    65   ar
    94   176   177    1
    95    94    93    1
    96    93    92    1
    97   113   112    1
    98   103    98   am
    99   115   112    1
   100   115   117    1
   101    68    70   ar
   102    68    67   ar
   103   112   111    1
   104    65    67   ar
   105   177   186   am
   106   177   178    2
   107    98    99    2
   108    98    97    1
   109    92    83   am
   110   186   187    1
   111   101   100    1
   112   196   197    1
   113   196   188   am
   114   198   197    1
   115   198   199    2
   116   100    97    1
   117   100   102    1
   118    97    96    1
   119    83    84    2
   120    83    82    1
   121   187   188    1
   122   187   190    1
   123   194   192   ar
   124   194   195   ar
   125     8     7    1
   126   192   191   ar
   127   188   189    2
   128    42    44   ar
   129    42    41   ar
   130    88    90   ar
   131    88    86   ar
   132   195   193   ar
   133    90    91   ar
   134    44    45   ar
   135    27    25   ar
   136    27    26   ar
   137    25    23   ar
   138    39    38    2
   139     7     6    1
   140    81    82    1
   141   200   201    1
   142   191   193   ar
   143   191   190    1
   144    37    36    1
   145    37    38    1
   146    37    40    1
   147    82    85    1
   148    38    50   am
   149     6     5    1
   150   209   210    1
   151    85    86    1
   152    86    87   ar
   153    41    40    1
   154    41    43   ar
   155    91    89   ar
   156    45    47   ar
   157    45    43   ar
   158    52    53    2
   159    52    51    1
   160    26    24   ar
   161    23    22   ar
   162   214   213    1
   163   202   201    1
   164   202   203    2
   165    47    49   ar
   166   201   204    1
   167    43    46   ar
   168    50    51    1
   169   205   204    1
   170   205   206    1
   171    87    89   ar
   172     5     2    1
   173   210   213    1
   174   210   211    1
   175    51    54    1
   176   207   206    1
   177   207   208    1
   178    24    22   ar
   179    22    21    1
   180   213   215    1
   181    49    48   ar
   182    46    48   ar
   183     2     1    1
   184     2     3    1
   185   211   216   am
   186   211   212    2
   187   216   217    1
   188    54    55    1
   189    35    34    1
   190    21    18    1
   191     4     3    2
   192    18    17    1
   193    18    19    1
   194     3     9   am
   195   218   217    1
   196   218   219    2
   197   220   217    1
   198   220   221    1
   199    55    56    1
   200    33    34    1
   201    33    32    1
   202   222   221    1
   203   222   223    1
   204    20    19    2
   205     9    10    1
   206   225   226    1
   207    57    56    1
   208    57    58    1
   209    28    29    1
   210    29    32    1
   211    29    30    1
   212    10    11    1
   213    10    13    1
   214   223   224    1
   215   232   234   ar
   216   232   230   ar
   217   234   235   ar
   218    11    12    2
   219   226   229    1
   220   226   227    1
   221    13    14    1
   222    15    14    1
   223    30    31    2
   224   230   229    1
   225   230   231   ar
   226   235   236    1
   227   235   233   ar
   228   227   228    2
   229   245   244    1
   230    14    16    1
   231   231   233   ar
   232   244   243    1
   233   243   242    1
   234   242   241    1
   235   241   238    1
   236   237   238    1
   237   238   239    1
   238   239   240    2
