@<TRIPOS>MOLECULE
tmp/3dzvA00.pdb
 166 155 0 0 0
SMALL
GASTEIGER

@<TRIPOS>ATOM
      1  N        119.6870  112.8350  138.0310 N.3    89  ASP89      -0.1239
      2  CA       119.4030  114.1760  138.5690 C.3    89  ASP89       0.1674
      3  C        118.0370  114.5960  138.0320 C.2    89  ASP89       0.2266
      4  O        117.8770  114.8250  136.8450 O.2    89  ASP89      -0.2867
      5  CB       120.5140  115.1740  138.1540 C.3    89  ASP89       0.1410
      6  CG       120.5670  116.4440  139.0400 C.2    89  ASP89       0.3668
      7  OD1      119.6100  116.7240  139.7890 O.co2  89  ASP89      -0.2456
      8  OD2      121.5950  117.1590  138.9980 O.co2  89  ASP89      -0.2456
      9  N        116.1170  117.0420  137.4730 N.3    91  VAL91      -0.1245
     10  CA       115.9690  118.4600  137.2060 C.3    91  VAL91       0.1561
     11  C        114.5930  118.6480  136.6100 C.2    91  VAL91       0.2260
     12  O        114.2550  118.0660  135.5730 O.2    91  VAL91      -0.2867
     13  CB       117.0300  118.9650  136.1690 C.3    91  VAL91       0.0252
     14  CG1      116.8360  120.4460  135.8290 C.3    91  VAL91       0.0019
     15  CG2      118.4400  118.7080  136.6490 C.3    91  VAL91       0.0019
     16  N        118.8810  112.2440  142.7680 N.3   115  LYS115     -0.1245
     17  CA       119.1960  113.5400  143.2920 C.3   115  LYS115      0.1561
     18  C        118.1840  114.5460  142.7700 C.2   115  LYS115      0.2260
     19  O        117.7090  114.4320  141.6410 O.2   115  LYS115     -0.2867
     20  CB       120.5550  113.9100  142.7420 C.3   115  LYS115      0.0271
     21  CG       120.9840  115.2660  143.0920 C.3   115  LYS115      0.0035
     22  CD       122.0070  115.7740  142.1590 C.3   115  LYS115      0.0206
     23  CE       122.1810  117.2700  142.4150 C.3   115  LYS115      0.1093
     24  NZ       120.9930  118.0850  142.0020 N.3   115  LYS115     -0.1314
     25  N        116.2800  118.7820  144.0170 N.3   117  ASN117     -0.1240
     26  CA       116.0970  119.7210  145.0880 C.3   117  ASN117      0.1653
     27  C        114.8840  119.3080  145.8980 C.2   117  ASN117      0.2266
     28  O        114.1930  118.3400  145.5570 O.2   117  ASN117     -0.2867
     29  CB       115.9890  121.1450  144.5590 C.3   117  ASN117      0.1155
     30  CG       114.7560  121.3660  143.7460 C.2   117  ASN117      0.2627
     31  OD1      113.6810  120.8120  144.0070 O.2   117  ASN117     -0.2716
     32  ND2      114.8950  122.1800  142.7550 N.am  117  ASN117     -0.0877
     33  N        111.5390  119.0190  143.9560 N.3   120  GLU120     -0.1245
     34  CA       111.5240  117.8920  143.0310 C.3   120  GLU120      0.1567
     35  C        111.3830  116.5710  143.7710 C.2   120  GLU120      0.2260
     36  O        110.5340  115.7550  143.4230 O.2   120  GLU120     -0.2867
     37  CB       112.8040  117.8950  142.1860 C.3   120  GLU120      0.0388
     38  CG       112.8870  119.1100  141.2480 C.3   120  GLU120      0.1160
     39  CD       114.2970  119.4620  140.7880 C.2   120  GLU120      0.3649
     40  OE1      115.2890  118.8920  141.3070 O.co2 120  GLU120     -0.2457
     41  OE2      114.3990  120.3270  139.8880 O.co2 120  GLU120     -0.2457
     42  N        118.5020  118.4520  147.8260 N.3   160  THR160     -0.1203
     43  CA       119.3100  119.6120  148.1320 C.3   160  THR160      0.1994
     44  C        118.4550  120.7790  148.5640 C.2   160  THR160      0.2618
     45  O        117.3030  120.9090  148.1380 O.2   160  THR160     -0.2717
     46  CB       120.1070  120.0630  146.9280 C.3   160  THR160      0.1784
     47  OG1      119.1920  120.4380  145.8990 O.3   160  THR160     -0.2211
     48  CG2      121.0180  118.9640  146.4430 C.3   160  THR160      0.0376
     49  N        119.0490  121.6230  149.4100 N.am  161  GLY161     -0.1942
     50  CA       118.4070  122.8260  149.9320 C.3   161  GLY161      0.2014
     51  C        119.2430  123.5460  150.9880 C.2   161  GLY161      0.2638
     52  O        120.4460  123.2990  151.1410 O.2   161  GLY161     -0.2714
     53  N        118.5930  124.4290  151.7410 N.am  162  ILE162     -0.1977
     54  CA       119.2750  125.1220  152.8340 C.3   162  ILE162      0.1596
     55  C        119.9740  124.0390  153.6450 C.2   162  ILE162      0.2287
     56  O        121.1370  124.1500  153.9430 O.2   162  ILE162     -0.2864
     57  CB       118.3120  125.9250  153.7640 C.3   162  ILE162      0.0276
     58  CG1      117.4250  126.8920  152.9710 C.3   162  ILE162      0.0022
     59  CG2      119.1170  126.7340  154.7670 C.3   162  ILE162      0.0022
     60  CD1      115.9360  126.9020  153.4050 C.3   162  ILE162      0.0001
     61  N        120.6180  119.8460  153.3340 N.3   164  ASP164     -0.1239
     62  CA       120.5590  118.7610  152.3720 C.3   164  ASP164      0.1674
     63  C        120.1800  117.4780  153.0930 C.2   164  ASP164      0.2266
     64  O        120.6740  117.2290  154.1820 O.2   164  ASP164     -0.2867
     65  CB       121.9080  118.5830  151.7260 C.3   164  ASP164      0.1410
     66  CG       122.4120  119.8440  151.0960 C.2   164  ASP164      0.3668
     67  OD1      121.6930  120.3790  150.2160 O.co2 164  ASP164     -0.2456
     68  OD2      123.5290  120.2830  151.4740 O.co2 164  ASP164     -0.2456
     69  N        125.7920  123.0130  155.1390 N.3   177  ASN177     -0.1225
     70  CA       126.7720  123.9410  154.6340 C.3   177  ASN177      0.1785
     71  C        126.2130  124.7660  153.4980 C.2   177  ASN177      0.2598
     72  O        125.0400  124.6460  153.1480 O.2   177  ASN177     -0.2718
     73  CB       128.0340  123.2030  154.2260 C.3   177  ASN177      0.1169
     74  CG       128.8460  122.7390  155.4340 C.2   177  ASN177      0.2627
     75  OD1      128.9960  121.5460  155.6610 O.2   177  ASN177     -0.2716
     76  ND2      129.3730  123.6910  156.2080 N.am  177  ASN177     -0.0877
     77  N        127.0460  125.6690  152.9870 N.am  178  GLY178     -0.1942
     78  CA       126.7040  126.4820  151.8150 C.3   178  GLY178      0.2014
     79  C        126.1930  127.8550  152.1650 C.2   178  GLY178      0.2639
     80  O        126.1220  128.2130  153.3120 O.2   178  GLY178     -0.2714
     81  N        125.8330  128.6300  151.1590 N.am  179  VAL179     -0.1963
     82  CA       125.3050  129.9750  151.3610 C.3   179  VAL179      0.1712
     83  C        124.1560  130.1460  150.3780 C.2   179  VAL179      0.2458
     84  O        124.0850  129.4220  149.3810 O.2   179  VAL179     -0.2730
     85  CB       126.3840  131.0280  151.1080 C.3   179  VAL179      0.0289
     86  CG1      127.5100  130.8440  152.0640 C.3   179  VAL179      0.0023
     87  CG2      126.9120  130.9290  149.6900 C.3   179  VAL179      0.0023
     88  N        123.2410  131.0860  150.6480 N.am  180  PRO180     -0.2727
     89  CA       122.0540  131.2650  149.7870 C.3   180  PRO180      0.1402
     90  C        122.3640  131.7050  148.3670 C.2   180  PRO180      0.2269
     91  O        121.5570  131.4870  147.4800 O.2   180  PRO180     -0.2865
     92  CB       121.2560  132.3580  150.5060 C.3   180  PRO180      0.0296
     93  CG       121.7720  132.3730  151.8620 C.3   180  PRO180      0.0237
     94  CD       123.2150  132.0250  151.7760 C.3   180  PRO180      0.0939
     95  N        124.2740  130.3610  146.3950 N.3   182  LEU182     -0.1231
     96  CA       124.3640  129.1580  145.5830 C.3   182  LEU182      0.1693
     97  C        123.0690  128.8640  144.8370 C.2   182  LEU182      0.2592
     98  O        123.0430  127.9780  143.9870 O.2   182  LEU182     -0.2718
     99  CB       124.7740  127.9500  146.4290 C.3   182  LEU182      0.0284
    100  CG       126.2340  127.9080  146.8760 C.3   182  LEU182      0.0019
    101  CD1      126.4690  126.7000  147.7630 C.3   182  LEU182      0.0001
    102  CD2      127.1910  127.8910  145.6840 C.3   182  LEU182      0.0001
    103  N        122.0060  129.6060  145.1270 N.am  183  ASP183     -0.1974
    104  CA       120.8120  129.5880  144.2730 C.3   183  ASP183      0.1709
    105  C        120.7640  130.6540  143.2410 C.2   183  ASP183      0.2293
    106  O        119.7680  130.7620  142.5710 O.2   183  ASP183     -0.2864
    107  CB       119.5510  129.7780  145.1040 C.3   183  ASP183      0.1436
    108  CG       118.9520  128.4920  145.5160 C.2   183  ASP183      0.3671
    109  OD1      119.3870  127.4420  144.9900 O.co2 183  ASP183     -0.2456
    110  OD2      118.0480  128.5400  146.3770 O.co2 183  ASP183     -0.2456
    111  N        123.1270  126.1810  137.5250 N.3   187  GLY187     -0.1210
    112  CA       123.8730  124.9080  137.4500 C.3   187  GLY187      0.1956
    113  C        124.4790  124.3500  138.7330 C.2   187  GLY187      0.2613
    114  O        125.2230  123.3510  138.6950 O.2   187  GLY187     -0.2717
    115  N        124.2020  124.9700  139.8780 N.am  188  THR188     -0.1938
    116  CA       124.8420  124.5030  141.1140 C.3   188  THR188      0.2028
    117  C        124.3850  123.0630  141.3950 C.2   188  THR188      0.2643
    118  O        125.2080  122.1770  141.6980 O.2   188  THR188     -0.2714
    119  CB       124.5770  125.4360  142.3200 C.3   188  THR188      0.1808
    120  OG1      123.1740  125.5080  142.5380 O.3   188  THR188     -0.2208
    121  CG2      125.1370  126.8860  142.0770 C.3   188  THR188      0.0379
    122  N        123.0850  122.8220  141.2470 N.am  189  GLY189     -0.1939
    123  CA       122.5390  121.4720  141.3760 C.3   189  GLY189      0.2014
    124  C        123.1290  120.4870  140.3790 C.2   189  GLY189      0.2638
    125  O        123.5490  119.3900  140.7670 O.2   189  GLY189     -0.2714
    126  N        123.1600  120.8920  139.1030 N.am  190  ASP190     -0.1971
    127  CA       123.7280  120.0870  138.0090 C.3   190  ASP190      0.1709
    128  C        125.1710  119.7120  138.3260 C.2   190  ASP190      0.2293
    129  O        125.5600  118.5330  138.1800 O.2   190  ASP190     -0.2864
    130  CB       123.6930  120.8480  136.6630 C.3   190  ASP190      0.1436
    131  CG       122.2830  121.0880  136.1530 C.2   190  ASP190      0.3671
    132  OD1      121.3540  120.4270  136.6660 O.co2 190  ASP190     -0.2456
    133  OD2      122.1060  121.9390  135.2450 O.co2 190  ASP190     -0.2456
    134  N        126.6520  119.6460  141.2840 N.3   192  VAL192     -0.1245
    135  CA       126.7030  118.7170  142.4180 C.3   192  VAL192      0.1561
    136  C        126.4790  117.2700  141.9380 C.2   192  VAL192      0.2260
    137  O        127.1920  116.3290  142.3580 O.2   192  VAL192     -0.2867
    138  CB       125.7670  119.1530  143.5590 C.3   192  VAL192      0.0252
    139  CG1      125.5930  118.0620  144.5890 C.3   192  VAL192      0.0019
    140  CG2      126.3550  120.3720  144.2020 C.3   192  VAL192      0.0019
    141  N        128.5550  117.0560  147.9820 N.3   213  VAL213     -0.1245
    142  CA       127.7200  118.1570  148.4590 C.3   213  VAL213      0.1561
    143  C        128.5000  119.0620  149.4050 C.2   213  VAL213      0.2260
    144  O        128.4580  120.2900  149.3030 O.2   213  VAL213     -0.2867
    145  CB       126.4780  117.6400  149.1680 C.3   213  VAL213      0.0252
    146  CG1      125.7760  118.7660  149.8640 C.3   213  VAL213      0.0019
    147  CG2      125.5600  116.9660  148.1740 C.3   213  VAL213      0.0019
    148  N        131.3360  121.0940  147.5280 N.3   216  PHE216     -0.1227
    149  CA       130.8090  122.1590  146.6820 C.3   216  PHE216      0.1736
    150  C        130.2690  123.2760  147.5520 C.2   216  PHE216      0.2595
    151  O        130.4990  124.4420  147.2840 O.2   216  PHE216     -0.2718
    152  CB       129.7160  121.6340  145.7480 C.3   216  PHE216      0.0547
    153  CG       129.1990  122.6600  144.7930 C.ar  216  PHE216     -0.0202
    154  CD1      129.8150  122.8580  143.5660 C.ar  216  PHE216     -0.0042
    155  CD2      128.1040  123.4460  145.1310 C.ar  216  PHE216     -0.0042
    156  CE1      129.3640  123.8210  142.6970 C.ar  216  PHE216     -0.0003
    157  CE2      127.6280  124.4000  144.2720 C.ar  216  PHE216     -0.0003
    158  CZ       128.2660  124.5900  143.0400 C.ar  216  PHE216     -0.0000
    159  N        129.5490  122.9200  148.6050 N.am  217  ASN217     -0.1974
    160  CA       128.9580  123.9430  149.4550 C.3   217  ASN217      0.1688
    161  C        130.0000  124.7240  150.2460 C.2   217  ASN217      0.2292
    162  O        129.8000  125.8990  150.5120 O.2   217  ASN217     -0.2864
    163  CB       127.9140  123.3350  150.3880 C.3   217  ASN217      0.1181
    164  CG       126.6230  122.9990  149.6730 C.2   217  ASN217      0.2629
    165  OD1      126.4080  123.4200  148.5240 O.2   217  ASN217     -0.2716
    166  ND2      125.7420  122.2540  150.3520 N.am  217  ASN217     -0.0877
@<TRIPOS>BOND
     1   133   131   ar
     2    12    11    2
     3    14    13    1
     4   131   130    1
     5   131   132   ar
     6    13    15    1
     7    13    10    1
     8    11    10    1
     9   130   127    1
    10     4     3    2
    11    10     9    1
    12   112   111    1
    13   112   113    1
    14   127   128    1
    15   127   126    1
    16     1     2    1
    17     3     2    1
    18     5     2    1
    19     5     6    1
    20   129   128    2
    21   114   113    2
    22   113   115   am
    23     8     6   ar
    24     6     7   ar
    25   126   124   am
    26   115   116    1
    27    41    39   ar
    28   124   125    2
    29   124   123    1
    30    39    38    1
    31    39    40   ar
    32   116   117    1
    33   116   119    1
    34   122   123    1
    35   122   117   am
    36    38    37    1
    37   134   135    1
    38   117   118    2
    39    19    18    2
    40   136   137    2
    41   136   135    1
    42    24    23    1
    43   121   119    1
    44    22    23    1
    45    22    21    1
    46    37    34    1
    47   119   120    1
    48   135   138    1
    49   106   105    2
    50   156   158   ar
    51   156   154   ar
    52    20    21    1
    53    20    17    1
    54    32    30   am
    55    16    17    1
    56    18    17    1
    57    34    35    1
    58    34    33    1
    59   158   157   ar
    60   105   104    1
    61    36    35    2
    62   138   140    1
    63   138   139    1
    64   154   153   ar
    65    30    31    2
    66    30    29    1
    67    98    97    2
    68    25    26    1
    69   157   155   ar
    70   104   107    1
    71   104   103    1
    72    29    26    1
    73   153   155   ar
    74   153   152    1
    75    97   103   am
    76    97    96    1
    77   109   108   ar
    78    26    27    1
    79   107   108    1
    80   108   110   ar
    81    28    27    2
    82    96    95    1
    83    96    99    1
    84   102   100    1
    85   152   149    1
    86    47    46    1
    87    99   100    1
    88    48    46    1
    89   149   148    1
    90   149   150    1
    91   100   101    1
    92    46    43    1
    93   151   150    2
    94    91    90    2
    95   150   159   am
    96    42    43    1
    97   141   142    1
    98    43    44    1
    99    45    44    2
   100   147   145    1
   101    90    89    1
   102   142   145    1
   103   142   143    1
   104   165   164    2
   105    44    49   am
   106   159   160    1
   107   145   146    1
   108   144   143    2
   109    84    83    2
   110    49    50    1
   111   160   161    1
   112   160   163    1
   113   164   166   am
   114   164   163    1
   115    87    85    1
   116    89    92    1
   117    89    88    1
   118    50    51    1
   119    67    66   ar
   120   161   162    2
   121    83    88   am
   122    83    82    1
   123    92    93    1
   124    88    94    1
   125    51    52    2
   126    51    53   am
   127    66    68   ar
   128    66    65    1
   129    85    82    1
   130    85    86    1
   131    81    82    1
   132    81    79   am
   133    65    62    1
   134    53    54    1
   135    94    93    1
   136    78    79    1
   137    78    77    1
   138    79    80    2
   139    62    63    1
   140    62    61    1
   141    54    55    1
   142    54    57    1
   143    58    60    1
   144    58    57    1
   145    77    71   am
   146    63    64    2
   147    72    71    2
   148    71    70    1
   149    55    56    2
   150    57    59    1
   151    73    70    1
   152    73    74    1
   153    70    69    1
   154    74    75    2
   155    74    76   am
