@<TRIPOS>MOLECULE
tmp/3dzwB02.pdb
 74 68 0 0 0
SMALL
GASTEIGER

@<TRIPOS>ATOM
      1  N         29.8060   29.2180   67.0260 N.3    57  GLN57      -0.1231
      2  CA        30.5060   28.2570   67.9190 C.3    57  GLN57       0.1698
      3  C         31.7440   27.5600   67.3300 C.2    57  GLN57       0.2593
      4  O         31.9050   27.4650   66.1010 O.2    57  GLN57      -0.2718
      5  CB        29.4990   27.2030   68.3970 C.3    57  GLN57       0.0381
      6  CG        28.3150   27.8110   69.1310 C.3    57  GLN57       0.0905
      7  CD        27.3510   26.7900   69.6590 C.2    57  GLN57       0.2608
      8  OE1       27.3740   25.6130   69.2640 O.2    57  GLN57      -0.2717
      9  NE2       26.4830   27.2230   70.5520 N.am   57  GLN57      -0.0878
     10  N         32.6090   27.0680   68.2290 N.am   58  SER58      -0.1938
     11  CA        33.8410   26.3710   67.8370 C.3    58  SER58       0.2055
     12  C         33.5670   24.9830   67.2140 C.2    58  SER58       0.2643
     13  O         34.4820   24.3570   66.6720 O.2    58  SER58      -0.2714
     14  CB        34.7920   26.2350   69.0370 C.3    58  SER58       0.2130
     15  OG        34.1870   25.5180   70.0970 O.3    58  SER58      -0.2179
     16  N         32.3120   24.5070   67.3050 N.am   59  ASP59      -0.1971
     17  CA        31.9290   23.2150   66.7080 C.3    59  ASP59       0.1709
     18  C         31.3850   23.4530   65.2630 C.2    59  ASP59       0.2293
     19  O         31.0190   22.5120   64.5660 O.2    59  ASP59      -0.2864
     20  CB        30.9230   22.4090   67.5930 C.3    59  ASP59       0.1436
     21  CG        29.5250   23.0720   67.7090 C.2    59  ASP59       0.3671
     22  OD1       29.3400   24.2160   67.2650 O.co2  59  ASP59      -0.2456
     23  OD2       28.6110   22.4080   68.2610 O.co2  59  ASP59      -0.2456
     24  N         28.6600   25.3900   64.4760 N.3    61  ASN61      -0.1240
     25  CA        27.2430   25.6700   64.4550 C.3    61  ASN61       0.1653
     26  C         26.9610   27.1610   64.8000 C.2    61  ASN61       0.2266
     27  O         27.5590   27.7110   65.7290 O.2    61  ASN61      -0.2867
     28  CB        26.5230   24.7180   65.4360 C.3    61  ASN61       0.1155
     29  CG        25.0020   24.5200   65.1130 C.2    61  ASN61       0.2627
     30  OD1       24.5220   24.8590   64.0300 O.2    61  ASN61      -0.2716
     31  ND2       24.2750   23.9160   66.0610 N.am   61  ASN61      -0.0877
     32  N         24.2590   29.6250   66.1740 N.3    63  VAL63      -0.1245
     33  CA        23.0340   29.4810   66.9690 C.3    63  VAL63       0.1561
     34  C         22.4960   30.7650   67.6260 C.2    63  VAL63       0.2260
     35  O         23.2560   31.5860   68.1220 O.2    63  VAL63      -0.2867
     36  CB        23.2860   28.4510   68.1130 C.3    63  VAL63       0.0252
     37  CG1       21.9980   28.1270   68.8520 C.3    63  VAL63       0.0019
     38  CG2       23.9200   27.1690   67.5630 C.3    63  VAL63       0.0019
     39  N         20.4690   32.0780   70.6980 N.3    65  TYR65      -0.1241
     40  CA        20.0680   31.6780   72.0610 C.3    65  TYR65       0.1605
     41  C         19.1370   32.6930   72.7200 C.2    65  TYR65       0.2264
     42  O         19.3010   33.8940   72.5620 O.2    65  TYR65      -0.2867
     43  CB        21.3020   31.4750   72.9630 C.3    65  TYR65       0.0534
     44  CG        22.1160   30.2280   72.6640 C.ar   65  TYR65      -0.0201
     45  CD1       21.7320   28.9920   73.1800 C.ar   65  TYR65      -0.0009
     46  CD2       23.2760   30.2880   71.8980 C.ar   65  TYR65      -0.0009
     47  CE1       22.4620   27.8420   72.9270 C.ar   65  TYR65       0.0417
     48  CE2       24.0270   29.1310   71.6340 C.ar   65  TYR65       0.0417
     49  CZ        23.6030   27.9060   72.1610 C.ar   65  TYR65       0.1957
     50  OH        24.3190   26.7410   71.9210 O.3    65  TYR65      -0.2866
     51  N         18.5550   27.2670   72.7980 N.3    71  PRO71      -0.2116
     52  CA        18.5720   27.5900   71.3670 C.3    71  PRO71       0.1372
     53  C         17.1630   27.7070   70.7610 C.2    71  PRO71       0.2244
     54  O         16.2740   26.9220   71.1050 O.2    71  PRO71      -0.2868
     55  CB        19.3420   26.4090   70.7370 C.3    71  PRO71       0.0268
     56  CG        19.3060   25.3260   71.7260 C.3    71  PRO71       0.0207
     57  CD        19.0680   25.9130   73.0790 C.3    71  PRO71       0.0892
     58  N         19.1370   27.4400   64.6170 N.3    74  ALA74      -0.1245
     59  CA        20.5200   27.0230   64.3620 C.3    74  ALA74       0.1562
     60  C         20.7130   26.6060   62.9080 C.2    74  ALA74       0.2260
     61  O         19.7780   26.1360   62.2530 O.2    74  ALA74      -0.2867
     62  CB        20.9260   25.8920   65.2990 C.3    74  ALA74       0.0290
     63  N         22.4940   24.1250   61.9560 N.3    76  ASN76      -0.1240
     64  CA        22.6370   22.6510   61.9250 C.3    76  ASN76       0.1653
     65  C         23.9500   22.2140   61.2590 C.2    76  ASN76       0.2266
     66  O         23.9910   21.2100   60.5290 O.2    76  ASN76      -0.2867
     67  CB        21.4240   21.9800   61.2330 C.3    76  ASN76       0.1155
     68  CG        20.0850   22.2840   61.9370 C.2    76  ASN76       0.2627
     69  OD1       20.0190   22.3990   63.1620 O.2    76  ASN76      -0.2716
     70  ND2       19.0220   22.3770   61.1560 N.am   76  ASN76      -0.0877
     71  N         26.9230   21.7490   63.1380 N.3    78  GLY78      -0.1225
     72  CA        27.8110   21.3390   64.2120 C.3    78  GLY78       0.1811
     73  C         28.6210   20.1350   63.7630 C.2    78  GLY78       0.2280
     74  O         28.1030   19.2530   63.0780 O.2    78  GLY78      -0.2866
@<TRIPOS>BOND
     1    66    65    2
     2    70    68   am
     3    67    64    1
     4    67    68    1
     5    65    64    1
     6    64    63    1
     7    68    69    2
     8    61    60    2
     9    60    59    1
    10    74    73    2
    11    71    72    1
    12    73    72    1
    13    30    29    2
    14    59    58    1
    15    59    62    1
    16    25    24    1
    17    25    26    1
    18    25    28    1
    19    19    18    2
    20    26    27    2
    21    29    28    1
    22    29    31   am
    23    18    17    1
    24     4     3    2
    25    32    33    1
    26    13    12    2
    27    17    16    1
    28    17    20    1
    29    33    34    1
    30    33    36    1
    31     1     2    1
    32    12    16   am
    33    12    11    1
    34    22    21   ar
    35     3     2    1
    36     3    10   am
    37    38    36    1
    38    20    21    1
    39    34    35    2
    40    21    23   ar
    41    11    10    1
    42    11    14    1
    43     2     5    1
    44    36    37    1
    45     5     6    1
    46    14    15    1
    47     6     7    1
    48     8     7    2
    49     7     9   am
    50    39    40    1
    51    55    52    1
    52    55    56    1
    53    53    54    2
    54    53    52    1
    55    52    51    1
    56    48    46   ar
    57    48    49   ar
    58    56    57    1
    59    46    44   ar
    60    50    49    1
    61    40    41    1
    62    40    43    1
    63    49    47   ar
    64    42    41    2
    65    44    43    1
    66    44    45   ar
    67    51    57    1
    68    47    45   ar
