@<TRIPOS>MOLECULE
tmp/3e00B01.pdb
 198 188 0 0 0
SMALL
GASTEIGER

@<TRIPOS>ATOM
      1  N        -20.0920   18.1470   15.3930 N.3   167  ILE167     -0.1231
      2  CA       -19.0030   19.1090   15.4130 C.3   167  ILE167      0.1692
      3  C        -17.6620   18.4130   15.3200 C.2   167  ILE167      0.2592
      4  O        -16.9040   18.6670   14.3930 O.2   167  ILE167     -0.2718
      5  CB       -19.0210   19.9900   16.6970 C.3   167  ILE167      0.0266
      6  CG1      -20.2380   20.9190   16.6980 C.3   167  ILE167      0.0019
      7  CG2      -17.7760   20.8410   16.7620 C.3   167  ILE167      0.0020
      8  CD1      -20.2980   21.8600   15.5050 C.3   167  ILE167      0.0001
      9  N        -17.3740   17.5150   16.2550 N.am  168  PHE168     -0.1976
     10  CA       -16.0850   16.8350   16.2540 C.3   168  PHE168      0.1639
     11  C        -15.9350   15.5830   15.3970 C.2   168  PHE168      0.2290
     12  O        -14.8480   15.3290   14.8740 O.2   168  PHE168     -0.2864
     13  CB       -15.6600   16.5600   17.6930 C.3   168  PHE168      0.0560
     14  CG       -15.2520   17.7980   18.4340 C.ar  168  PHE168     -0.0200
     15  CD1      -14.0850   18.4710   18.0890 C.ar  168  PHE168     -0.0042
     16  CD2      -16.0490   18.3150   19.4480 C.ar  168  PHE168     -0.0042
     17  CE1      -13.7180   19.6390   18.7410 C.ar  168  PHE168     -0.0003
     18  CE2      -15.6910   19.4840   20.1060 C.ar  168  PHE168     -0.0003
     19  CZ       -14.5240   20.1480   19.7510 C.ar  168  PHE168     -0.0000
     20  N        -15.1180   16.5930   11.7710 N.3   171  CYS171     -0.1221
     21  CA       -13.8340   17.1970   11.4190 C.3   171  CYS171      0.1808
     22  C        -12.8010   16.0910   11.2060 C.2   171  CYS171      0.2601
     23  O        -11.7470   16.3150   10.6130 O.2   171  CYS171     -0.2717
     24  CB       -13.3550   18.1510   12.5270 C.3   171  CYS171      0.0970
     25  SG       -14.0100   19.8540   12.4590 S.3   171  CYS171     -0.0800
     26  N        -13.1290   14.8910   11.6790 N.am  172  GLN172     -0.1979
     27  CA       -12.2400   13.7500   11.5700 C.3   172  GLN172      0.1601
     28  C        -11.6570   13.5930   10.1870 C.2   172  GLN172      0.2287
     29  O        -10.5440   13.0980   10.0520 O.2   172  GLN172     -0.2864
     30  CB       -12.9510   12.4530   11.9710 C.3   172  GLN172      0.0394
     31  CG       -13.3910   12.3920   13.4320 C.3   172  GLN172      0.0908
     32  CD       -12.9550   11.1110   14.1410 C.2   172  GLN172      0.2608
     33  OE1      -13.1120   10.0120   13.6150 O.2   172  GLN172     -0.2717
     34  NE2      -12.4140   11.2550   15.3490 N.am  172  GLN172     -0.0878
     35  N        -10.7090   15.9790    8.2370 N.3   174  ARG174     -0.1231
     36  CA        -9.6680   16.9840    8.0600 C.3   174  ARG174      0.1694
     37  C         -8.4150   16.4870    8.7720 C.2   174  ARG174      0.2592
     38  O         -7.3010   16.6370    8.2760 O.2   174  ARG174     -0.2718
     39  CB       -10.1010   18.3280    8.6470 C.3   174  ARG174      0.0321
     40  CG       -11.2270   19.0010    7.8970 C.3   174  ARG174      0.0489
     41  CD       -10.8770   19.1910    6.4270 C.3   174  ARG174      0.2205
     42  NE       -11.9220   19.9180    5.7100 N.pl3 174  ARG174     -0.0865
     43  CZ       -11.9150   20.1450    4.4000 C.cat 174  ARG174      0.5346
     44  NH1      -10.9140   19.6970    3.6540 N.pl3 174  ARG174      0.1354
     45  NH2      -12.9050   20.8280    3.8400 N.pl3 174  ARG174      0.1354
     46  N         -8.6140   15.8930    9.9440 N.am  175  SER175     -0.1952
     47  CA        -7.5090   15.3550   10.7270 C.3   175  SER175      0.1924
     48  C         -6.7950   14.3590    9.8360 C.2   175  SER175      0.2314
     49  O         -5.5700   14.3800    9.7080 O.2   175  SER175     -0.2863
     50  CB        -8.0350   14.6480   11.9840 C.3   175  SER175      0.2116
     51  OG        -8.7800   15.5430   12.7990 O.3   175  SER175     -0.2180
     52  N         -5.1800   16.0500    6.9390 N.3   178  ALA178     -0.1245
     53  CA        -4.0390   16.6830    7.5980 C.3   178  ALA178      0.1562
     54  C         -2.9050   15.6600    7.7200 C.2   178  ALA178      0.2260
     55  O         -1.8070   15.8700    7.2010 O.2   178  ALA178     -0.2867
     56  CB        -4.4520   17.1840    8.9800 C.3   178  ALA178      0.0290
     57  N          0.1260   14.6070   15.5710 N.3   209  HIS209     -0.1241
     58  CA        -0.5910   15.2900   16.6410 C.3   209  HIS209      0.1621
     59  C         -0.0470   16.6660   16.9480 C.2   209  HIS209      0.2264
     60  O         -0.7650   17.6560   16.8550 O.2   209  HIS209     -0.2867
     61  CB        -0.5690   14.4590   17.9180 C.3   209  HIS209      0.0745
     62  CG        -1.3140   13.1740   17.7960 C.ar  209  HIS209      0.0817
     63  ND1       -2.6470   13.1210   17.4530 N.ar  209  HIS209     -0.2268
     64  CD2       -0.9110   11.8920   17.9520 C.ar  209  HIS209      0.1154
     65  CE1       -3.0340   11.8600   17.4050 C.ar  209  HIS209      0.1986
     66  NE2       -2.0000   11.0950   17.7050 N.ar  209  HIS209     -0.2212
     67  N         -0.2770   19.0020   14.1050 N.3   212  ILE212     -0.1231
     68  CA        -1.6740   19.4260   13.9040 C.3   212  ILE212      0.1692
     69  C         -2.0190   20.6730   14.7050 C.2   212  ILE212      0.2592
     70  O         -2.6160   21.6010   14.1770 O.2   212  ILE212     -0.2718
     71  CB        -2.6990   18.3320   14.3360 C.3   212  ILE212      0.0266
     72  CG1       -2.7170   17.1720   13.3400 C.3   212  ILE212      0.0019
     73  CG2       -4.0880   18.9320   14.4360 C.3   212  ILE212      0.0020
     74  CD1       -3.3840   17.4930   12.0260 C.3   212  ILE212      0.0001
     75  N         -1.6670   20.6870   15.9850 N.am  213  TYR213     -0.1976
     76  CA        -1.9820   21.8340   16.8180 C.3   213  TYR213      0.1639
     77  C         -1.1790   23.0590   16.4370 C.2   213  TYR213      0.2290
     78  O         -1.6070   24.1890   16.6870 O.2   213  TYR213     -0.2864
     79  CB        -1.7300   21.5180   18.2780 C.3   213  TYR213      0.0560
     80  CG        -2.3600   20.2400   18.7340 C.ar  213  TYR213     -0.0198
     81  CD1       -3.6680   19.9280   18.4030 C.ar  213  TYR213     -0.0009
     82  CD2       -1.6560   19.3570   19.5420 C.ar  213  TYR213     -0.0009
     83  CE1       -4.2630   18.7680   18.8700 C.ar  213  TYR213      0.0417
     84  CE2       -2.2380   18.1970   20.0140 C.ar  213  TYR213      0.0417
     85  CZ        -3.5380   17.9100   19.6780 C.ar  213  TYR213      0.1957
     86  OH        -4.1040   16.7620   20.1660 O.3   213  TYR213     -0.2866
     87  N         -3.1000   24.1450   13.4260 N.3   216  LEU216     -0.1245
     88  CA        -4.3900   24.5230   13.9540 C.3   216  LEU216      0.1561
     89  C         -4.3850   25.8530   14.6890 C.2   216  LEU216      0.2260
     90  O         -5.4470   26.3780   15.0150 O.2   216  LEU216     -0.2867
     91  CB        -4.8740   23.4380   14.8890 C.3   216  LEU216      0.0270
     92  CG        -6.2560   23.6590   15.4710 C.3   216  LEU216      0.0019
     93  CD1       -7.2920   22.9020   14.6540 C.3   216  LEU216      0.0001
     94  CD2       -6.2570   23.1810   16.9180 C.3   216  LEU216      0.0001
     95  N         -4.7850   29.1130   12.1000 N.3   219  LEU219     -0.1245
     96  CA        -6.1830   29.3930   11.7930 C.3   219  LEU219      0.1561
     97  C         -6.9260   30.0160   12.9860 C.2   219  LEU219      0.2260
     98  O         -7.9700   30.6300   12.8120 O.2   219  LEU219     -0.2867
     99  CB        -6.8960   28.0990   11.4030 C.3   219  LEU219      0.0270
    100  CG        -6.1760   27.0280   10.5860 C.3   219  LEU219      0.0019
    101  CD1       -7.0320   25.7730   10.5500 C.3   219  LEU219      0.0001
    102  CD2       -5.8920   27.5390    9.1920 C.3   219  LEU219      0.0001
    103  N        -11.9440   30.1940   15.5390 N.3   225  VAL225     -0.1231
    104  CA       -11.0930   29.3580   14.6950 C.3   225  VAL225      0.1692
    105  C        -11.6500   29.2140   13.2840 C.2   225  VAL225      0.2592
    106  O        -12.8530   29.0770   13.0930 O.2   225  VAL225     -0.2718
    107  CB       -10.8970   27.9430   15.3250 C.3   225  VAL225      0.0266
    108  CG1      -12.2470   27.3340   15.6660 C.3   225  VAL225      0.0020
    109  CG2      -10.1050   27.0330   14.3770 C.3   225  VAL225      0.0020
    110  N        -10.7530   29.2650   12.3020 N.am  226  LEU226     -0.1966
    111  CA       -11.1110   29.1180   10.8950 C.3   226  LEU226      0.1728
    112  C        -11.4380   27.6700   10.5760 C.2   226  LEU226      0.2616
    113  O        -10.8900   26.7390   11.1680 O.2   226  LEU226     -0.2715
    114  CB        -9.9770   29.5810    9.9820 C.3   226  LEU226      0.0311
    115  CG        -9.7520   31.0840    9.9220 C.3   226  LEU226      0.0022
    116  CD1       -8.9990   31.4280    8.6550 C.3   226  LEU226      0.0001
    117  CD2      -11.0760   31.8030    9.9160 C.3   226  LEU226      0.0001
    118  N        -12.3250   27.4720    9.6170 N.am  227  ILE227     -0.1977
    119  CA       -12.7240   26.1250    9.2850 C.3   227  ILE227      0.1596
    120  C        -13.1910   26.0270    7.8470 C.2   227  ILE227      0.2287
    121  O        -13.2950   27.0280    7.1360 O.2   227  ILE227     -0.2864
    122  CB       -13.9130   25.6810   10.1730 C.3   227  ILE227      0.0276
    123  CG1      -15.1310   26.5490    9.8570 C.3   227  ILE227      0.0022
    124  CG2      -13.5760   25.8270   11.6600 C.3   227  ILE227      0.0022
    125  CD1      -16.3500   26.1870   10.6660 C.3   227  ILE227      0.0001
    126  N        -15.7990   29.2960   13.4090 N.3   234  MET234     -0.1245
    127  CA       -16.4900   28.9350   14.6430 C.3   234  MET234      0.1570
    128  C        -15.9020   29.7140   15.8270 C.2   234  MET234      0.2261
    129  O        -14.6850   29.8770   15.9150 O.2   234  MET234     -0.2867
    130  CB       -16.3500   27.4380   14.8700 C.3   234  MET234      0.0387
    131  CG       -17.2760   26.8960   15.9170 C.3   234  MET234      0.0595
    132  SD       -17.3630   25.1240   15.8030 S.3   234  MET234     -0.1393
    133  CE       -18.3590   24.9210   14.2870 C.3   234  MET234      0.0692
    134  N        -17.9380   26.8430   20.9910 N.3   239  LEU239     -0.1245
    135  CA       -17.3180   25.5500   21.2340 C.3   239  LEU239      0.1561
    136  C        -17.2720   25.3080   22.7260 C.2   239  LEU239      0.2260
    137  O        -17.6770   24.2610   23.2100 O.2   239  LEU239     -0.2867
    138  CB       -15.9070   25.5410   20.6570 C.3   239  LEU239      0.0270
    139  CG       -15.8160   25.4360   19.1360 C.3   239  LEU239      0.0019
    140  CD1      -14.3870   25.5690   18.6380 C.3   239  LEU239      0.0001
    141  CD2      -16.3680   24.0920   18.7590 C.3   239  LEU239      0.0001
    142  N        -12.6940   20.7720   25.0740 N.3   249  PHE249     -0.1227
    143  CA       -12.0220   19.8490   24.1730 C.3   249  PHE249      0.1736
    144  C        -11.0450   20.6550   23.3210 C.2   249  PHE249      0.2595
    145  O         -9.9140   20.2370   23.0710 O.2   249  PHE249     -0.2718
    146  CB       -13.0860   19.2240   23.2730 C.3   249  PHE249      0.0547
    147  CG       -12.6860   17.9330   22.6370 C.ar  249  PHE249     -0.0202
    148  CD1      -13.0630   16.7220   23.2090 C.ar  249  PHE249     -0.0042
    149  CD2      -11.9850   17.9210   21.4360 C.ar  249  PHE249     -0.0042
    150  CE1      -12.7540   15.5150   22.5930 C.ar  249  PHE249     -0.0003
    151  CE2      -11.6710   16.7220   20.8100 C.ar  249  PHE249     -0.0003
    152  CZ       -12.0580   15.5140   21.3900 C.ar  249  PHE249     -0.0000
    153  N        -11.5210   21.8190   22.8810 N.am  250  MET250     -0.1979
    154  CA       -10.7700   22.7430   22.0430 C.3   250  MET250      0.1605
    155  C        -10.1800   23.8780   22.8520 C.2   250  MET250      0.2287
    156  O         -9.4560   24.7090   22.3070 O.2   250  MET250     -0.2864
    157  CB       -11.6890   23.3450   20.9900 C.3   250  MET250      0.0413
    158  CG       -11.9640   22.4550   19.8300 C.3   250  MET250      0.0598
    159  SD       -10.4770   22.3500   18.8940 S.3   250  MET250     -0.1393
    160  CE       -10.6310   23.8000   17.8470 C.3   250  MET250      0.0692
    161  N         -5.0610   15.6360   25.6020 N.3   335  HIS335     -0.1241
    162  CA        -6.0760   15.3590   24.5950 C.3   335  HIS335      0.1621
    163  C         -6.4290   13.8790   24.5330 C.2   335  HIS335      0.2264
    164  O         -7.5550   13.5170   24.1890 O.2   335  HIS335     -0.2867
    165  CB        -5.5910   15.8060   23.2240 C.3   335  HIS335      0.0745
    166  CG        -6.6160   15.6500   22.1490 C.ar  335  HIS335      0.0817
    167  ND1       -7.7290   16.4560   22.0620 N.ar  335  HIS335     -0.2268
    168  CD2       -6.7010   14.7770   21.1190 C.ar  335  HIS335      0.1154
    169  CE1       -8.4550   16.0880   21.0220 C.ar  335  HIS335      0.1986
    170  NE2       -7.8530   15.0710   20.4320 N.ar  335  HIS335     -0.2212
    171  N        -10.0160   11.6890   25.0450 N.3   339  LEU339     -0.1245
    172  CA       -10.5450   10.7460   24.0700 C.3   339  LEU339      0.1561
    173  C        -10.6600    9.3550   24.6970 C.2   339  LEU339      0.2260
    174  O        -11.1860    8.4240   24.0880 O.2   339  LEU339     -0.2867
    175  CB        -9.6300   10.7240   22.8400 C.3   339  LEU339      0.0270
    176  CG       -10.0080    9.9260   21.5840 C.3   339  LEU339      0.0019
    177  CD1       -9.3110   10.5610   20.3760 C.3   339  LEU339      0.0001
    178  CD2       -9.6260    8.4370   21.7350 C.3   339  LEU339      0.0001
    179  N         -7.1760    7.6220   12.2690 N.3   355  LEU355     -0.1245
    180  CA        -7.0150    8.3210   13.5440 C.3   355  LEU355      0.1561
    181  C         -6.9510    7.1700   14.5490 C.2   355  LEU355      0.2260
    182  O         -6.3220    7.2630   15.6000 O.2   355  LEU355     -0.2867
    183  CB        -8.2290    9.2110   13.8550 C.3   355  LEU355      0.0270
    184  CG        -8.8160   10.1510   12.7860 C.3   355  LEU355      0.0019
    185  CD1       -9.9120   11.0050   13.4110 C.3   355  LEU355      0.0001
    186  CD2       -7.7500   11.0520   12.1980 C.3   355  LEU355      0.0001
    187  N         -3.7660    6.8990   17.2940 N.3   359  TYR359     -0.1241
    188  CA        -4.1260    6.9320   18.7170 C.3   359  TYR359      0.1605
    189  C         -3.8710    5.6410   19.4960 C.2   359  TYR359      0.2264
    190  O         -3.7980    5.6660   20.7270 O.2   359  TYR359     -0.2867
    191  CB        -5.6050    7.2980   18.8780 C.3   359  TYR359      0.0534
    192  CG        -5.8720    8.7740   18.8650 C.ar  359  TYR359     -0.0201
    193  CD1       -5.5000    9.5690   19.9400 C.ar  359  TYR359     -0.0009
    194  CD2       -6.4550    9.3870   17.7600 C.ar  359  TYR359     -0.0009
    195  CE1       -5.6970   10.9440   19.9190 C.ar  359  TYR359      0.0417
    196  CE2       -6.6560   10.7630   17.7260 C.ar  359  TYR359      0.0417
    197  CZ        -6.2720   11.5360   18.8100 C.ar  359  TYR359      0.1957
    198  OH        -6.4450   12.8990   18.7880 O.3   359  TYR359     -0.2866
@<TRIPOS>BOND
     1    44    43    1
     2    45    43    1
     3    43    42    2
     4    42    41    1
     5    41    40    1
     6    52    53    1
     7   121   120    2
     8    55    54    2
     9    53    54    1
    10    53    56    1
    11   120   119    1
    12    40    39    1
    13    36    35    1
    14    36    39    1
    15    36    37    1
    16    38    37    2
    17   116   115    1
    18    37    46   am
    19   102   100    1
    20   119   118    1
    21   119   122    1
    22   118   112   am
    23    49    48    2
    24    48    47    1
    25   123   122    1
    26   123   125    1
    27   117   115    1
    28   115   114    1
    29    46    47    1
    30   114   111    1
    31    29    28    2
    32   122   124    1
    33    28    27    1
    34   101   100    1
    35   112   111    1
    36   112   113    2
    37   100    99    1
    38    23    22    2
    39    47    50    1
    40   111   110    1
    41    22    21    1
    42    22    26   am
    43    99    96    1
    44    21    20    1
    45    21    24    1
    46    27    26    1
    47    27    30    1
    48    96    95    1
    49    96    97    1
    50    30    31    1
    51    50    51    1
    52    74    72    1
    53   186   184    1
    54   179   180    1
    55   110   105   am
    56    25    24    1
    57   184   185    1
    58   184   183    1
    59    98    97    2
    60   106   105    2
    61   105   104    1
    62    72    71    1
    63   126   127    1
    64    87    88    1
    65    31    32    1
    66   180   183    1
    67   180   181    1
    68    33    32    2
    69    68    67    1
    70    68    71    1
    71    68    69    1
    72    88    89    1
    73    88    91    1
    74    32    34   am
    75    70    69    2
    76   133   132    1
    77    71    73    1
    78   109   107    1
    79     4     3    2
    80   181   182    2
    81   127   130    1
    82   127   128    1
    83    93    92    1
    84    89    90    2
    85   104   107    1
    86   104   103    1
    87    69    75   am
    88   130   131    1
    89    12    11    2
    90    91    92    1
    91     3     2    1
    92     3     9   am
    93   107   108    1
    94     1     2    1
    95    11    10    1
    96     2     5    1
    97    92    94    1
    98     8     6    1
    99    57    58    1
   100   132   131    1
   101   128   129    2
   102    75    76    1
   103    10     9    1
   104    10    13    1
   105    77    78    2
   106    77    76    1
   107    58    59    1
   108    58    61    1
   109     5     6    1
   110     5     7    1
   111    76    79    1
   112    60    59    2
   113   187   188    1
   114    65    63   ar
   115    65    66   ar
   116    63    62   ar
   117    13    14    1
   118    66    64   ar
   119   196   194   ar
   120   196   197   ar
   121   194   192   ar
   122    62    61    1
   123    62    64   ar
   124   160   159    1
   125    15    14   ar
   126    15    17   ar
   127    79    80    1
   128    81    80   ar
   129    81    83   ar
   130    14    16   ar
   131   140   139    1
   132   188   191    1
   133   188   189    1
   134    80    82   ar
   135    17    19   ar
   136   141   139    1
   137   198   197    1
   138   197   195   ar
   139   192   191    1
   140   192   193   ar
   141    83    85   ar
   142   159   158    1
   143   139   138    1
   144    16    18   ar
   145   189   190    2
   146    82    84   ar
   147    85    84   ar
   148    85    86    1
   149    19    18   ar
   150   158   157    1
   151   195   193   ar
   152   177   176    1
   153   170   169   ar
   154   170   168   ar
   155   138   135    1
   156   151   152   ar
   157   151   149   ar
   158   157   154    1
   159   134   135    1
   160   169   167   ar
   161   168   166   ar
   162   135   136    1
   163   152   150   ar
   164   149   147   ar
   165   176   178    1
   166   176   175    1
   167   154   155    1
   168   154   153    1
   169   167   166   ar
   170   166   165    1
   171   156   155    2
   172   150   148   ar
   173   147   148   ar
   174   147   146    1
   175   136   137    2
   176   175   172    1
   177   153   144   am
   178   145   144    2
   179   165   162    1
   180   146   143    1
   181   144   143    1
   182   172   173    1
   183   172   171    1
   184   174   173    2
   185   143   142    1
   186   164   163    2
   187   163   162    1
   188   162   161    1
