@<TRIPOS>MOLECULE
tmp/3e00A00.pdb
 124 118 0 0 0
SMALL
GASTEIGER

@<TRIPOS>ATOM
      1  N         10.3640   18.1340   50.8880 N.3   111  PHE111     -0.1241
      2  CA        10.8150   19.0940   51.8870 C.3   111  PHE111      0.1605
      3  C         12.1190   19.7580   51.4370 C.2   111  PHE111      0.2264
      4  O         12.3110   20.9680   51.6280 O.2   111  PHE111     -0.2867
      5  CB        11.0480   18.4000   53.2300 C.3   111  PHE111      0.0534
      6  CG         9.8070   17.8210   53.8440 C.ar  111  PHE111     -0.0203
      7  CD1        9.6510   16.4430   53.9540 C.ar  111  PHE111     -0.0042
      8  CD2        8.8040   18.6510   54.3320 C.ar  111  PHE111     -0.0042
      9  CE1        8.5130   15.8990   54.5450 C.ar  111  PHE111     -0.0003
     10  CE2        7.6650   18.1200   54.9230 C.ar  111  PHE111     -0.0003
     11  CZ         7.5180   16.7400   55.0310 C.ar  111  PHE111     -0.0000
     12  N         12.0640   22.6450   48.5840 N.3   114  VAL114     -0.1245
     13  CA        11.8050   24.0160   49.0050 C.3   114  VAL114      0.1561
     14  C         13.1470   24.6750   49.2810 C.2   114  VAL114      0.2260
     15  O         13.2910   25.8920   49.1710 O.2   114  VAL114     -0.2867
     16  CB        10.9440   24.0520   50.2970 C.3   114  VAL114      0.0252
     17  CG1       10.6870   25.4990   50.7260 C.3   114  VAL114      0.0019
     18  CG2        9.6270   23.3180   50.0650 C.3   114  VAL114      0.0019
     19  N         14.7800   27.7280   47.1770 N.3   118  LYS118     -0.1245
     20  CA        15.2120   28.9270   47.8950 C.3   118  LYS118      0.1561
     21  C         16.5420   29.4390   47.3470 C.2   118  LYS118      0.2260
     22  O         16.7150   30.6420   47.1510 O.2   118  LYS118     -0.2867
     23  CB        15.3610   28.6430   49.3970 C.3   118  LYS118      0.0271
     24  CG        14.0790   28.7580   50.2160 C.3   118  LYS118      0.0035
     25  CD        14.3550   28.5220   51.7000 C.3   118  LYS118      0.0206
     26  CE        13.1300   28.7930   52.5730 C.3   118  LYS118      0.1093
     27  NZ        12.7400   30.2290   52.6180 N.3   118  LYS118     -0.1314
     28  N         14.2680   33.4560   43.2110 N.3   123  PHE123     -0.1241
     29  CA        13.0570   32.7120   43.4840 C.3   123  PHE123      0.1605
     30  C         12.3660   33.2050   44.7460 C.2   123  PHE123      0.2264
     31  O         11.2280   33.6750   44.6990 O.2   123  PHE123     -0.2867
     32  CB        13.3190   31.2290   43.6420 C.3   123  PHE123      0.0534
     33  CG        12.0930   30.4670   44.0150 C.ar  123  PHE123     -0.0203
     34  CD1       11.0050   30.4300   43.1500 C.ar  123  PHE123     -0.0042
     35  CD2       11.9990   29.8300   45.2490 C.ar  123  PHE123     -0.0042
     36  CE1        9.8380   29.7690   43.5090 C.ar  123  PHE123     -0.0003
     37  CE2       10.8330   29.1630   45.6210 C.ar  123  PHE123     -0.0003
     38  CZ         9.7490   29.1320   44.7500 C.ar  123  PHE123     -0.0000
     39  N          5.3030   35.2920   47.8240 N.3   128  LEU128     -0.1231
     40  CA         5.1480   33.9750   48.4300 C.3   128  LEU128      0.1693
     41  C          4.0970   33.1490   47.6960 C.2   128  LEU128      0.2592
     42  O          4.2430   31.9370   47.5420 O.2   128  LEU128     -0.2718
     43  CB         4.7750   34.1060   49.9080 C.3   128  LEU128      0.0284
     44  CG         5.0640   32.8910   50.7910 C.3   128  LEU128      0.0019
     45  CD1        4.9550   33.2580   52.2630 C.3   128  LEU128      0.0001
     46  CD2        4.1270   31.7430   50.4500 C.3   128  LEU128      0.0001
     47  N          3.0310   33.8070   47.2360 N.am  129  ASP129     -0.1974
     48  CA         1.9310   33.1410   46.5150 C.3   129  ASP129      0.1709
     49  C          2.4050   32.4190   45.2620 C.2   129  ASP129      0.2293
     50  O          1.9280   31.3310   44.9370 O.2   129  ASP129     -0.2864
     51  CB         0.8710   34.1600   46.0960 C.3   129  ASP129      0.1436
     52  CG         0.3610   34.9840   47.2550 C.2   129  ASP129      0.3671
     53  OD1       -0.1370   34.3850   48.2350 O.co2 129  ASP129     -0.2456
     54  OD2        0.4560   36.2300   47.1790 O.co2 129  ASP129     -0.2456
     55  N          5.5610   31.5750   44.8160 N.3   131  GLN131     -0.1231
     56  CA         6.5180   30.5770   45.2800 C.3   131  GLN131      0.1698
     57  C          5.7640   29.2820   45.5190 C.2   131  GLN131      0.2592
     58  O          6.2810   28.1890   45.2890 O.2   131  GLN131     -0.2718
     59  CB         7.1730   31.0250   46.5820 C.3   131  GLN131      0.0381
     60  CG         8.4400   31.8500   46.4250 C.3   131  GLN131      0.0905
     61  CD         9.0180   32.2210   47.7770 C.2   131  GLN131      0.2608
     62  OE1        9.0360   31.4060   48.7020 O.2   131  GLN131     -0.2717
     63  NE2        9.4950   33.4480   47.9000 N.am  131  GLN131     -0.0878
     64  N          4.5360   29.4200   45.9990 N.am  132  VAL132     -0.1980
     65  CA         3.6860   28.2680   46.2500 C.3   132  VAL132      0.1595
     66  C          3.3240   27.6990   44.8870 C.2   132  VAL132      0.2287
     67  O          3.7560   26.6100   44.5200 O.2   132  VAL132     -0.2864
     68  CB         2.3960   28.6780   46.9970 C.3   132  VAL132      0.0276
     69  CG1        1.5060   27.4560   47.2010 C.3   132  VAL132      0.0022
     70  CG2        2.7520   29.3270   48.3440 C.3   132  VAL132      0.0022
     71  N          5.8800   25.9570   42.8080 N.3   135  LEU135     -0.1231
     72  CA         6.2850   24.6750   43.3600 C.3   135  LEU135      0.1693
     73  C          5.1420   23.6780   43.3040 C.2   135  LEU135      0.2591
     74  O          5.3640   22.4740   43.2690 O.2   135  LEU135     -0.2718
     75  CB         6.7650   24.8490   44.7990 C.3   135  LEU135      0.0284
     76  CG         8.1730   25.4180   44.9780 C.3   135  LEU135      0.0019
     77  CD1        8.2880   26.1230   46.3220 C.3   135  LEU135      0.0001
     78  CD2        9.1820   24.2810   44.8370 C.3   135  LEU135      0.0001
     79  N          3.9140   24.1810   43.3010 N.am  136  ARG136     -0.1980
     80  CA         2.7550   23.3100   43.2300 C.3   136  ARG136      0.1597
     81  C          2.6990   22.7550   41.8300 C.2   136  ARG136      0.2287
     82  O          2.6330   21.5460   41.6190 O.2   136  ARG136     -0.2864
     83  CB         1.4740   24.0920   43.5080 C.3   136  ARG136      0.0334
     84  CG         1.2890   24.4550   44.9580 C.3   136  ARG136      0.0492
     85  CD         1.2160   23.1970   45.7780 C.3   136  ARG136      0.2205
     86  NE         0.0420   22.4120   45.4260 N.pl3 136  ARG136     -0.0865
     87  CZ        -1.1710   22.6340   45.9170 C.cat 136  ARG136      0.5346
     88  NH1       -1.3720   23.6180   46.7850 N.pl3 136  ARG136      0.1354
     89  NH2       -2.1820   21.8610   45.5520 N.pl3 136  ARG136      0.1354
     90  N          2.2830   13.1300   54.2810 N.3   283  THR283     -0.1203
     91  CA         1.5810   14.4060   54.3350 C.3   283  THR283      0.1994
     92  C          1.9010   15.4390   53.2540 C.2   283  THR283      0.2617
     93  O          0.9930   15.8910   52.5540 O.2   283  THR283     -0.2717
     94  CB         1.7780   15.0700   55.7140 C.3   283  THR283      0.1784
     95  OG1        3.1720   15.0810   56.0440 O.3   283  THR283     -0.2211
     96  CG2        1.0150   14.3080   56.7870 C.3   283  THR283      0.0376
     97  N          3.1700   15.8220   53.1160 N.am  284  PHE284     -0.1975
     98  CA         3.5310   16.8250   52.1140 C.3   284  PHE284      0.1639
     99  C          2.9600   16.4410   50.7520 C.2   284  PHE284      0.2290
    100  O          2.5750   17.3000   49.9610 O.2   284  PHE284     -0.2864
    101  CB         5.0540   16.9870   52.0220 C.3   284  PHE284      0.0560
    102  CG         5.4970   18.3640   51.5690 C.ar  284  PHE284     -0.0200
    103  CD1        6.8460   18.7100   51.5660 C.ar  284  PHE284     -0.0042
    104  CD2        4.5630   19.3240   51.1680 C.ar  284  PHE284     -0.0042
    105  CE1        7.2590   19.9890   51.1760 C.ar  284  PHE284     -0.0003
    106  CE2        4.9680   20.6080   50.7750 C.ar  284  PHE284     -0.0003
    107  CZ         6.3140   20.9410   50.7810 C.ar  284  PHE284     -0.0000
    108  N         -0.7600   17.6210   50.4330 N.3   287  GLU287     -0.1231
    109  CA        -1.0180   19.0320   50.1780 C.3   287  GLU287      0.1699
    110  C         -0.7830   19.3200   48.6990 C.2   287  GLU287      0.2592
    111  O         -1.4650   20.1530   48.0990 O.2   287  GLU287     -0.2718
    112  CB        -0.1030   19.9190   51.0300 C.3   287  GLU287      0.0402
    113  CG        -0.4440   21.4080   50.9390 C.3   287  GLU287      0.1161
    114  CD         0.4440   22.2800   51.8070 C.2   287  GLU287      0.3649
    115  OE1        1.6410   22.4280   51.4840 O.co2 287  GLU287     -0.2457
    116  OE2       -0.0570   22.8160   52.8150 O.co2 287  GLU287     -0.2457
    117  N          0.1810   18.6110   48.1200 N.am  288  MET288     -0.1979
    118  CA         0.5310   18.7710   46.7120 C.3   288  MET288      0.1605
    119  C         -0.5300   18.1530   45.8020 C.2   288  MET288      0.2287
    120  O         -0.6730   18.5390   44.6410 O.2   288  MET288     -0.2864
    121  CB         1.8820   18.1050   46.4330 C.3   288  MET288      0.0413
    122  CG         3.0800   18.6960   47.1760 C.3   288  MET288      0.0598
    123  SD         3.6870   20.2640   46.5090 S.3   288  MET288     -0.1393
    124  CE         3.3140   21.3870   47.8570 C.3   288  MET288      0.0692
@<TRIPOS>BOND
     1    82    81    2
     2    81    80    1
     3    71    72    1
     4    34    36   ar
     5    34    33   ar
     6    28    29    1
     7    80    79    1
     8    80    83    1
     9    74    73    2
    10    79    73   am
    11    73    72    1
    12    72    75    1
    13    29    32    1
    14    29    30    1
    15    83    84    1
    16    36    38   ar
    17    32    33    1
    18    33    35   ar
    19    67    66    2
    20   120   119    2
    21    31    30    2
    22    38    37   ar
    23    75    76    1
    24    55    56    1
    25    78    76    1
    26    66    65    1
    27    50    49    2
    28    84    85    1
    29    76    77    1
    30    35    37   ar
    31    49    48    1
    32    56    57    1
    33    56    59    1
    34    58    57    2
    35    86    85    1
    36    86    87    2
    37    57    64   am
    38    89    87    1
    39   119   118    1
    40    87    88    1
    41    64    65    1
    42    51    48    1
    43    51    52    1
    44    65    68    1
    45    60    59    1
    46    60    61    1
    47   121   118    1
    48   121   122    1
    49   123   122    1
    50   123   124    1
    51    48    47    1
    52   118   117    1
    53    68    69    1
    54    68    70    1
    55    22    21    2
    56    19    20    1
    57    54    52   ar
    58    47    41   am
    59    52    53   ar
    60    21    20    1
    61    42    41    2
    62    41    40    1
    63    61    63   am
    64    61    62    2
    65    39    40    1
    66    20    23    1
    67   111   110    2
    68   117   110   am
    69    40    43    1
    70    12    13    1
    71   110   109    1
    72    13    14    1
    73    13    16    1
    74    15    14    2
    75    23    24    1
    76    43    44    1
    77   100    99    2
    78    18    16    1
    79   109   108    1
    80   109   112    1
    81    24    25    1
    82    16    17    1
    83    46    44    1
    84    99    98    1
    85   106   107   ar
    86   106   104   ar
    87   107   105   ar
    88    44    45    1
    89     1     2    1
    90   113   112    1
    91   113   114    1
    92   104   102   ar
    93   105   103   ar
    94     3     4    2
    95     3     2    1
    96   115   114   ar
    97   103   102   ar
    98   102   101    1
    99    25    26    1
   100   114   116   ar
   101     2     5    1
   102   101    98    1
   103    98    97    1
   104    93    92    2
   105    26    27    1
   106    97    92   am
   107     5     6    1
   108    92    91    1
   109     6     7   ar
   110     6     8   ar
   111     7     9   ar
   112    90    91    1
   113     8    10   ar
   114    91    94    1
   115     9    11   ar
   116    10    11   ar
   117    94    95    1
   118    94    96    1
