@<TRIPOS>MOLECULE
tmp/3e00B00.pdb
 174 166 0 0 0
SMALL
GASTEIGER

@<TRIPOS>ATOM
      1  N         -3.1920   14.5520    8.3990 N.3   179  VAL179     -0.1231
      2  CA        -2.2230   13.4820    8.5870 C.3   179  VAL179      0.1692
      3  C         -1.6100   13.0560    7.2590 C.2   179  VAL179      0.2591
      4  O         -0.4220   12.7540    7.1870 O.2   179  VAL179     -0.2718
      5  CB        -2.8870   12.2660    9.2820 C.3   179  VAL179      0.0266
      6  CG1       -2.1800   10.9750    8.9280 C.3   179  VAL179      0.0020
      7  CG2       -2.8410   12.4620   10.7800 C.3   179  VAL179      0.0020
      8  N         -2.4180   13.0410    6.2050 N.am  180  GLN180     -0.1979
      9  CA        -1.9200   12.6470    4.8990 C.3   180  GLN180      0.1601
     10  C         -0.9290   13.6670    4.3560 C.2   180  GLN180      0.2287
     11  O          0.0920   13.2850    3.7800 O.2   180  GLN180     -0.2864
     12  CB        -3.0780   12.4590    3.9250 C.3   180  GLN180      0.0394
     13  CG        -4.0440   11.3820    4.3650 C.3   180  GLN180      0.0908
     14  CD        -5.1280   11.1060    3.3440 C.2   180  GLN180      0.2608
     15  OE1       -5.8560   12.0110    2.9380 O.2   180  GLN180     -0.2717
     16  NE2       -5.2480    9.8480    2.9280 N.am  180  GLN180     -0.0878
     17  N          2.4670   13.6820    6.3530 N.3   183  THR183     -0.1203
     18  CA         3.2060   12.5410    5.8310 C.3   183  THR183      0.1994
     19  C          3.9490   12.8160    4.5380 C.2   183  THR183      0.2617
     20  O          5.1240   12.4640    4.4270 O.2   183  THR183     -0.2717
     21  CB         2.3070   11.3420    5.5830 C.3   183  THR183      0.1784
     22  OG1        1.7640   10.8950    6.8260 O.3   183  THR183     -0.2211
     23  CG2        3.1030   10.2170    4.9790 C.3   183  THR183      0.0376
     24  N          3.2840   13.4190    3.5530 N.am  184  GLU184     -0.1979
     25  CA         3.9680   13.7100    2.2900 C.3   184  GLU184      0.1602
     26  C          5.0170   14.7940    2.4800 C.2   184  GLU184      0.2287
     27  O          5.9780   14.8990    1.7190 O.2   184  GLU184     -0.2864
     28  CB         2.9800   14.1030    1.1880 C.3   184  GLU184      0.0415
     29  CG         2.3190   12.9070    0.4900 C.3   184  GLU184      0.1163
     30  CD         3.3180   11.8490    0.0150 C.2   184  GLU184      0.3649
     31  OE1        4.3310   12.2110   -0.6210 O.co2 184  GLU184     -0.2457
     32  OE2        3.0820   10.6500    0.2710 O.co2 184  GLU184     -0.2457
     33  N          8.3350   13.0950    3.9220 N.3   187  LYS187     -0.1245
     34  CA         9.2140   12.5490    2.8890 C.3   187  LYS187      0.1561
     35  C         10.1100   13.6220    2.2790 C.2   187  LYS187      0.2260
     36  O         11.1970   13.3180    1.7900 O.2   187  LYS187     -0.2867
     37  CB         8.3890   11.9080    1.7720 C.3   187  LYS187      0.0271
     38  CG         7.5230   10.7470    2.2140 C.3   187  LYS187      0.0035
     39  CD         6.6650   10.2660    1.0570 C.3   187  LYS187      0.0206
     40  CE         5.8300    9.0660    1.4400 C.3   187  LYS187      0.1093
     41  NZ         4.9490    8.6690    0.3200 N.3   187  LYS187     -0.1314
     42  N         14.4450   11.3460    5.4970 N.3   192  PHE192     -0.1227
     43  CA        13.3430   10.7400    6.2360 C.3   192  PHE192      0.1736
     44  C         12.9440    9.3770    5.6770 C.2   192  PHE192      0.2595
     45  O         12.7560    8.4130    6.4260 O.2   192  PHE192     -0.2718
     46  CB        12.1230   11.6660    6.2230 C.3   192  PHE192      0.0547
     47  CG        10.9310   11.1100    6.9560 C.ar  192  PHE192     -0.0202
     48  CD1       10.9190   11.0480    8.3390 C.ar  192  PHE192     -0.0042
     49  CD2        9.8320   10.6420    6.2600 C.ar  192  PHE192     -0.0042
     50  CE1        9.8380   10.5320    9.0100 C.ar  192  PHE192     -0.0003
     51  CE2        8.7490   10.1250    6.9240 C.ar  192  PHE192     -0.0003
     52  CZ         8.7500   10.0700    8.3010 C.ar  192  PHE192     -0.0000
     53  N         12.7950    9.3090    4.3600 N.am  193  VAL193     -0.1980
     54  CA        12.4150    8.0700    3.6970 C.3   193  VAL193      0.1595
     55  C         13.4590    6.9880    3.9600 C.2   193  VAL193      0.2287
     56  O         13.1250    5.8120    4.1250 O.2   193  VAL193     -0.2864
     57  CB        12.2760    8.2950    2.1890 C.3   193  VAL193      0.0276
     58  CG1       11.1720    9.2860    1.9330 C.3   193  VAL193      0.0022
     59  CG2       13.5770    8.8210    1.6180 C.3   193  VAL193      0.0022
     60  N         12.1190    2.2820    7.7380 N.3   197  LEU197     -0.1231
     61  CA        10.6990    2.5520    7.5170 C.3   197  LEU197      0.1693
     62  C          9.8820    2.2520    8.7820 C.2   197  LEU197      0.2592
     63  O          8.7740    2.7650    8.9460 O.2   197  LEU197     -0.2718
     64  CB        10.2300    1.6560    6.3640 C.3   197  LEU197      0.0284
     65  CG         8.8150    1.7750    5.7710 C.3   197  LEU197      0.0019
     66  CD1        7.8410    0.9930    6.6260 C.3   197  LEU197      0.0001
     67  CD2        8.4070    3.2480    5.6430 C.3   197  LEU197      0.0001
     68  N         10.4110    1.4220    9.6740 N.am  198  ASN198     -0.1974
     69  CA         9.6990    1.1250   10.9140 C.3   198  ASN198      0.1688
     70  C          9.6680    2.3180   11.8830 C.2   198  ASN198      0.2292
     71  O          8.6560    2.5660   12.5470 O.2   198  ASN198     -0.2864
     72  CB        10.3150   -0.0890   11.6190 C.3   198  ASN198      0.1181
     73  CG         9.5840   -1.3720   11.3040 C.2   198  ASN198      0.2629
     74  OD1        9.5790   -1.8280   10.1680 O.2   198  ASN198     -0.2716
     75  ND2        8.9500   -1.9560   12.3120 N.am  198  ASN198     -0.0877
     76  N         10.1820    5.2730   10.8240 N.3   200  GLN200     -0.1231
     77  CA         9.5720    6.2720    9.9590 C.3   200  GLN200      0.1698
     78  C          8.1080    6.4290   10.4020 C.2   200  GLN200      0.2592
     79  O          7.5980    7.5400   10.6040 O.2   200  GLN200     -0.2718
     80  CB         9.6740    5.7820    8.5100 C.3   200  GLN200      0.0381
     81  CG         9.2970    6.7760    7.4410 C.3   200  GLN200      0.0905
     82  CD         9.8520    6.3820    6.0850 C.2   200  GLN200      0.2608
     83  OE1        9.1830    6.5170    5.0560 O.2   200  GLN200     -0.2717
     84  NE2       11.0950    5.9060    6.0760 N.am  200  GLN200     -0.0878
     85  N          7.4490    5.2930   10.5740 N.am  201  VAL201     -0.1980
     86  CA         6.0640    5.2480   10.9990 C.3   201  VAL201      0.1595
     87  C          5.9420    5.7670   12.4210 C.2   201  VAL201      0.2287
     88  O          5.0430    6.5450   12.7250 O.2   201  VAL201     -0.2864
     89  CB         5.5480    3.8070   10.9270 C.3   201  VAL201      0.0276
     90  CG1        4.1260    3.7210   11.4490 C.3   201  VAL201      0.0022
     91  CG2        5.6500    3.3100    9.4850 C.3   201  VAL201      0.0022
     92  N          6.0470    9.3860   12.8090 N.3   204  LEU204     -0.1231
     93  CA         4.8130   10.0510   12.4330 C.3   204  LEU204      0.1693
     94  C          3.7390    9.7840   13.4610 C.2   204  LEU204      0.2591
     95  O          3.1300   10.7240   13.9670 O.2   204  LEU204     -0.2718
     96  CB         4.3340    9.6200   11.0490 C.3   204  LEU204      0.0284
     97  CG         5.2230   10.1710    9.9300 C.3   204  LEU204      0.0019
     98  CD1        4.7240    9.7310    8.5700 C.3   204  LEU204      0.0001
     99  CD2        5.2300   11.6870   10.0070 C.3   204  LEU204      0.0001
    100  N          3.5080    8.5170   13.7930 N.am  205  LYS205     -0.1980
    101  CA         2.4750    8.1920   14.7790 C.3   205  LYS205      0.1596
    102  C          2.4270    9.2910   15.8360 C.2   205  LYS205      0.2287
    103  O          1.3670    9.8430   16.1210 O.2   205  LYS205     -0.2864
    104  CB         2.7590    6.8380   15.4530 C.3   205  LYS205      0.0298
    105  CG         1.6770    6.3800   16.4460 C.3   205  LYS205      0.0038
    106  CD         2.0670    5.0920   17.1880 C.3   205  LYS205      0.0206
    107  CE         1.1580    3.8930   16.8550 C.3   205  LYS205      0.1093
    108  NZ         1.3640    3.2390   15.5050 N.3   205  LYS205     -0.1314
    109  N          2.4010   13.8310   13.8300 N.3   208  VAL208     -0.1245
    110  CA         1.1730   14.4620   13.3680 C.3   208  VAL208      0.1561
    111  C          0.4180   15.2410   14.4470 C.2   208  VAL208      0.2260
    112  O          0.1210   16.4090   14.2680 O.2   208  VAL208     -0.2867
    113  CB         0.2660   13.4060   12.7470 C.3   208  VAL208      0.0252
    114  CG1        0.8770   12.9310   11.4400 C.3   208  VAL208      0.0019
    115  CG2        0.1240   12.2310   13.7080 C.3   208  VAL208      0.0019
    116  N        -12.3330    7.3660   12.8220 N.3   352  HIS352     -0.1227
    117  CA       -11.9240    6.9530   11.4950 C.3   352  HIS352      0.1737
    118  C        -10.8640    5.8820   11.7380 C.2   352  HIS352      0.2438
    119  O        -10.2420    5.8640   12.7980 O.2   352  HIS352     -0.2733
    120  CB       -11.3350    8.1500   10.7640 C.3   352  HIS352      0.0758
    121  CG       -10.7360    7.8170    9.4390 C.ar  352  HIS352      0.0818
    122  ND1       -9.6620    6.9680    9.3040 N.ar  352  HIS352     -0.2268
    123  CD2      -11.0450    8.2360    8.1920 C.ar  352  HIS352      0.1154
    124  CE1       -9.3330    6.8780    8.0290 C.ar  352  HIS352      0.1986
    125  NE2      -10.1560    7.6390    7.3330 N.ar  352  HIS352     -0.2212
    126  N        -10.6570    4.9630   10.7800 N.am  353  PRO353     -0.2718
    127  CA        -9.6550    3.9070   10.9590 C.3   353  PRO353      0.1535
    128  C         -8.1860    4.3360   10.9560 C.2   353  PRO353      0.2598
    129  O         -7.3180    3.5570   11.3330 O.2   353  PRO353     -0.2715
    130  CB        -9.9830    2.9330    9.8310 C.3   353  PRO353      0.0310
    131  CG       -10.5350    3.8200    8.7710 C.3   353  PRO353      0.0237
    132  CD       -11.4460    4.7240    9.5610 C.3   353  PRO353      0.0939
    133  N         -7.9060    5.5650   10.5290 N.am  354  LEU354     -0.1978
    134  CA        -6.5350    6.0720   10.5070 C.3   354  LEU354      0.1596
    135  C         -6.2360    6.7900   11.8160 C.2   354  LEU354      0.2287
    136  O         -5.1660    6.6020   12.4000 O.2   354  LEU354     -0.2864
    137  CB        -6.3240    7.0260    9.3370 C.3   354  LEU354      0.0297
    138  CG        -4.9950    7.7740    9.3650 C.3   354  LEU354      0.0022
    139  CD1       -3.8470    6.7860    9.4320 C.3   354  LEU354      0.0001
    140  CD2       -4.8810    8.6570    8.1310 C.3   354  LEU354      0.0001
    141  N         -5.5240    4.1470   14.1000 N.3   357  GLU357     -0.1231
    142  CA        -4.1540    3.6260   14.1130 C.3   357  GLU357      0.1699
    143  C         -3.2050    4.4820   14.9500 C.2   357  GLU357      0.2592
    144  O         -2.5190    3.9890   15.8430 O.2   357  GLU357     -0.2718
    145  CB        -3.6270    3.5390   12.6760 C.3   357  GLU357      0.0402
    146  CG        -2.3210    2.7690   12.5060 C.3   357  GLU357      0.1161
    147  CD        -2.5320    1.2750   12.3350 C.2   357  GLU357      0.3649
    148  OE1       -3.2800    0.8820   11.4130 O.co2 357  GLU357     -0.2457
    149  OE2       -1.9440    0.4930   13.1140 O.co2 357  GLU357     -0.2457
    150  N         -3.1710    5.7700   14.6410 N.am  358  ILE358     -0.1980
    151  CA        -2.3180    6.7140   15.3410 C.3   358  ILE358      0.1595
    152  C         -2.5200    6.7190   16.8590 C.2   358  ILE358      0.2287
    153  O         -1.5610    6.5770   17.6120 O.2   358  ILE358     -0.2864
    154  CB        -2.5570    8.1260   14.8040 C.3   358  ILE358      0.0276
    155  CG1       -1.7760    8.3380   13.5150 C.3   358  ILE358      0.0022
    156  CG2       -2.1460    9.1430   15.8200 C.3   358  ILE358      0.0022
    157  CD1       -2.0270    9.6990   12.8820 C.3   358  ILE358      0.0001
    158  N         -3.7520    4.5170   18.7900 N.3   360  LYS360     -0.1231
    159  CA        -3.5280    3.2420   19.4570 C.3   360  LYS360      0.1693
    160  C         -2.1380    3.1090   20.0590 C.2   360  LYS360      0.2592
    161  O         -1.1250    3.1690   19.3590 O.2   360  LYS360     -0.2718
    162  CB        -3.7840    2.0740   18.5050 C.3   360  LYS360      0.0285
    163  CG        -3.7010    0.7210   19.2050 C.3   360  LYS360      0.0035
    164  CD        -4.2580   -0.4330   18.3630 C.3   360  LYS360      0.0206
    165  CE        -3.3570   -0.8130   17.1870 C.3   360  LYS360      0.1093
    166  NZ        -3.2980    0.2260   16.1170 N.3   360  LYS360     -0.1314
    167  N         -2.1160    2.9320   21.3750 N.am  361  ASP361     -0.1974
    168  CA        -0.8830    2.7700   22.1270 C.3   361  ASP361      0.1709
    169  C         -0.0540    4.0520   22.1660 C.2   361  ASP361      0.2293
    170  O          1.1490    3.9960   22.3910 O.2   361  ASP361     -0.2864
    171  CB        -0.0440    1.6400   21.5150 C.3   361  ASP361      0.1436
    172  CG        -0.8580    0.3890   21.2310 C.2   361  ASP361      0.3671
    173  OD1       -1.4720   -0.1570   22.1700 O.co2 361  ASP361     -0.2456
    174  OD2       -0.8820   -0.0510   20.0660 O.co2 361  ASP361     -0.2456
@<TRIPOS>BOND
     1    31    30   ar
     2    30    32   ar
     3    30    29    1
     4    41    40    1
     5    29    28    1
     6    39    40    1
     7    39    38    1
     8    28    25    1
     9    59    57    1
    10    27    26    2
    11    37    38    1
    12    37    34    1
    13    36    35    2
    14    58    57    1
    15    57    54    1
    16    35    34    1
    17    25    26    1
    18    25    24    1
    19    34    33    1
    20    16    14   am
    21    15    14    2
    22    14    13    1
    23    24    19   am
    24    54    55    1
    25    54    53    1
    26    11    10    2
    27    12    13    1
    28    12     9    1
    29    55    56    2
    30    10     9    1
    31    53    44   am
    32    20    19    2
    33    19    18    1
    34     9     8    1
    35    23    21    1
    36    83    82    2
    37    42    43    1
    38    21    18    1
    39    21    22    1
    40    67    65    1
    41    44    43    1
    42    44    45    2
    43    65    64    1
    44    65    66    1
    45    18    17    1
    46    84    82   am
    47    82    81    1
    48     8     3   am
    49    46    43    1
    50    46    47    1
    51    49    51   ar
    52    49    47   ar
    53    64    61    1
    54    51    52   ar
    55    47    48   ar
    56     4     3    2
    57     3     2    1
    58   125   124   ar
    59   125   123   ar
    60    81    80    1
    61    61    60    1
    62    61    62    1
    63   124   122   ar
    64   140   138    1
    65   123   121   ar
    66    52    50   ar
    67    48    50   ar
    68     1     2    1
    69    80    77    1
    70    98    97    1
    71     2     5    1
    72   131   132    1
    73   131   130    1
    74    62    63    2
    75    62    68   am
    76     6     5    1
    77     5     7    1
    78   122   121   ar
    79   137   138    1
    80   137   134    1
    81   138   139    1
    82   121   120    1
    83    91    89    1
    84   132   126    1
    85    68    69    1
    86   130   127    1
    87    97    99    1
    88    97    96    1
    89    77    78    1
    90    77    76    1
    91    74    73    2
    92    78    85   am
    93    78    79    2
    94   134   133    1
    95   134   135    1
    96   133   128   am
    97    85    86    1
    98   120   117    1
    99   126   127    1
   100   126   118   am
   101    69    72    1
   102    69    70    1
   103    89    86    1
   104    89    90    1
   105   128   127    1
   106   128   129    2
   107    86    87    1
   108    96    93    1
   109    73    72    1
   110    73    75   am
   111   148   147   ar
   112   114   113    1
   113   117   118    1
   114   117   116    1
   115   118   119    2
   116   135   136    2
   117    70    71    2
   118   147   146    1
   119   147   149   ar
   120    87    88    2
   121    93    92    1
   122    93    94    1
   123   146   145    1
   124   145   142    1
   125   113   110    1
   126   113   115    1
   127   157   155    1
   128   110   109    1
   129   110   111    1
   130    94   100   am
   131    94    95    2
   132   155   154    1
   133   100   101    1
   134   141   142    1
   135   142   143    1
   136   112   111    2
   137   150   143   am
   138   150   151    1
   139   101   104    1
   140   101   102    1
   141   154   151    1
   142   154   156    1
   143   143   144    2
   144   151   152    1
   145   104   105    1
   146   108   107    1
   147   102   103    2
   148   166   165    1
   149   105   106    1
   150   107   106    1
   151   152   153    2
   152   165   164    1
   153   164   163    1
   154   162   163    1
   155   162   159    1
   156   158   159    1
   157   161   160    2
   158   159   160    1
   159   160   167   am
   160   174   172   ar
   161   172   171    1
   162   172   173   ar
   163   167   168    1
   164   171   168    1
   165   168   169    1
   166   169   170    2
