@<TRIPOS>MOLECULE
tmp/3e00A01.pdb
 203 193 0 0 0
SMALL
GASTEIGER

@<TRIPOS>ATOM
      1  N          6.8040    0.8580   44.8170 N.3    99  VAL99      -0.1245
      2  CA         5.8240    1.9180   44.5850 C.3    99  VAL99       0.1561
      3  C          5.5690    2.7140   45.8520 C.2    99  VAL99       0.2260
      4  O          5.5140    3.9430   45.8300 O.2    99  VAL99      -0.2867
      5  CB         4.4730    1.3560   44.0910 C.3    99  VAL99       0.0252
      6  CG1        3.4130    2.4550   44.1050 C.3    99  VAL99       0.0019
      7  CG2        4.6250    0.7870   42.6820 C.3    99  VAL99       0.0019
      8  N          8.7220    4.5150   46.5990 N.3   102  ILE102     -0.1231
      9  CA         9.0260    5.7090   45.8280 C.3   102  ILE102      0.1692
     10  C          8.3430    6.9360   46.4400 C.2   102  ILE102      0.2592
     11  O          8.8960    8.0350   46.4180 O.2   102  ILE102     -0.2718
     12  CB         8.5780    5.5370   44.3550 C.3   102  ILE102      0.0266
     13  CG1        9.3940    4.4310   43.6830 C.3   102  ILE102      0.0019
     14  CG2        8.7640    6.8320   43.5970 C.3   102  ILE102      0.0020
     15  CD1        9.0750    4.2360   42.2110 C.3   102  ILE102      0.0001
     16  N          7.1510    6.7390   46.9990 N.am  103  CYS103     -0.1970
     17  CA         6.3930    7.8320   47.6120 C.3   103  CYS103      0.1712
     18  C          6.9880    8.3020   48.9320 C.2   103  CYS103      0.2296
     19  O          6.5580    9.3220   49.4810 O.2   103  CYS103     -0.2864
     20  CB         4.9440    7.4080   47.8330 C.3   103  CYS103      0.0983
     21  SG         4.1830    6.7610   46.3410 S.3   103  CYS103     -0.0798
     22  N         10.4610    8.5070   49.2530 N.3   105  ALA105     -0.1231
     23  CA        11.5610    9.3140   48.7330 C.3   105  ALA105      0.1694
     24  C         10.9680   10.5750   48.1040 C.2   105  ALA105      0.2591
     25  O         11.5400   11.6660   48.1840 O.2   105  ALA105     -0.2718
     26  CB        12.3490    8.5140   47.6920 C.3   105  ALA105      0.0304
     27  N          9.8120   10.4070   47.4770 N.am  106  ALA106     -0.1980
     28  CA         9.1140   11.5140   46.8540 C.3   106  ALA106      0.1597
     29  C          8.8780   12.5580   47.9360 C.2   106  ALA106      0.2287
     30  O          9.4370   13.6550   47.8910 O.2   106  ALA106     -0.2864
     31  CB         7.7830   11.0310   46.2920 C.3   106  ALA106      0.0319
     32  N         12.0340   14.0670   49.4880 N.3   109  GLN109     -0.1245
     33  CA        12.6140   15.0190   48.5420 C.3   109  GLN109      0.1566
     34  C         11.7810   16.2840   48.3310 C.2   109  GLN109      0.2260
     35  O         12.2710   17.2610   47.7560 O.2   109  GLN109     -0.2867
     36  CB        12.8700   14.3270   47.2030 C.3   109  GLN109      0.0367
     37  CG        14.1720   13.5740   47.1770 C.3   109  GLN109      0.0905
     38  CD        15.3490   14.5050   47.3020 C.2   109  GLN109      0.2608
     39  OE1       15.6860   15.2300   46.3650 O.2   109  GLN109     -0.2717
     40  NE2       15.9720   14.5080   48.4700 N.am  109  GLN109     -0.0878
     41  N          6.3230   20.3020   41.1150 N.3   139  TRP139     -0.1227
     42  CA         7.0950   19.4570   42.0190 C.3   139  TRP139      0.1737
     43  C          7.4090   18.0960   41.3930 C.2   139  TRP139      0.2595
     44  O          8.5650   17.6680   41.3910 O.2   139  TRP139     -0.2718
     45  CB         6.3740   19.2660   43.3700 C.3   139  TRP139      0.0564
     46  CG         5.0850   18.5000   43.3070 C.ar  139  TRP139      0.0003
     47  CD1        3.8360   19.0110   43.1070 C.ar  139  TRP139      0.0946
     48  CD2        4.9250   17.0760   43.3970 C.ar  139  TRP139      0.0152
     49  NE1        2.9060   17.9920   43.0620 N.ar  139  TRP139     -0.2442
     50  CE2        3.5490   16.7970   43.2370 C.ar  139  TRP139      0.0810
     51  CE3        5.8110   16.0120   43.5920 C.ar  139  TRP139      0.0012
     52  CZ2        3.0400   15.5020   43.2660 C.ar  139  TRP139      0.0191
     53  CZ3        5.3040   14.7210   43.6200 C.ar  139  TRP139      0.0001
     54  CH2        3.9290   14.4780   43.4570 C.ar  139  TRP139      0.0015
     55  N          6.3950   17.4240   40.8480 N.am  140  ASN140     -0.1974
     56  CA         6.6090   16.1130   40.2450 C.3   140  ASN140      0.1688
     57  C          7.6290   16.1740   39.1180 C.2   140  ASN140      0.2292
     58  O          8.5230   15.3370   39.0440 O.2   140  ASN140     -0.2864
     59  CB         5.2990   15.5250   39.7230 C.3   140  ASN140      0.1181
     60  CG         4.6320   16.4140   38.7200 C.2   140  ASN140      0.2629
     61  OD1        4.2630   17.5440   39.0330 O.2   140  ASN140     -0.2716
     62  ND2        4.4710   15.9180   37.5020 N.am  140  ASN140     -0.0877
     63  N         11.2810   16.8600   40.8410 N.3   143  LEU143     -0.1231
     64  CA        11.7000   15.6220   41.4970 C.3   143  LEU143      0.1693
     65  C         12.1000   14.4630   40.5700 C.2   143  LEU143      0.2591
     66  O         13.0810   13.7580   40.8270 O.2   143  LEU143     -0.2718
     67  CB        10.5950   15.1530   42.4380 C.3   143  LEU143      0.0284
     68  CG        10.4760   15.9940   43.6980 C.3   143  LEU143      0.0019
     69  CD1        9.2970   15.5110   44.5370 C.3   143  LEU143      0.0001
     70  CD2       11.7960   15.8980   44.4640 C.3   143  LEU143      0.0001
     71  N         11.3290   14.2540   39.5110 N.am  144  ILE144     -0.1980
     72  CA        11.6200   13.1900   38.5640 C.3   144  ILE144      0.1595
     73  C         12.8950   13.5020   37.7950 C.2   144  ILE144      0.2287
     74  O         13.7260   12.6220   37.5510 O.2   144  ILE144     -0.2864
     75  CB        10.4710   13.0260   37.5510 C.3   144  ILE144      0.0276
     76  CG1        9.2490   12.4600   38.2690 C.3   144  ILE144      0.0022
     77  CG2       10.9170   12.1430   36.3780 C.3   144  ILE144      0.0022
     78  CD1        8.0200   12.4390   37.4330 C.3   144  ILE144      0.0001
     79  N         15.4370   14.9670   38.7450 N.3   146  SER146     -0.1202
     80  CA        16.6360   14.8030   39.5700 C.3   146  SER146      0.2020
     81  C         17.0190   13.3630   39.8790 C.2   146  SER146      0.2618
     82  O         18.1870   12.9970   39.7490 O.2   146  SER146     -0.2717
     83  CB        16.4990   15.5720   40.8860 C.3   146  SER146      0.2103
     84  OG        16.9650   16.9040   40.7500 O.3   146  SER146     -0.2182
     85  N         16.0560   12.5430   40.2980 N.am  147  PHE147     -0.1975
     86  CA        16.3710   11.1520   40.6020 C.3   147  PHE147      0.1639
     87  C         16.7290   10.4350   39.3090 C.2   147  PHE147      0.2290
     88  O         17.5110    9.4830   39.3050 O.2   147  PHE147     -0.2864
     89  CB        15.2030   10.4600   41.3530 C.3   147  PHE147      0.0560
     90  CG        14.0790    9.9310   40.4740 C.ar  147  PHE147     -0.0200
     91  CD1       12.7610   10.0350   40.9080 C.ar  147  PHE147     -0.0042
     92  CD2       14.3250    9.2730   39.2720 C.ar  147  PHE147     -0.0042
     93  CE1       11.7080    9.4980   40.1710 C.ar  147  PHE147     -0.0003
     94  CE2       13.2860    8.7320   38.5200 C.ar  147  PHE147     -0.0003
     95  CZ        11.9720    8.8440   38.9700 C.ar  147  PHE147     -0.0000
     96  N         20.1940   10.9690   38.7750 N.3   150  ARG150     -0.1245
     97  CA        20.9470   10.1810   39.7360 C.3   150  ARG150      0.1563
     98  C         21.0870    8.7600   39.2240 C.2   150  ARG150      0.2260
     99  O         22.1780    8.1900   39.2200 O.2   150  ARG150     -0.2867
    100  CB        20.2340   10.1810   41.0880 C.3   150  ARG150      0.0307
    101  CG        20.9080    9.3470   42.1700 C.3   150  ARG150      0.0489
    102  CD        20.5970    9.9100   43.5490 C.3   150  ARG150      0.2205
    103  NE        19.1620   10.0580   43.7780 N.pl3 150  ARG150     -0.0865
    104  CZ        18.5690   11.2070   44.0810 C.cat 150  ARG150      0.5346
    105  NH1       19.2940   12.3110   44.1890 N.pl3 150  ARG150      0.1354
    106  NH2       17.2580   11.2470   44.2740 N.pl3 150  ARG150      0.1354
    107  N         16.3610    2.7410   39.0250 N.3   158  ILE158     -0.1245
    108  CA        16.6660    4.0310   39.6150 C.3   158  ILE158      0.1561
    109  C         17.1630    3.9030   41.0500 C.2   158  ILE158      0.2260
    110  O         17.0010    2.8670   41.6800 O.2   158  ILE158     -0.2867
    111  CB        15.4300    4.9680   39.5800 C.3   158  ILE158      0.0252
    112  CG1       14.3310    4.4430   40.5100 C.3   158  ILE158      0.0019
    113  CG2       14.9060    5.0720   38.1620 C.3   158  ILE158      0.0019
    114  CD1       13.1470    5.3630   40.6250 C.3   158  ILE158      0.0001
    115  N         16.5170    5.6130   44.4970 N.3   160  LEU160     -0.1231
    116  CA        15.6890    6.5590   45.2470 C.3   160  LEU160      0.1693
    117  C         16.5800    7.3920   46.1610 C.2   160  LEU160      0.2591
    118  O         17.5970    6.8910   46.6390 O.2   160  LEU160     -0.2718
    119  CB        14.6370    5.8110   46.0730 C.3   160  LEU160      0.0284
    120  CG        13.7390    4.8040   45.3400 C.3   160  LEU160      0.0019
    121  CD1       12.3590    4.8220   45.9840 C.3   160  LEU160      0.0001
    122  CD2       13.6120    5.1480   43.8620 C.3   160  LEU160      0.0001
    123  N         16.2210    8.6560   46.3920 N.am  161  ALA161     -0.1980
    124  CA        17.0330    9.5190   47.2590 C.3   161  ALA161      0.1597
    125  C         16.9430    9.0900   48.7200 C.2   161  ALA161      0.2287
    126  O         16.7150    9.9050   49.6120 O.2   161  ALA161     -0.2864
    127  CB        16.6170   10.9900   47.1180 C.3   161  ALA161      0.0319
    128  N          3.3970   -0.8520   37.8580 N.3   176  VAL176     -0.1245
    129  CA         3.8560    0.3690   37.2160 C.3   176  VAL176      0.1561
    130  C          5.1570    0.1760   36.4510 C.2   176  VAL176      0.2260
    131  O          6.1900    0.7470   36.8010 O.2   176  VAL176     -0.2867
    132  CB         4.0520    1.4770   38.2560 C.3   176  VAL176      0.0252
    133  CG1        2.7210    1.8060   38.9310 C.3   176  VAL176      0.0019
    134  CG2        5.0690    1.0300   39.2900 C.3   176  VAL176      0.0019
    135  N          5.3100    2.9760   32.8850 N.3   179  ILE179     -0.1231
    136  CA         6.0010    4.2530   33.0020 C.3   179  ILE179      0.1692
    137  C          7.4700    4.1150   33.4120 C.2   179  ILE179      0.2592
    138  O          8.3320    4.8430   32.9120 O.2   179  ILE179     -0.2718
    139  CB         5.2790    5.1790   34.0130 C.3   179  ILE179      0.0266
    140  CG1        5.7170    6.6230   33.7900 C.3   179  ILE179      0.0019
    141  CG2        5.5980    4.7630   35.4480 C.3   179  ILE179      0.0020
    142  CD1        4.9070    7.6190   34.5680 C.3   179  ILE179      0.0001
    143  N          7.7560    3.1720   34.3070 N.am  180  PHE180     -0.1976
    144  CA         9.1210    2.9770   34.7820 C.3   180  PHE180      0.1639
    145  C         10.0920    2.7210   33.6370 C.2   180  PHE180      0.2290
    146  O         11.3010    2.9130   33.7760 O.2   180  PHE180     -0.2864
    147  CB         9.1830    1.8250   35.7920 C.3   180  PHE180      0.0560
    148  CG        10.3890    1.8800   36.6900 C.ar  180  PHE180     -0.0200
    149  CD1       11.6350    1.4460   36.2410 C.ar  180  PHE180     -0.0042
    150  CD2       10.2900    2.4250   37.9700 C.ar  180  PHE180     -0.0042
    151  CE1       12.7660    1.5600   37.0500 C.ar  180  PHE180     -0.0003
    152  CE2       11.4150    2.5440   38.7870 C.ar  180  PHE180     -0.0003
    153  CZ        12.6550    2.1110   38.3250 C.ar  180  PHE180     -0.0000
    154  N         10.6930    6.3280   31.9330 N.3   183  VAL183     -0.1245
    155  CA        11.5530    7.1560   32.7670 C.3   183  VAL183      0.1561
    156  C         13.0140    6.8100   32.5170 C.2   183  VAL183      0.2260
    157  O         13.8640    7.6980   32.4560 O.2   183  VAL183     -0.2867
    158  CB        11.2550    6.9460   34.2610 C.3   183  VAL183      0.0252
    159  CG1       12.1200    7.8720   35.1120 C.3   183  VAL183      0.0019
    160  CG2        9.7930    7.2060   34.5300 C.3   183  VAL183      0.0019
    161  N          2.7920   10.2020   35.4760 N.3   266  CYS266     -0.1221
    162  CA         2.9990    9.8770   36.8790 C.3   266  CYS266      0.1808
    163  C          1.8470   10.4230   37.7000 C.2   266  CYS266      0.2601
    164  O          1.1280    9.6580   38.3390 O.2   266  CYS266     -0.2717
    165  CB         4.3170   10.4570   37.3880 C.3   266  CYS266      0.0970
    166  SG         5.7720    9.6750   36.6770 S.3   266  CYS266     -0.0800
    167  N          1.6630   11.7400   37.6870 N.am  267  LEU267     -0.1979
    168  CA         0.5690   12.3350   38.4450 C.3   267  LEU267      0.1596
    169  C         -0.7320   11.5660   38.1890 C.2   267  LEU267      0.2287
    170  O         -1.5190   11.3380   39.1080 O.2   267  LEU267     -0.2864
    171  CB         0.3750   13.8100   38.0700 C.3   267  LEU267      0.0297
    172  CG         1.2870   14.8840   38.6670 C.3   267  LEU267      0.0022
    173  CD1        0.7870   16.2810   38.2700 C.3   267  LEU267      0.0001
    174  CD2        1.2970   14.7370   40.1730 C.3   267  LEU267      0.0001
    175  N         -1.1080    8.5240   37.7330 N.3   269  HIS269     -0.1226
    176  CA        -1.0410    7.3410   38.5850 C.3   269  HIS269      0.1752
    177  C         -1.2230    7.6230   40.0690 C.2   269  HIS269      0.2595
    178  O         -2.0520    6.9950   40.7240 O.2   269  HIS269     -0.2718
    179  CB         0.2910    6.6160   38.3890 C.3   269  HIS269      0.0759
    180  CG         0.3810    5.8440   37.1130 C.ar  269  HIS269      0.0818
    181  ND1        1.5220    5.1720   36.7330 N.ar  269  HIS269     -0.2268
    182  CD2       -0.5230    5.6400   36.1270 C.ar  269  HIS269      0.1154
    183  CE1        1.3190    4.5890   35.5660 C.ar  269  HIS269      0.1986
    184  NE2        0.0850    4.8570   35.1760 N.ar  269  HIS269     -0.2212
    185  N         -0.4460    8.5530   40.6130 N.am  270  LEU270     -0.1980
    186  CA        -0.5620    8.8560   42.0310 C.3   270  LEU270      0.1596
    187  C         -1.9930    9.1560   42.4520 C.2   270  LEU270      0.2287
    188  O         -2.2890    9.2090   43.6410 O.2   270  LEU270     -0.2864
    189  CB         0.3450   10.0270   42.4190 C.3   270  LEU270      0.0297
    190  CG         1.7800    9.6770   42.8200 C.3   270  LEU270      0.0022
    191  CD1        2.5210   10.9390   43.2470 C.3   270  LEU270      0.0001
    192  CD2        1.7510    8.6760   43.9610 C.3   270  LEU270      0.0001
    193  N         -4.2730    6.0280   43.0550 N.3   273  PHE273     -0.1241
    194  CA        -3.4940    5.4130   44.1230 C.3   273  PHE273      0.1605
    195  C         -3.8570    6.1680   45.4000 C.2   273  PHE273      0.2264
    196  O         -3.7880    5.6190   46.4960 O.2   273  PHE273     -0.2867
    197  CB        -1.9860    5.5840   43.8840 C.3   273  PHE273      0.0534
    198  CG        -1.3580    4.5200   43.0190 C.ar  273  PHE273     -0.0203
    199  CD1       -0.0050    4.5890   42.7050 C.ar  273  PHE273     -0.0042
    200  CD2       -2.0970    3.4530   42.5290 C.ar  273  PHE273     -0.0042
    201  CE1        0.6040    3.6130   41.9190 C.ar  273  PHE273     -0.0003
    202  CE2       -1.4930    2.4690   41.7380 C.ar  273  PHE273     -0.0003
    203  CZ        -0.1410    2.5530   41.4350 C.ar  273  PHE273     -0.0000
@<TRIPOS>BOND
     1   154   155    1
     2   157   156    2
     3   156   155    1
     4   155   158    1
     5   135   136    1
     6   138   137    2
     7   136   137    1
     8   136   139    1
     9   137   143   am
    10   145   146    2
    11   145   144    1
    12   140   139    1
    13   140   142    1
    14   139   141    1
    15   158   160    1
    16   158   159    1
    17   143   144    1
    18   144   147    1
    19   184   183   ar
    20   184   182   ar
    21   161   162    1
    22   183   181   ar
    23   147   148    1
    24   182   180   ar
    25   149   148   ar
    26   149   151   ar
    27    77    75    1
    28   130   131    2
    29   130   129    1
    30   166   165    1
    31   148   150   ar
    32   181   180   ar
    33   162   165    1
    34   162   163    1
    35   151   153   ar
    36   180   179    1
    37   129   128    1
    38   129   132    1
    39    78    76    1
    40    62    60   am
    41    74    73    2
    42    75    76    1
    43    75    72    1
    44   167   163   am
    45   167   168    1
    46   163   164    2
    47   175   176    1
    48    73    72    1
    49   150   152   ar
    50   171   168    1
    51   171   172    1
    52   113   111    1
    53   169   168    1
    54   169   170    2
    55   132   133    1
    56   132   134    1
    57   173   172    1
    58   153   152   ar
    59   179   176    1
    60    94    95   ar
    61    94    92   ar
    62    72    71    1
    63   176   177    1
    64   172   174    1
    65    60    61    2
    66    60    59    1
    67    79    80    1
    68    96    97    1
    69    95    93   ar
    70   107   108    1
    71    58    57    2
    72    57    56    1
    73    99    98    2
    74    98    97    1
    75    92    90   ar
    76    88    87    2
    77    87    86    1
    78    71    65   am
    79    80    81    1
    80    80    83    1
    81   111   108    1
    82   111   112    1
    83   108   109    1
    84    59    56    1
    85    97   100    1
    86    82    81    2
    87    81    85   am
    88   177   185   am
    89   177   178    2
    90    93    91   ar
    91    56    55    1
    92    85    86    1
    93    90    91   ar
    94    90    89    1
    95   112   114    1
    96    65    66    2
    97    65    64    1
    98    86    89    1
    99   185   186    1
   100    84    83    1
   101    63    64    1
   102    55    43   am
   103   109   110    2
   104   100   101    1
   105    41    42    1
   106    44    43    2
   107    43    42    1
   108   203   202   ar
   109   203   201   ar
   110    64    67    1
   111   202   200   ar
   112   201   199   ar
   113    42    45    1
   114   186   189    1
   115   186   187    1
   116   101   102    1
   117    15    13    1
   118   189   190    1
   119    67    68    1
   120   187   188    2
   121   200   198   ar
   122     7     5    1
   123   199   198   ar
   124   190   191    1
   125   190   192    1
   126   198   197    1
   127   193   194    1
   128    49    47   ar
   129    49    50   ar
   130    47    46   ar
   131    50    52   ar
   132    50    48   ar
   133    52    54   ar
   134    46    45    1
   135    46    48   ar
   136    48    51   ar
   137    54    53   ar
   138   102   103    1
   139    51    53   ar
   140    14    12    1
   141    13    12    1
   142    68    70    1
   143    68    69    1
   144   103   104    2
   145   122   120    1
   146   197   194    1
   147   104   105    1
   148   104   106    1
   149     5     6    1
   150     5     2    1
   151   194   195    1
   152    12     9    1
   153   115   116    1
   154     2     1    1
   155     2     3    1
   156   116   119    1
   157   116   117    1
   158   120   121    1
   159   120   119    1
   160   195   196    2
   161     9    10    1
   162     9     8    1
   163     4     3    2
   164   117   123   am
   165   117   118    2
   166    31    28    1
   167    21    20    1
   168    39    38    2
   169   123   124    1
   170    11    10    2
   171    10    16   am
   172    28    27    1
   173    28    29    1
   174    16    17    1
   175   127   124    1
   176    37    36    1
   177    37    38    1
   178    36    33    1
   179   124   125    1
   180    38    40   am
   181    27    24   am
   182    17    20    1
   183    17    18    1
   184    26    23    1
   185    35    34    2
   186    30    29    2
   187    24    25    2
   188    24    23    1
   189    34    33    1
   190    33    32    1
   191   125   126    2
   192    23    22    1
   193    18    19    2
