@<TRIPOS>MOLECULE
tmp/3e01A00.pdb
 210 210 0 0 0
SMALL
GASTEIGER

@<TRIPOS>ATOM
      1  N         47.4370   54.8560   21.7610 N.3    91  PRO91      -0.2102
      2  CA        48.2050   55.0330   20.5210 C.3    91  PRO91       0.1504
      3  C         49.7070   55.1190   20.7670 C.2    91  PRO91       0.2576
      4  O         50.1340   55.4420   21.8760 O.2    91  PRO91      -0.2718
      5  CB        47.6890   56.3680   19.9690 C.3    91  PRO91       0.0282
      6  CG        46.4200   56.6200   20.6720 C.3    91  PRO91       0.0208
      7  CD        46.5570   56.0070   22.0170 C.3    91  PRO91       0.0893
      8  N         50.4980   54.8210   19.7420 N.am   92  HIS92      -0.1963
      9  CA        51.9360   54.9970   19.8350 C.3    92  HIS92       0.1772
     10  C         52.3960   56.0630   18.8530 C.2    92  HIS92       0.2462
     11  O         52.0260   56.0190   17.6780 O.2    92  HIS92      -0.2730
     12  CB        52.6750   53.6890   19.5670 C.3    92  HIS92       0.0785
     13  CG        54.0590   53.6740   20.1260 C.ar   92  HIS92       0.0821
     14  ND1       55.1610   54.0600   19.3960 N.ar   92  HIS92      -0.2267
     15  CD2       54.5150   53.3660   21.3620 C.ar   92  HIS92       0.1154
     16  CE1       56.2390   53.9690   20.1530 C.ar   92  HIS92       0.1986
     17  NE2       55.8750   53.5510   21.3510 N.ar   92  HIS92      -0.2212
     18  N         53.2110   57.0210   19.3250 N.am   93  PRO93      -0.2727
     19  CA        53.7370   58.0740   18.4670 C.3    93  PRO93       0.1402
     20  C         54.1950   57.5680   17.1000 C.2    93  PRO93       0.2269
     21  O         53.8840   58.1770   16.0820 O.2    93  PRO93      -0.2865
     22  CB        54.9280   58.5930   19.2620 C.3    93  PRO93       0.0296
     23  CG        54.5630   58.3710   20.6620 C.3    93  PRO93       0.0237
     24  CD        53.6920   57.1610   20.7110 C.3    93  PRO93       0.0939
     25  N         51.4770   57.5160   14.5810 N.3    96  LEU96      -0.1231
     26  CA        50.9300   58.8100   14.1770 C.3    96  LEU96       0.1693
     27  C         51.4990   59.2320   12.8320 C.2    96  LEU96       0.2592
     28  O         52.7140   59.2980   12.6640 O.2    96  LEU96      -0.2718
     29  CB        51.2440   59.8890   15.2160 C.3    96  LEU96       0.0284
     30  CG        50.6800   59.6630   16.6160 C.3    96  LEU96       0.0019
     31  CD1       51.1770   60.7310   17.5620 C.3    96  LEU96       0.0001
     32  CD2       49.1730   59.6460   16.5810 C.3    96  LEU96       0.0001
     33  N         50.6080   59.5050   11.8820 N.am   97  LYS97      -0.1966
     34  CA        50.9960   59.9900   10.5620 C.3    97  LYS97       0.1728
     35  C         51.4220   61.4540   10.6400 C.2    97  LYS97       0.2616
     36  O         50.9770   62.1960   11.5220 O.2    97  LYS97      -0.2715
     37  CB        49.8400   59.8480    9.5730 C.3    97  LYS97       0.0311
     38  CG        49.3090   58.4370    9.4250 C.3    97  LYS97       0.0038
     39  CD        48.2350   58.3890    8.3670 C.3    97  LYS97       0.0206
     40  CE        47.5090   57.0530    8.3470 C.3    97  LYS97       0.1093
     41  NZ        46.5120   56.9880    7.2320 N.3    97  LYS97      -0.1314
     42  N         52.2870   61.8710    9.7200 N.am   98  LYS98      -0.1963
     43  CA        52.7420   63.2570    9.6940 C.3    98  LYS98       0.1728
     44  C         51.6870   64.1090    8.9890 C.2    98  LYS98       0.2616
     45  O         51.1420   63.7050    7.9580 O.2    98  LYS98      -0.2715
     46  CB        54.1000   63.3760    8.9920 C.3    98  LYS98       0.0311
     47  CG        54.9370   64.5830    9.4520 C.3    98  LYS98       0.0038
     48  CD        55.7840   65.1860    8.3190 C.3    98  LYS98       0.0206
     49  CE        56.8200   64.2050    7.7650 C.3    98  LYS98       0.1093
     50  NZ        57.3160   64.6160    6.4170 N.3    98  LYS98      -0.1314
     51  N         51.3930   65.2730    9.5610 N.am   99  LYS99      -0.1963
     52  CA        50.4140   66.2080    8.9950 C.3    99  LYS99       0.1728
     53  C         50.9720   67.6190    9.0940 C.2    99  LYS99       0.2616
     54  O         51.7900   67.8890    9.9690 O.2    99  LYS99      -0.2715
     55  CB        49.0840   66.1330    9.7580 C.3    99  LYS99       0.0311
     56  CG        48.6200   64.7190   10.1180 C.3    99  LYS99       0.0038
     57  CD        48.2000   63.9020    8.8880 C.3    99  LYS99       0.0206
     58  CE        46.7190   64.0690    8.5650 C.3    99  LYS99       0.1093
     59  NZ        46.2690   63.1450    7.4850 N.3    99  LYS99      -0.1314
     60  N         50.5390   68.5210    8.2150 N.am  100  LYS100     -0.1977
     61  CA        51.0010   69.9090    8.2980 C.3   100  LYS100      0.1596
     62  C         50.5560   70.5470    9.6130 C.2   100  LYS100      0.2287
     63  O         51.3870   70.8630   10.4670 O.2   100  LYS100     -0.2864
     64  CB        50.5310   70.7540    7.1080 C.3   100  LYS100      0.0298
     65  CG        51.1470   72.1620    7.1190 C.3   100  LYS100      0.0038
     66  CD        51.0350   72.8990    5.7760 C.3   100  LYS100      0.0206
     67  CE        52.0030   72.3650    4.7210 C.3   100  LYS100      0.1093
     68  NZ        51.4370   71.2060    3.9830 N.3   100  LYS100     -0.1314
     69  N         48.2300   70.6010   13.2360 N.3   102  VAL102     -0.1245
     70  CA        47.7630   69.7020   14.2970 C.3   102  VAL102      0.1561
     71  C         47.3690   70.4980   15.5510 C.2   102  VAL102      0.2260
     72  O         48.1630   71.2870   16.0680 O.2   102  VAL102     -0.2867
     73  CB        48.8580   68.6430   14.6520 C.3   102  VAL102      0.0252
     74  CG1       48.6350   68.0330   16.0440 C.3   102  VAL102      0.0019
     75  CG2       48.9150   67.5480   13.5840 C.3   102  VAL102      0.0019
     76  N         45.4920   70.3710   19.5480 N.3   104  VAL104     -0.1245
     77  CA        45.0460   69.6390   20.7290 C.3   104  VAL104      0.1561
     78  C         43.8430   70.3610   21.3430 C.2   104  VAL104      0.2260
     79  O         43.8430   71.5870   21.4720 O.2   104  VAL104     -0.2867
     80  CB        46.1900   69.5170   21.7790 C.3   104  VAL104      0.0252
     81  CG1       45.6560   69.0480   23.1370 C.3   104  VAL104      0.0019
     82  CG2       47.2830   68.5760   21.2690 C.3   104  VAL104      0.0019
     83  N         41.9070   64.0080   10.6200 N.3   175  VAL175     -0.1245
     84  CA        42.2240   62.9640   11.5730 C.3   175  VAL175      0.1561
     85  C         41.9300   63.4840   12.9750 C.2   175  VAL175      0.2260
     86  O         42.5080   64.4780   13.4200 O.2   175  VAL175     -0.2867
     87  CB        43.7000   62.5310   11.4580 C.3   175  VAL175      0.0252
     88  CG1       44.1040   61.6320   12.6270 C.3   175  VAL175      0.0019
     89  CG2       43.9320   61.8260   10.1290 C.3   175  VAL175      0.0019
     90  N         41.9180   62.1590   16.9030 N.3   177  TYR177     -0.1241
     91  CA        42.3000   61.1220   17.8550 C.3   177  TYR177      0.1605
     92  C         41.5260   61.3070   19.1570 C.2   177  TYR177      0.2264
     93  O         41.5700   62.3810   19.7560 O.2   177  TYR177     -0.2867
     94  CB        43.8000   61.1840   18.1380 C.3   177  TYR177      0.0534
     95  CG        44.6570   60.3800   17.1900 C.ar  177  TYR177     -0.0201
     96  CD1       44.9500   59.0460   17.4570 C.ar  177  TYR177     -0.0009
     97  CD2       45.1900   60.9530   16.0370 C.ar  177  TYR177     -0.0009
     98  CE1       45.7480   58.2900   16.5950 C.ar  177  TYR177      0.0417
     99  CE2       45.9870   60.2090   15.1630 C.ar  177  TYR177      0.0417
    100  CZ        46.2650   58.8750   15.4480 C.ar  177  TYR177      0.1957
    101  OH        47.0610   58.1270   14.5990 O.3   177  TYR177     -0.2866
    102  N         42.6630   65.0840   19.6630 N.3   184  TYR184     -0.1227
    103  CA        43.8110   65.5330   18.8920 C.3   184  TYR184      0.1736
    104  C         43.4610   65.5430   17.4140 C.2   184  TYR184      0.2595
    105  O         43.1640   64.5020   16.8320 O.2   184  TYR184     -0.2718
    106  CB        45.0150   64.6350   19.1640 C.3   184  TYR184      0.0548
    107  CG        45.2160   64.3220   20.6340 C.ar  184  TYR184     -0.0200
    108  CD1       45.1920   63.0130   21.1020 C.ar  184  TYR184     -0.0009
    109  CD2       45.4220   65.3370   21.5560 C.ar  184  TYR184     -0.0009
    110  CE1       45.3740   62.7250   22.4500 C.ar  184  TYR184      0.0417
    111  CE2       45.6070   65.0570   22.9060 C.ar  184  TYR184      0.0417
    112  CZ        45.5780   63.7520   23.3430 C.ar  184  TYR184      0.1957
    113  OH        45.7600   63.4800   24.6720 O.3   184  TYR184     -0.2866
    114  N         43.4880   66.7300   16.8170 N.am  185  VAL185     -0.1966
    115  CA        43.0660   66.9230   15.4320 C.3   185  VAL185      0.1727
    116  C         44.2590   67.2660   14.5460 C.2   185  VAL185      0.2616
    117  O         45.1490   68.0160   14.9550 O.2   185  VAL185     -0.2715
    118  CB        42.0270   68.0590   15.3240 C.3   185  VAL185      0.0290
    119  CG1       41.6130   68.2700   13.8740 C.3   185  VAL185      0.0023
    120  CG2       40.8150   67.7540   16.1980 C.3   185  VAL185      0.0023
    121  N         44.2620   66.7220   13.3300 N.am  186  GLY186     -0.1955
    122  CA        45.3520   66.9530   12.3850 C.3   186  GLY186      0.1869
    123  C         44.9080   66.8720   10.9380 C.2   186  GLY186      0.2309
    124  O         44.0140   66.0940   10.5950 O.2   186  GLY186     -0.2863
    125  N         47.7070   74.5640   23.1170 N.3   219  LYS219     -0.1245
    126  CA        49.1390   74.3850   23.3420 C.3   219  LYS219      0.1561
    127  C         49.8610   74.3680   22.0090 C.2   219  LYS219      0.2260
    128  O         49.2370   74.2410   20.9530 O.2   219  LYS219     -0.2867
    129  CB        49.4160   73.0750   24.0820 C.3   219  LYS219      0.0271
    130  CG        48.7900   72.9790   25.4660 C.3   219  LYS219      0.0035
    131  CD        48.5920   71.5350   25.8660 C.3   219  LYS219      0.0206
    132  CE        47.9410   71.4150   27.2230 C.3   219  LYS219      0.1093
    133  NZ        47.5680   70.0020   27.5170 N.3   219  LYS219     -0.1314
    134  N         53.4050   72.7220   19.8310 N.3   221  PRO221     -0.2116
    135  CA        54.4190   71.6660   19.8640 C.3   221  PRO221      0.1372
    136  C         55.7630   72.1930   20.3660 C.2   221  PRO221      0.2244
    137  O         56.0690   73.3700   20.1610 O.2   221  PRO221     -0.2868
    138  CB        54.5230   71.2220   18.4000 C.3   221  PRO221      0.0268
    139  CG        53.9930   72.3590   17.6090 C.3   221  PRO221      0.0207
    140  CD        52.9510   73.0100   18.4590 C.3   221  PRO221      0.0892
    141  N         54.3830   68.6190   22.0090 N.3   223  PHE223     -0.1227
    142  CA        53.3560   68.1530   22.9490 C.3   223  PHE223      0.1736
    143  C         53.9310   67.1010   23.8860 C.2   223  PHE223      0.2595
    144  O         54.3390   66.0280   23.4430 O.2   223  PHE223     -0.2718
    145  CB        52.1640   67.5370   22.2150 C.3   223  PHE223      0.0547
    146  CG        51.5550   68.4310   21.1860 C.ar  223  PHE223     -0.0202
    147  CD1       51.0540   69.6750   21.5430 C.ar  223  PHE223     -0.0042
    148  CD2       51.4680   68.0260   19.8630 C.ar  223  PHE223     -0.0042
    149  CE1       50.4860   70.5110   20.5940 C.ar  223  PHE223     -0.0003
    150  CE2       50.9000   68.8510   18.9050 C.ar  223  PHE223     -0.0003
    151  CZ        50.4070   70.0980   19.2710 C.ar  223  PHE223     -0.0000
    152  N         53.9540   67.4080   25.1770 N.am  224  LEU224     -0.1966
    153  CA        54.3600   66.4460   26.1910 C.3   224  LEU224      0.1728
    154  C         53.1310   65.6340   26.5700 C.2   224  LEU224      0.2616
    155  O         52.2280   66.1420   27.2330 O.2   224  LEU224     -0.2715
    156  CB        54.9410   67.1600   27.4190 C.3   224  LEU224      0.0311
    157  CG        55.9030   68.3310   27.1650 C.3   224  LEU224      0.0022
    158  CD1       56.7420   68.5980   28.4040 C.3   224  LEU224      0.0001
    159  CD2       56.8070   68.0870   25.9580 C.3   224  LEU224      0.0001
    160  N         53.0890   64.3800   26.1320 N.am  225  TRP225     -0.1974
    161  CA        51.9060   63.5380   26.3140 C.3   225  TRP225      0.1640
    162  C         52.2880   62.1140   26.6850 C.2   225  TRP225      0.2290
    163  O         52.9630   61.4420   25.9150 O.2   225  TRP225     -0.2864
    164  CB        51.0830   63.5160   25.0190 C.3   225  TRP225      0.0576
    165  CG        49.9540   62.5180   25.0260 C.ar  225  TRP225      0.0006
    166  CD1       48.7170   62.6830   25.5790 C.ar  225  TRP225      0.0946
    167  CD2       49.9640   61.2040   24.4530 C.ar  225  TRP225      0.0152
    168  NE1       47.9580   61.5560   25.3900 N.ar  225  TRP225     -0.2442
    169  CE2       48.6990   60.6300   24.7040 C.ar  225  TRP225      0.0810
    170  CE3       50.9220   60.4510   23.7600 C.ar  225  TRP225      0.0012
    171  CZ2       48.3640   59.3370   24.2830 C.ar  225  TRP225      0.0191
    172  CZ3       50.5870   59.1640   23.3420 C.ar  225  TRP225      0.0001
    173  CH2       49.3190   58.6220   23.6060 C.ar  225  TRP225      0.0015
    174  N         56.0950   65.0080   21.4090 N.3   230  LEU230     -0.1231
    175  CA        55.6740   64.9780   20.0100 C.3   230  LEU230      0.1693
    176  C         55.9850   66.3080   19.3270 C.2   230  LEU230      0.2592
    177  O         55.2430   67.2790   19.4760 O.2   230  LEU230     -0.2718
    178  CB        54.1740   64.6590   19.8850 C.3   230  LEU230      0.0284
    179  CG        53.6030   63.3300   20.4210 C.3   230  LEU230      0.0019
    180  CD1       54.6190   62.1880   20.3650 C.3   230  LEU230      0.0001
    181  CD2       53.0850   63.4930   21.8420 C.3   230  LEU230      0.0001
    182  N         57.0860   66.3400   18.5780 N.am  231  HIS231     -0.1962
    183  CA        57.5000   67.5300   17.8310 C.3   231  HIS231      0.1772
    184  C         56.8440   67.5450   16.4510 C.2   231  HIS231      0.2462
    185  O         56.2330   66.5600   16.0500 O.2   231  HIS231     -0.2730
    186  CB        59.0230   67.5690   17.7110 C.3   231  HIS231      0.0785
    187  CG        59.7220   67.7240   19.0230 C.ar  231  HIS231      0.0821
    188  ND1       59.7100   66.7430   19.9890 N.ar  231  HIS231     -0.2267
    189  CD2       60.4530   68.7430   19.5300 C.ar  231  HIS231      0.1154
    190  CE1       60.4030   67.1500   21.0360 C.ar  231  HIS231      0.1986
    191  NE2       60.8650   68.3610   20.7830 N.ar  231  HIS231     -0.2212
    192  N         56.9400   68.6790   15.7330 N.am  232  PRO232     -0.2727
    193  CA        56.2550   68.8290   14.4400 C.3   232  PRO232      0.1402
    194  C         56.6050   67.8180   13.3490 C.2   232  PRO232      0.2269
    195  O         55.8010   67.6230   12.4380 O.2   232  PRO232     -0.2865
    196  CB        56.6410   70.2460   13.9950 C.3   232  PRO232      0.0296
    197  CG        57.0080   70.9550   15.2520 C.3   232  PRO232      0.0237
    198  CD        57.6490   69.9190   16.1110 C.3   232  PRO232      0.0939
    199  N         57.8820   60.0990   12.1380 N.3   314  TYR314     -0.1241
    200  CA        56.4650   59.7500   12.0550 C.3   314  TYR314      0.1605
    201  C         56.1970   58.8440   10.8640 C.2   314  TYR314      0.2264
    202  O         57.0430   58.6790    9.9840 O.2   314  TYR314     -0.2867
    203  CB        55.5900   61.0050   11.9800 C.3   314  TYR314      0.0534
    204  CG        55.5610   61.7870   13.2700 C.ar  314  TYR314     -0.0201
    205  CD1       56.0530   63.0810   13.3270 C.ar  314  TYR314     -0.0009
    206  CD2       55.0540   61.2250   14.4400 C.ar  314  TYR314     -0.0009
    207  CE1       56.0350   63.7980   14.5090 C.ar  314  TYR314      0.0417
    208  CE2       55.0340   61.9350   15.6310 C.ar  314  TYR314      0.0417
    209  CZ        55.5280   63.2230   15.6580 C.ar  314  TYR314      0.1957
    210  OH        55.5200   63.9460   16.8290 O.3   314  TYR314     -0.2866
@<TRIPOS>BOND
     1    68    67    1
     2    67    66    1
     3    66    65    1
     4    50    49    1
     5    64    65    1
     6    64    61    1
     7    41    40    1
     8    59    58    1
     9    49    48    1
    10    45    44    2
    11    60    61    1
    12    60    53   am
    13    61    62    1
    14    48    47    1
    15    40    39    1
    16    39    38    1
    17    58    57    1
    18    57    56    1
    19    44    51   am
    20    44    43    1
    21    46    47    1
    22    46    43    1
    23    52    53    1
    24    52    51    1
    25    52    55    1
    26    53    54    2
    27    38    37    1
    28    37    34    1
    29    62    63    2
    30    43    42    1
    31    42    35   am
    32    55    56    1
    33   202   201    2
    34    89    87    1
    35    34    35    1
    36    34    33    1
    37   124   123    2
    38    83    84    1
    39    35    36    2
    40   201   200    1
    41   123   122    1
    42    87    84    1
    43    87    88    1
    44    84    85    1
    45    33    27   am
    46   203   200    1
    47   203   204    1
    48   200   199    1
    49   122   121    1
    50   195   194    2
    51    28    27    2
    52    27    26    1
    53    85    86    2
    54    69    70    1
    55   204   205   ar
    56   204   206   ar
    57   205   207   ar
    58   121   116   am
    59   194   193    1
    60    75    73    1
    61   119   118    1
    62   196   193    1
    63   196   197    1
    64    26    25    1
    65    26    29    1
    66    70    73    1
    67    70    71    1
    68   193   192    1
    69   206   208   ar
    70   207   209   ar
    71   116   117    2
    72   116   115    1
    73   101   100    1
    74    73    74    1
    75    99   100   ar
    76    99    97   ar
    77    29    30    1
    78   197   198    1
    79   118   115    1
    80   118   120    1
    81   115   114    1
    82   100    98   ar
    83    71    72    2
    84   208   209   ar
    85   209   210    1
    86   192   198    1
    87   192   184   am
    88    97    95   ar
    89   185   184    2
    90    21    20    2
    91   184   183    1
    92    32    30    1
    93    98    96   ar
    94    30    31    1
    95   114   104   am
    96   105   104    2
    97    90    91    1
    98    20    19    1
    99    95    96   ar
   100    95    94    1
   101   104   103    1
   102   139   138    1
   103   139   140    1
   104    11    10    2
   105   186   183    1
   106   186   187    1
   107   183   182    1
   108    91    94    1
   109    91    92    1
   110   138   135    1
   111   140   134    1
   112    19    22    1
   113    19    18    1
   114   182   176   am
   115    10    18   am
   116    10     9    1
   117   103   106    1
   118   103   102    1
   119   150   151   ar
   120   150   148   ar
   121   187   189   ar
   122   187   188   ar
   123    92    93    2
   124   106   107    1
   125    22    23    1
   126   151   149   ar
   127    18    24    1
   128   176   177    2
   129   176   175    1
   130    14    13   ar
   131    14    16   ar
   132   189   191   ar
   133    76    77    1
   134    12     9    1
   135    12    13    1
   136     8     9    1
   137     8     3   am
   138   134   135    1
   139   148   146   ar
   140   135   136    1
   141   178   175    1
   142   178   179    1
   143     5     2    1
   144     5     6    1
   145   188   190   ar
   146   175   174    1
   147    13    15   ar
   148    16    17   ar
   149   137   136    2
   150   180   179    1
   151   179   181    1
   152     2     3    1
   153     2     1    1
   154   149   147   ar
   155   107   108   ar
   156   107   109   ar
   157    23    24    1
   158     6     7    1
   159    77    78    1
   160    77    80    1
   161     3     4    2
   162   191   190   ar
   163   128   127    2
   164   108   110   ar
   165   146   147   ar
   166   146   145    1
   167    82    80    1
   168    78    79    2
   169    17    15   ar
   170   109   111   ar
   171     1     7    1
   172    80    81    1
   173   127   126    1
   174   141   142    1
   175   145   142    1
   176   110   112   ar
   177   111   112   ar
   178   142   143    1
   179   125   126    1
   180   172   173   ar
   181   172   170   ar
   182   126   129    1
   183   112   113    1
   184   144   143    2
   185   173   171   ar
   186   170   167   ar
   187   143   152   am
   188   129   130    1
   189   171   169   ar
   190   167   169   ar
   191   167   165   ar
   192   169   168   ar
   193   164   165    1
   194   164   161    1
   195   165   166   ar
   196   152   153    1
   197   168   166   ar
   198   130   131    1
   199   131   132    1
   200   163   162    2
   201   159   157    1
   202   160   161    1
   203   160   154   am
   204   153   154    1
   205   153   156    1
   206   161   162    1
   207   154   155    2
   208   157   156    1
   209   157   158    1
   210   132   133    1
