@<TRIPOS>MOLECULE
tmp/3e0bB01.pdb
 153 145 0 0 0
SMALL
GASTEIGER

@<TRIPOS>ATOM
      1  N         24.4150   28.8350  -14.7460 N.3    10  MET10      -0.1230
      2  CA        23.9870   28.6390  -13.3690 C.3    10  MET10       0.1702
      3  C         24.6280   29.7730  -12.5330 C.2    10  MET10       0.2592
      4  O         25.8510   29.8320  -12.4010 O.2    10  MET10      -0.2718
      5  CB        24.4420   27.2490  -12.8970 C.3    10  MET10       0.0401
      6  CG        24.2180   26.9290  -11.4010 C.3    10  MET10       0.0596
      7  SD        22.5250   27.1120  -10.8250 S.3    10  MET10      -0.1393
      8  CE        21.7930   25.5890  -11.4730 C.3    10  MET10       0.0692
      9  N         23.7980   30.6720  -11.9890 N.am   11  VAL11      -0.1966
     10  CA        24.3060   31.8230  -11.2640 C.3    11  VAL11       0.1727
     11  C         23.3000   32.3710  -10.2260 C.2    11  VAL11       0.2616
     12  O         22.0940   32.1120  -10.3020 O.2    11  VAL11      -0.2715
     13  CB        24.7350   32.9590  -12.2470 C.3    11  VAL11       0.0290
     14  CG1       23.5510   33.4100  -13.0770 C.3    11  VAL11       0.0023
     15  CG2       25.3710   34.1610  -11.5020 C.3    11  VAL11       0.0023
     16  N         23.8340   33.0860   -9.2390 N.am   12  ALA12      -0.1977
     17  CA        23.0450   33.7580   -8.2080 C.3    12  ALA12       0.1597
     18  C         23.5740   35.1760   -8.1460 C.2    12  ALA12       0.2287
     19  O         24.7760   35.3780   -8.0480 O.2    12  ALA12      -0.2864
     20  CB        23.2180   33.0620   -6.8450 C.3    12  ALA12       0.0319
     21  N         35.2670   36.0150   -3.4460 N.3    24  ASN24      -0.1225
     22  CA        34.4340   35.0950   -2.7120 C.3    24  ASN24       0.1785
     23  C         32.9780   35.4950   -2.8950 C.2    24  ASN24       0.2597
     24  O         32.6830   36.4670   -3.5900 O.2    24  ASN24      -0.2718
     25  CB        34.8270   35.1020   -1.2250 C.3    24  ASN24       0.1169
     26  CG        34.5140   33.7790   -0.5340 C.2    24  ASN24       0.2627
     27  OD1       33.4920   33.1440   -0.8160 O.2    24  ASN24      -0.2716
     28  ND2       35.4030   33.3520    0.3730 N.am   24  ASN24      -0.0877
     29  N         32.0800   34.7350   -2.2830 N.am   25  LEU25      -0.1980
     30  CA        30.6420   35.0000   -2.3090 C.3    25  LEU25       0.1596
     31  C         30.2750   36.0650   -1.2510 C.2    25  LEU25       0.2287
     32  O         30.7830   36.0300   -0.1450 O.2    25  LEU25      -0.2864
     33  CB        29.8870   33.6880   -2.0280 C.3    25  LEU25       0.0297
     34  CG        29.2050   32.8390   -3.1280 C.3    25  LEU25       0.0022
     35  CD1       29.6700   33.0640   -4.5580 C.3    25  LEU25       0.0001
     36  CD2       29.2440   31.3590   -2.7740 C.3    25  LEU25       0.0001
     37  N         27.3800   36.4430    0.2280 N.3    27  TRP27      -0.1241
     38  CA        26.2950   35.9580    1.1030 C.3    27  TRP27       0.1605
     39  C         26.4540   34.4780    1.3930 C.2    27  TRP27       0.2264
     40  O         27.1700   33.7790    0.6930 O.2    27  TRP27      -0.2867
     41  CB        24.9510   36.1470    0.4130 C.3    27  TRP27       0.0550
     42  CG        24.9590   35.5160   -0.9560 C.ar   27  TRP27       0.0003
     43  CD1       24.9140   34.1620   -1.2480 C.ar   27  TRP27       0.0946
     44  CD2       25.1010   36.1960   -2.2220 C.ar   27  TRP27       0.0152
     45  NE1       25.0430   33.9640   -2.6230 N.ar   27  TRP27      -0.2442
     46  CE2       25.1730   35.1880   -3.2410 C.ar   27  TRP27       0.0810
     47  CE3       25.1980   37.5470   -2.5980 C.ar   27  TRP27       0.0012
     48  CZ2       25.2630   35.5090   -4.6130 C.ar   27  TRP27       0.0191
     49  CZ3       25.3340   37.8590   -3.9670 C.ar   27  TRP27       0.0001
     50  CH2       25.3470   36.8480   -4.9510 C.ar   27  TRP27       0.0015
     51  N         20.1720   27.5630   -1.0190 N.3    32  GLU32      -0.1231
     52  CA        20.3830   27.9070   -2.4250 C.3    32  GLU32       0.1699
     53  C         21.4840   27.0050   -3.0170 C.2    32  GLU32       0.2592
     54  O         21.3970   26.5490   -4.1580 O.2    32  GLU32      -0.2718
     55  CB        20.7340   29.3990   -2.5390 C.3    32  GLU32       0.0402
     56  CG        20.4230   30.0660   -3.9070 C.3    32  GLU32       0.1161
     57  CD        21.4400   29.7030   -4.9840 C.2    32  GLU32       0.3649
     58  OE1       22.6420   29.5360   -4.6540 O.co2  32  GLU32      -0.2457
     59  OE2       21.0480   29.5990   -6.1680 O.co2  32  GLU32      -0.2457
     60  N         22.4810   26.6750   -2.1980 N.am   33  LEU33      -0.1980
     61  CA        23.5490   25.7470   -2.6180 C.3    33  LEU33       0.1596
     62  C         22.9850   24.3450   -2.8490 C.2    33  LEU33       0.2287
     63  O         23.4540   23.6020   -3.7030 O.2    33  LEU33      -0.2864
     64  CB        24.6220   25.6590   -1.5330 C.3    33  LEU33       0.0297
     65  CG        26.0780   25.3300   -1.8440 C.3    33  LEU33       0.0022
     66  CD1       26.7460   24.8590   -0.5230 C.3    33  LEU33       0.0001
     67  CD2       26.2400   24.2580   -2.9010 C.3    33  LEU33       0.0001
     68  N         21.3610   24.2640   -6.2230 N.3    36  VAL36      -0.1231
     69  CA        22.4310   24.1940   -7.2010 C.3    36  VAL36       0.1692
     70  C         22.9620   22.7460   -7.3400 C.2    36  VAL36       0.2591
     71  O         23.2390   22.2830   -8.4450 O.2    36  VAL36      -0.2718
     72  CB        23.6240   25.1390   -6.7840 C.3    36  VAL36       0.0266
     73  CG1       24.8340   24.9130   -7.6650 C.3    36  VAL36       0.0020
     74  CG2       23.1960   26.5880   -6.8390 C.3    36  VAL36       0.0020
     75  N         23.1570   22.0660   -6.2020 N.am   37  LYS37      -0.1980
     76  CA        23.6880   20.7100   -6.2080 C.3    37  LYS37       0.1596
     77  C         22.7010   19.7520   -6.8670 C.2    37  LYS37       0.2287
     78  O         23.0840   18.9090   -7.6630 O.2    37  LYS37      -0.2864
     79  CB        24.0210   20.2400   -4.7930 C.3    37  LYS37       0.0298
     80  CG        25.1390   19.1730   -4.7420 C.3    37  LYS37       0.0038
     81  CD        25.3000   18.5060   -3.3490 C.3    37  LYS37       0.0206
     82  CE        25.3740   19.5540   -2.1820 C.3    37  LYS37       0.1093
     83  NZ        26.4370   20.6390   -2.3050 N.3    37  LYS37      -0.1314
     84  N         37.1950   31.2080   -9.9540 N.3    51  ASN51      -0.1240
     85  CA        36.0700   30.5530   -9.3320 C.3    51  ASN51       0.1653
     86  C         36.4760   29.1650   -8.7450 C.2    51  ASN51       0.2266
     87  O         36.2270   28.8730   -7.5650 O.2    51  ASN51      -0.2867
     88  CB        34.8880   30.4410  -10.3030 C.3    51  ASN51       0.1155
     89  CG        33.7260   29.6710   -9.7150 C.2    51  ASN51       0.2627
     90  OD1       33.4080   29.8160   -8.5330 O.2    51  ASN51      -0.2716
     91  ND2       33.0620   28.8710  -10.5420 N.am   51  ASN51      -0.0877
     92  N         38.6010   29.3610   -5.5420 N.3    54  ALA54      -0.1231
     93  CA        37.8370   29.8230   -4.3940 C.3    54  ALA54       0.1694
     94  C         37.0510   28.6500   -3.7750 C.2    54  ALA54       0.2591
     95  O         36.9370   28.5540   -2.5600 O.2    54  ALA54      -0.2718
     96  CB        36.9000   30.9880   -4.7830 C.3    54  ALA54       0.0304
     97  N         36.5430   27.7600   -4.6260 N.am   55  ILE55      -0.1980
     98  CA        35.8320   26.5590   -4.1740 C.3    55  ILE55       0.1595
     99  C         36.8460   25.5910   -3.5270 C.2    55  ILE55       0.2287
    100  O         36.5910   25.0160   -2.4650 O.2    55  ILE55      -0.2864
    101  CB        35.0680   25.8740   -5.3410 C.3    55  ILE55       0.0276
    102  CG1       34.0890   26.8560   -5.9880 C.3    55  ILE55       0.0022
    103  CG2       34.3020   24.6480   -4.8500 C.3    55  ILE55       0.0022
    104  CD1       33.4400   26.3210   -7.2680 C.3    55  ILE55       0.0001
    105  N         33.8820   19.2790   -7.1740 N.3    59  LEU59      -0.1245
    106  CA        32.5150   19.0400   -6.7740 C.3    59  LEU59       0.1561
    107  C         32.1620   17.6290   -7.1980 C.2    59  LEU59       0.2260
    108  O         32.2520   17.2980   -8.3720 O.2    59  LEU59      -0.2867
    109  CB        31.5940   20.0670   -7.4300 C.3    59  LEU59       0.0270
    110  CG        31.5130   21.3890   -6.6620 C.3    59  LEU59       0.0019
    111  CD1       32.5340   21.4550   -5.5140 C.3    59  LEU59       0.0001
    112  CD2       31.6120   22.6060   -7.5670 C.3    59  LEU59       0.0001
    113  N         30.0310   15.2450  -10.6500 N.3    62  ARG62      -0.1245
    114  CA        29.9620   16.1570  -11.7950 C.3    62  ARG62       0.1563
    115  C         31.3530   16.2420  -12.4100 C.2    62  ARG62       0.2260
    116  O         32.3460   16.2040  -11.6710 O.2    62  ARG62      -0.2867
    117  CB        29.5560   17.5600  -11.2990 C.3    62  ARG62       0.0307
    118  CG        28.0770   17.7110  -10.9910 C.3    62  ARG62       0.0489
    119  CD        27.7970   18.7980   -9.9820 C.3    62  ARG62       0.2205
    120  NE        28.1270   18.3800   -8.6250 N.pl3  62  ARG62      -0.0865
    121  CZ        27.9470   19.1380   -7.5430 C.cat  62  ARG62       0.5346
    122  NH1       27.4210   20.3510   -7.6540 N.pl3  62  ARG62       0.1354
    123  NH2       28.3070   18.6900   -6.3520 N.pl3  62  ARG62       0.1354
    124  N         29.3190   27.8370  -14.7140 N.3   100  PHE100     -0.1241
    125  CA        29.1880   27.9860  -13.2920 C.3   100  PHE100      0.1605
    126  C         29.9170   29.2360  -12.7770 C.2   100  PHE100      0.2264
    127  O         30.0420   29.4280  -11.5670 O.2   100  PHE100     -0.2867
    128  CB        29.7860   26.7190  -12.6700 C.3   100  PHE100      0.0534
    129  CG        29.2710   26.3940  -11.3000 C.ar  100  PHE100     -0.0203
    130  CD1       27.9280   26.0120  -11.1140 C.ar  100  PHE100     -0.0042
    131  CD2       30.1500   26.3280  -10.2110 C.ar  100  PHE100     -0.0042
    132  CE1       27.4590   25.6250   -9.8470 C.ar  100  PHE100     -0.0003
    133  CE2       29.6770   25.9700   -8.9100 C.ar  100  PHE100     -0.0003
    134  CZ        28.3390   25.6040   -8.7410 C.ar  100  PHE100     -0.0000
    135  N         31.4450   33.6740  -17.5350 N.3   106  TYR106     -0.1241
    136  CA        30.1180   34.0460  -17.9980 C.3   106  TYR106      0.1605
    137  C         30.2250   34.8730  -19.2830 C.2   106  TYR106      0.2264
    138  O         29.4830   34.6230  -20.2270 O.2   106  TYR106     -0.2867
    139  CB        29.3270   34.8200  -16.9330 C.3   106  TYR106      0.0534
    140  CG        28.8840   33.9880  -15.7310 C.ar  106  TYR106     -0.0201
    141  CD1       28.3630   32.7160  -15.8970 C.ar  106  TYR106     -0.0009
    142  CD2       28.9680   34.5000  -14.4330 C.ar  106  TYR106     -0.0009
    143  CE1       27.9150   31.9840  -14.8160 C.ar  106  TYR106      0.0417
    144  CE2       28.5450   33.7700  -13.3380 C.ar  106  TYR106      0.0417
    145  CZ        28.0410   32.5040  -13.5370 C.ar  106  TYR106      0.1957
    146  OH        27.6580   31.7550  -12.4660 O.3   106  TYR106     -0.2866
    147  N         19.3950   32.7850   -9.7360 N.3   119  THR119     -0.1218
    148  CA        18.8130   33.0660   -8.4760 C.3   119  THR119      0.1862
    149  C         18.9620   34.5600   -8.2950 C.2   119  THR119      0.2287
    150  O         20.0260   35.1260   -8.5270 O.2   119  THR119     -0.2866
    151  CB        19.4850   32.2990   -7.3330 C.3   119  THR119      0.1770
    152  OG1       19.4620   30.8940   -7.6340 O.3   119  THR119     -0.2211
    153  CG2       18.7260   32.5420   -6.0150 C.3   119  THR119      0.0375
@<TRIPOS>BOND
     1   138   137    2
     2   137   136    1
     3   136   135    1
     4   136   139    1
     5   139   140    1
     6   141   140   ar
     7   141   143   ar
     8   140   142   ar
     9   143   145   ar
    10     1     2    1
    11   124   125    1
    12   142   144   ar
    13   145   144   ar
    14   145   146    1
    15     2     5    1
    16     2     3    1
    17   125   126    1
    18   125   128    1
    19    14    13    1
    20     5     6    1
    21   126   127    2
    22   128   129    1
    23     3     4    2
    24     3     9   am
    25   115   114    1
    26   115   116    2
    27    13    15    1
    28    13    10    1
    29     9    10    1
    30   114   117    1
    31   114   113    1
    32     8     7    1
    33     6     7    1
    34   129   130   ar
    35   129   131   ar
    36   117   118    1
    37    10    11    1
    38   130   132   ar
    39   118   119    1
    40    91    89   am
    41    88    89    1
    42    88    85    1
    43    12    11    2
    44    11    16   am
    45   131   133   ar
    46   119   120    1
    47    84    85    1
    48   132   134   ar
    49   147   148    1
    50    89    90    2
    51    85    86    1
    52    16    17    1
    53   133   134   ar
    54    86    87    2
    55   120   121    2
    56   150   149    2
    57   148   149    1
    58   148   151    1
    59    71    70    2
    60   108   107    2
    61    17    18    1
    62    17    20    1
    63    18    19    2
    64    73    72    1
    65    78    77    2
    66   122   121    1
    67   152   151    1
    68   112   110    1
    69   121   123    1
    70   109   106    1
    71   109   110    1
    72    70    69    1
    73    70    75   am
    74   151   153    1
    75   104   102    1
    76    69    72    1
    77    69    68    1
    78   107   106    1
    79   105   106    1
    80    77    76    1
    81    74    72    1
    82   110   111    1
    83    76    75    1
    84    76    79    1
    85    59    57   ar
    86   102   101    1
    87    92    93    1
    88   101   103    1
    89   101    98    1
    90    57    58   ar
    91    57    56    1
    92    50    48   ar
    93    50    49   ar
    94    79    80    1
    95    96    93    1
    96    80    81    1
    97    97    98    1
    98    97    94   am
    99    48    46   ar
   100    35    34    1
   101    93    94    1
   102    98    99    1
   103    54    53    2
   104    49    47   ar
   105    56    55    1
   106    94    95    2
   107    63    62    2
   108    24    23    2
   109    99   100    2
   110    21    22    1
   111    81    82    1
   112    46    45   ar
   113    46    44   ar
   114    34    36    1
   115    34    33    1
   116    53    52    1
   117    53    60   am
   118    67    65    1
   119    23    22    1
   120    23    29   am
   121    62    61    1
   122    22    25    1
   123    45    43   ar
   124    61    60    1
   125    61    64    1
   126    47    44   ar
   127    55    52    1
   128    52    51    1
   129    30    29    1
   130    30    33    1
   131    30    31    1
   132    83    82    1
   133    44    42   ar
   134    65    64    1
   135    65    66    1
   136    31    32    2
   137    43    42   ar
   138    25    26    1
   139    42    41    1
   140    27    26    2
   141    26    28   am
   142    37    38    1
   143    41    38    1
   144    40    39    2
   145    38    39    1
