@<TRIPOS>MOLECULE
tmp/3e0gA02.pdb
 86 83 0 0 0
SMALL
GASTEIGER

@<TRIPOS>ATOM
      1  N         20.1410  -65.3640   50.9570 N.3     2  LEU2       -0.1231
      2  CA        19.0890  -64.3510   50.9970 C.3     2  LEU2        0.1693
      3  C         19.6280  -62.9820   50.5690 C.2     2  LEU2        0.2592
      4  O         20.8390  -62.7420   50.6220 O.2     2  LEU2       -0.2718
      5  CB        18.4920  -64.2930   52.4130 C.3     2  LEU2        0.0284
      6  CG        17.6230  -63.1230   52.8910 C.3     2  LEU2        0.0019
      7  CD1       16.6530  -63.5760   53.9780 C.3     2  LEU2        0.0001
      8  CD2       18.4840  -61.9720   53.4050 C.3     2  LEU2        0.0001
      9  N         18.7240  -62.0950   50.1440 N.am    3  LYS3       -0.1966
     10  CA        19.0760  -60.7240   49.7890 C.3     3  LYS3        0.1728
     11  C         17.8420  -59.8230   49.8170 C.2     3  LYS3        0.2616
     12  O         16.7990  -60.1810   49.2760 O.2     3  LYS3       -0.2715
     13  CB        19.7430  -60.6760   48.4070 C.3     3  LYS3        0.0311
     14  CG        19.9200  -59.2610   47.8510 C.3     3  LYS3        0.0038
     15  CD        20.9170  -59.1730   46.6870 C.3     3  LYS3        0.0206
     16  CE        21.0290  -57.7310   46.1540 C.3     3  LYS3        0.1093
     17  NZ        21.2770  -56.7150   47.2310 N.3     3  LYS3       -0.1314
     18  N         17.9750  -58.6560   50.4480 N.am    4  CYS4       -0.1968
     19  CA        16.9050  -57.6550   50.4920 C.3     4  CYS4        0.1712
     20  C         17.3230  -56.3290   49.8570 C.2     4  CYS4        0.2296
     21  O         18.4300  -55.8270   50.0930 O.2     4  CYS4       -0.2864
     22  CB        16.4710  -57.4050   51.9350 C.3     4  CYS4        0.0983
     23  SG        15.7950  -58.8610   52.7730 S.3     4  CYS4       -0.0798
     24  N         16.2780  -66.2830   60.0650 N.3    72  LEU72      -0.1231
     25  CA        17.1830  -65.1540   59.8070 C.3    72  LEU72       0.1693
     26  C         16.6880  -63.8590   60.4830 C.2    72  LEU72       0.2592
     27  O         15.6200  -63.8520   61.1060 O.2    72  LEU72      -0.2718
     28  CB        17.3870  -64.9570   58.2930 C.3    72  LEU72       0.0284
     29  CG        17.5210  -66.1980   57.3880 C.3    72  LEU72       0.0019
     30  CD1       16.1810  -66.6180   56.7750 C.3    72  LEU72       0.0001
     31  CD2       18.5550  -66.0150   56.2870 C.3    72  LEU72       0.0001
     32  N         17.4740  -62.7840   60.3690 N.am   73  ASN73      -0.1960
     33  CA        17.1440  -61.4650   60.9430 C.3    73  ASN73       0.1819
     34  C         17.1120  -60.3300   59.9230 C.2    73  ASN73       0.2621
     35  O         17.5070  -60.5180   58.7740 O.2    73  ASN73      -0.2715
     36  CB        18.1350  -61.1020   62.0370 C.3    73  ASN73       0.1195
     37  CG        17.9480  -61.9240   63.2690 C.2    73  ASN73       0.2630
     38  OD1       18.7120  -62.8500   63.5240 O.2    73  ASN73      -0.2716
     39  ND2       16.9180  -61.6060   64.0430 N.am   73  ASN73      -0.0877
     40  N         16.6570  -59.1530   60.3530 N.am   74  GLU74      -0.1963
     41  CA        16.5510  -58.0000   59.4650 C.3    74  GLU74       0.1733
     42  C         16.6770  -56.6310   60.1100 C.2    74  GLU74       0.2616
     43  O         15.9220  -56.3070   61.0200 O.2    74  GLU74      -0.2715
     44  CB        15.1850  -57.9830   58.7840 C.3    74  GLU74       0.0429
     45  CG        14.9400  -59.1160   57.8130 C.3    74  GLU74       0.1163
     46  CD        15.9650  -59.1610   56.6970 C.2    74  GLU74       0.3649
     47  OE1       15.8670  -60.0600   55.8390 O.co2  74  GLU74      -0.2457
     48  OE2       16.8790  -58.3070   56.6760 O.co2  74  GLU74      -0.2457
     49  N         17.6170  -55.8190   59.6420 N.am   75  GLN75      -0.1963
     50  CA        17.7830  -54.4990   60.2230 C.3    75  GLN75       0.1733
     51  C         17.7550  -53.3160   59.2780 C.2    75  GLN75       0.2616
     52  O         16.7640  -52.6060   59.1820 O.2    75  GLN75      -0.2715
     53  CB        19.1070  -54.3930   60.9770 C.3    75  GLN75       0.0408
     54  CG        19.1630  -55.1660   62.2770 C.3    75  GLN75       0.0908
     55  CD        20.0580  -56.4020   62.2090 C.2    75  GLN75       0.2608
     56  OE1       21.0320  -56.4360   61.4470 O.2    75  GLN75      -0.2717
     57  NE2       19.7480  -57.4140   63.0320 N.am   75  GLN75      -0.0878
     58  N         18.8690  -53.1110   58.5910 N.am   76  ASN76      -0.1958
     59  CA        18.9960  -52.2250   57.4620 C.3    76  ASN76       0.1819
     60  C         18.5290  -53.0350   56.2680 C.2    76  ASN76       0.2621
     61  O         17.8670  -54.0630   56.4530 O.2    76  ASN76      -0.2715
     62  CB        20.4770  -51.9780   57.2380 C.3    76  ASN76       0.1195
     63  CG        21.2200  -53.2430   56.8650 C.2    76  ASN76       0.2630
     64  OD1       22.1100  -53.2190   56.0150 O.2    76  ASN76      -0.2716
     65  ND2       20.8710  -54.3590   57.5290 N.am   76  ASN76      -0.0877
     66  N         18.9060  -52.5810   55.0600 N.am   77  VAL77      -0.1963
     67  CA        18.5710  -53.2000   53.7510 C.3    77  VAL77       0.1727
     68  C         19.5840  -52.7390   52.6890 C.2    77  VAL77       0.2616
     69  O         20.7030  -52.3550   53.0160 O.2    77  VAL77      -0.2715
     70  CB        17.1240  -52.8810   53.2730 C.3    77  VAL77       0.0290
     71  CG1       16.8420  -53.5290   51.9370 C.3    77  VAL77       0.0023
     72  CG2       16.1250  -53.3990   54.2520 C.3    77  VAL77       0.0023
     73  N         19.1940  -52.7820   51.4200 N.am   78  SER78      -0.1950
     74  CA        20.0270  -52.2670   50.3380 C.3    78  SER78       0.1924
     75  C         19.1830  -51.3790   49.4010 C.2    78  SER78       0.2314
     76  O         18.2070  -51.8380   48.8050 O.2    78  SER78      -0.2863
     77  CB        20.6710  -53.4290   49.5820 C.3    78  SER78       0.2116
     78  OG        21.8370  -53.0040   48.9110 O.3    78  SER78      -0.2180
     79  N         22.9280  -50.1550   52.9480 N.3   177  LEU177     -0.1245
     80  CA        23.8510  -49.6330   51.9470 C.3   177  LEU177      0.1561
     81  C         23.0710  -49.0290   50.7770 C.2   177  LEU177      0.2260
     82  O         21.9940  -49.5180   50.3890 O.2   177  LEU177     -0.2867
     83  CB        24.8450  -50.6960   51.4660 C.3   177  LEU177      0.0270
     84  CG        24.3250  -52.0470   50.9670 C.3   177  LEU177      0.0019
     85  CD1       25.1330  -52.4760   49.7440 C.3   177  LEU177      0.0001
     86  CD2       24.3790  -53.1150   52.0800 C.3   177  LEU177      0.0001
@<TRIPOS>BOND
     1    16    15    1
     2    16    17    1
     3    15    14    1
     4    14    13    1
     5    13    10    1
     6    76    75    2
     7    78    77    1
     8    12    11    2
     9    75    74    1
    10    77    74    1
    11    85    84    1
    12    10    11    1
    13    10     9    1
    14    11    18   am
    15    20    21    2
    16    20    19    1
    17     9     3   am
    18    74    73    1
    19    82    81    2
    20    18    19    1
    21    19    22    1
    22     3     4    2
    23     3     2    1
    24    81    80    1
    25     1     2    1
    26    84    83    1
    27    84    86    1
    28     2     5    1
    29    73    68   am
    30    83    80    1
    31    22    23    1
    32    71    70    1
    33    80    79    1
    34     5     6    1
    35    68    69    2
    36    68    67    1
    37     6     8    1
    38     6     7    1
    39    70    67    1
    40    70    72    1
    41    67    66    1
    42    66    60   am
    43    47    46   ar
    44    64    63    2
    45    60    61    2
    46    60    59    1
    47    31    29    1
    48    48    46   ar
    49    46    45    1
    50    30    29    1
    51    63    62    1
    52    63    65   am
    53    62    59    1
    54    29    28    1
    55    59    58    1
    56    45    44    1
    57    28    25    1
    58    58    51   am
    59    35    34    2
    60    44    41    1
    61    52    51    2
    62    51    50    1
    63    41    42    1
    64    41    40    1
    65    49    42   am
    66    49    50    1
    67    25    24    1
    68    25    26    1
    69    34    40   am
    70    34    33    1
    71    42    43    2
    72    50    53    1
    73    32    26   am
    74    32    33    1
    75    26    27    2
    76    33    36    1
    77    53    54    1
    78    56    55    2
    79    36    37    1
    80    55    54    1
    81    55    57   am
    82    37    38    2
    83    37    39   am
