@<TRIPOS>MOLECULE
tmp/3e0mC00.pdb
 129 122 0 0 0
SMALL
GASTEIGER

@<TRIPOS>ATOM
      1  N         63.7950   65.4960   39.4790 N.3   191  ALA191     -0.1245
      2  CA        63.9190   64.0610   39.2770 C.3   191  ALA191      0.1562
      3  C         62.5970   63.3000   39.1690 C.2   191  ALA191      0.2260
      4  O         62.5160   62.1420   39.5650 O.2   191  ALA191     -0.2867
      5  CB        64.7890   63.4560   40.3790 C.3   191  ALA191      0.0290
      6  N         59.3340   61.5890   36.9610 N.3   193  THR193     -0.1203
      7  CA        59.3280   60.6750   35.8270 C.3   193  THR193      0.1994
      8  C         58.0450   60.8350   35.0270 C.2   193  THR193      0.2617
      9  O         56.9510   60.8000   35.5830 O.2   193  THR193     -0.2717
     10  CB        59.4210   59.2130   36.2930 C.3   193  THR193      0.1784
     11  OG1       60.5420   59.0580   37.1690 O.3   193  THR193     -0.2211
     12  CG2       59.5860   58.2890   35.0990 C.3   193  THR193      0.0376
     13  N         58.1820   61.0150   33.7220 N.am  194  GLU194     -0.1979
     14  CA        57.0350   61.1750   32.8410 C.3   194  GLU194      0.1602
     15  C         56.3230   59.8250   32.6980 C.2   194  GLU194      0.2287
     16  O         56.8940   58.7760   32.9990 O.2   194  GLU194     -0.2864
     17  CB        57.5040   61.6500   31.4680 C.3   194  GLU194      0.0415
     18  CG        58.2890   60.5910   30.7190 C.3   194  GLU194      0.1163
     19  CD        58.9770   61.1170   29.4630 C.2   194  GLU194      0.3649
     20  OE1       59.5580   60.2870   28.7230 O.co2 194  GLU194     -0.2457
     21  OE2       58.9450   62.3460   29.2240 O.co2 194  GLU194     -0.2457
     22  N         54.8820   56.4230   31.2220 N.3   196  PRO196     -0.2116
     23  CA        55.3660   55.2940   30.4340 C.3   196  PRO196      0.1372
     24  C         55.2680   55.2430   28.9050 C.2   196  PRO196      0.2244
     25  O         56.2780   55.0020   28.2540 O.2   196  PRO196     -0.2868
     26  CB        54.6560   54.1200   31.0830 C.3   196  PRO196      0.0268
     27  CG        54.7490   54.4770   32.5230 C.3   196  PRO196      0.0207
     28  CD        54.3830   55.9530   32.5300 C.3   196  PRO196      0.0892
     29  N         59.8230   54.1490   27.7510 N.3   232  TRP232     -0.1241
     30  CA        60.6260   55.3530   27.5430 C.3   232  TRP232      0.1605
     31  C         61.7260   55.1670   26.4980 C.2   232  TRP232      0.2264
     32  O         62.2410   54.0560   26.3100 O.2   232  TRP232     -0.2867
     33  CB        61.2760   55.7720   28.8600 C.3   232  TRP232      0.0550
     34  CG        60.2990   56.0290   29.9500 C.ar  232  TRP232      0.0003
     35  CD1       59.6420   57.1990   30.2050 C.ar  232  TRP232      0.0946
     36  CD2       59.8700   55.1000   30.9500 C.ar  232  TRP232      0.0152
     37  NE1       58.8350   57.0590   31.3080 N.ar  232  TRP232     -0.2442
     38  CE2       58.9520   55.7800   31.7860 C.ar  232  TRP232      0.0810
     39  CE3       60.1690   53.7550   31.2220 C.ar  232  TRP232      0.0012
     40  CZ2       58.3280   55.1620   32.8820 C.ar  232  TRP232      0.0191
     41  CZ3       59.5450   53.1370   32.3150 C.ar  232  TRP232      0.0001
     42  CH2       58.6370   53.8450   33.1300 C.ar  232  TRP232      0.0015
     43  N         64.6430   54.1560   45.3200 N.3   252  HIS252     -0.1241
     44  CA        63.2600   54.6570   45.2750 C.3   252  HIS252      0.1621
     45  C         62.3410   53.4780   45.6130 C.2   252  HIS252      0.2264
     46  O         61.1870   53.4080   45.1870 O.2   252  HIS252     -0.2867
     47  CB        62.9470   55.1670   43.8610 C.3   252  HIS252      0.0745
     48  CG        61.5750   55.7560   43.7030 C.ar  252  HIS252      0.0817
     49  ND1       61.2970   57.0830   43.9560 N.ar  252  HIS252     -0.2268
     50  CD2       60.4080   55.2000   43.3040 C.ar  252  HIS252      0.1154
     51  CE1       60.0200   57.3200   43.7190 C.ar  252  HIS252      0.1986
     52  NE2       59.4580   56.1930   43.3230 N.ar  252  HIS252     -0.2212
     53  N         63.8000   50.6050   45.2060 N.3   254  MET254     -0.1245
     54  CA        64.7230   49.6840   44.5720 C.3   254  MET254      0.1570
     55  C         66.1380   50.2580   44.5470 C.2   254  MET254      0.2261
     56  O         66.4250   51.2720   45.1850 O.2   254  MET254     -0.2867
     57  CB        64.2350   49.3770   43.1590 C.3   254  MET254      0.0387
     58  CG        63.6730   50.5810   42.4340 C.3   254  MET254      0.0595
     59  SD        62.4670   50.1350   41.1520 S.3   254  MET254     -0.1393
     60  CE        61.5170   51.6460   41.0740 C.3   254  MET254      0.0692
     61  N         68.8490   51.4580   41.8250 N.3   256  ARG256     -0.1245
     62  CA        69.1420   51.7500   40.4330 C.3   256  ARG256      0.1563
     63  C         70.3440   52.6720   40.2870 C.2   256  ARG256      0.2260
     64  O         71.0230   53.0050   41.2600 O.2   256  ARG256     -0.2867
     65  CB        67.9200   52.3940   39.7750 C.3   256  ARG256      0.0307
     66  CG        66.7070   51.4960   39.7330 C.3   256  ARG256      0.0489
     67  CD        65.4990   52.2360   39.2140 C.3   256  ARG256      0.2205
     68  NE        65.1160   53.3360   40.0890 N.pl3 256  ARG256     -0.0865
     69  CZ        64.2410   54.2770   39.7490 C.cat 256  ARG256      0.5346
     70  NH1       63.6670   54.2420   38.5510 N.pl3 256  ARG256      0.1354
     71  NH2       63.9410   55.2540   40.5970 N.pl3 256  ARG256      0.1354
     72  N         67.2350   60.1470   33.5560 N.3   269  GLY269     -0.1210
     73  CA        66.5270   58.9040   33.7830 C.3   269  GLY269      0.1956
     74  C         67.4330   57.9150   34.4840 C.2   269  GLY269      0.2611
     75  O         68.1060   58.2810   35.4430 O.2   269  GLY269     -0.2717
     76  N         67.4510   56.6700   34.0180 N.am  270  HIS270     -0.1975
     77  CA        68.3030   55.6450   34.6270 C.3   270  HIS270      0.1656
     78  C         68.9150   54.7260   33.5810 C.2   270  HIS270      0.2291
     79  O         68.4330   54.6380   32.4530 O.2   270  HIS270     -0.2864
     80  CB        67.5150   54.7830   35.6200 C.3   270  HIS270      0.0771
     81  CG        66.8510   55.5610   36.7100 C.ar  270  HIS270      0.0820
     82  ND1       65.7170   56.3160   36.4970 N.ar  270  HIS270     -0.2267
     83  CD2       67.1550   55.6970   38.0220 C.ar  270  HIS270      0.1154
     84  CE1       65.3500   56.8810   37.6340 C.ar  270  HIS270      0.1986
     85  NE2       66.2050   56.5220   38.5740 N.ar  270  HIS270     -0.2212
     86  N         70.1500   50.7740   32.7380 N.3   272  PHE272     -0.1241
     87  CA        70.0420   49.3770   33.1370 C.3   272  PHE272      0.1605
     88  C         70.9680   48.5230   32.2830 C.2   272  PHE272      0.2264
     89  O         71.4120   48.9660   31.2170 O.2   272  PHE272     -0.2867
     90  CB        68.5900   48.9070   32.9920 C.3   272  PHE272      0.0534
     91  CG        67.6020   49.7790   33.7190 C.ar  272  PHE272     -0.0203
     92  CD1       66.9330   50.7950   33.0520 C.ar  272  PHE272     -0.0042
     93  CD2       67.3980   49.6280   35.0880 C.ar  272  PHE272     -0.0042
     94  CE1       66.0840   51.6470   33.7370 C.ar  272  PHE272     -0.0003
     95  CE2       66.5470   50.4770   35.7860 C.ar  272  PHE272     -0.0003
     96  CZ        65.8890   51.4900   35.1140 C.ar  272  PHE272     -0.0000
     97  N         70.2660   45.5680   30.7440 N.3   274  ASP274     -0.1239
     98  CA        69.4530   44.5820   30.0460 C.3   274  ASP274      0.1674
     99  C         69.1680   45.0200   28.6180 C.2   274  ASP274      0.2266
    100  O         68.1200   44.6920   28.0630 O.2   274  ASP274     -0.2867
    101  CB        68.1250   44.3700   30.7780 C.3   274  ASP274      0.1410
    102  CG        67.2750   45.6210   30.8120 C.2   274  ASP274      0.3668
    103  OD1       67.6770   46.6320   30.1960 O.co2 274  ASP274     -0.2456
    104  OD2       66.2000   45.5930   31.4510 O.co2 274  ASP274     -0.2456
    105  N         71.0480   49.9630   28.7250 N.3   283  ARG283     -0.1245
    106  CA        69.8280   50.6300   28.3300 C.3   283  ARG283      0.1563
    107  C         69.7360   51.9710   29.0500 C.2   283  ARG283      0.2260
    108  O         69.4960   52.0250   30.2560 O.2   283  ARG283     -0.2867
    109  CB        68.5990   49.7790   28.6880 C.3   283  ARG283      0.0307
    110  CG        67.3970   49.9670   27.7570 C.3   283  ARG283      0.0489
    111  CD        66.0830   50.0990   28.5210 C.3   283  ARG283      0.2205
    112  NE        65.9310   49.1190   29.5980 N.pl3 283  ARG283     -0.0865
    113  CZ        65.0680   49.2600   30.6030 C.cat 283  ARG283      0.5346
    114  NH1       64.2850   50.3340   30.6580 N.pl3 283  ARG283      0.1354
    115  NH2       65.0010   48.3460   31.5640 N.pl3 283  ARG283      0.1354
    116  N         67.5920   54.4830   29.7680 N.3   285  CYS285     -0.1235
    117  CA        66.1660   54.7460   29.7800 C.3   285  CYS285      0.1677
    118  C         66.0350   56.2190   30.0940 C.2   285  CYS285      0.2270
    119  O         66.2410   56.6420   31.2320 O.2   285  CYS285     -0.2867
    120  CB        65.5030   53.9090   30.8630 C.3   285  CYS285      0.0956
    121  SG        63.7530   53.9030   30.7190 S.3   285  CYS285     -0.0801
    122  N         63.8940   60.0050   29.9080 N.3   287  ASN287     -0.1240
    123  CA        62.6320   60.7330   29.8300 C.3   287  ASN287      0.1653
    124  C         62.6200   61.5860   28.5630 C.2   287  ASN287      0.2266
    125  O         63.6450   62.1520   28.1800 O.2   287  ASN287     -0.2867
    126  CB        62.4870   61.6540   31.0320 C.3   287  ASN287      0.1155
    127  CG        62.0420   60.9270   32.2790 C.2   287  ASN287      0.2627
    128  OD1       60.8700   60.5930   32.4230 O.2   287  ASN287     -0.2716
    129  ND2       62.9720   60.6810   33.1890 N.am  287  ASN287     -0.0877
@<TRIPOS>BOND
     1    32    31    2
     2    31    30    1
     3    30    29    1
     4    30    33    1
     5   110   111    1
     6   110   109    1
     7   100    99    2
     8   125   124    2
     9    25    24    2
    10   106   109    1
    11   106   105    1
    12   106   107    1
    13   111   112    1
    14   124   123    1
    15    99    98    1
    16    20    19   ar
    17    33    34    1
    18    24    23    1
    19   107   108    2
    20    21    19   ar
    21    19    18    1
    22   112   113    2
    23   116   117    1
    24   117   118    1
    25   117   120    1
    26   123   122    1
    27   123   126    1
    28    34    35   ar
    29    34    36   ar
    30    98    97    1
    31    98   101    1
    32   118   119    2
    33   103   102   ar
    34    35    37   ar
    35    23    26    1
    36    23    22    1
    37   113   114    1
    38   113   115    1
    39   121   120    1
    40    18    17    1
    41   101   102    1
    42   102   104   ar
    43    36    39   ar
    44    36    38   ar
    45   126   127    1
    46    26    27    1
    47    89    88    2
    48    39    41   ar
    49    22    28    1
    50    37    38   ar
    51    17    14    1
    52    38    40   ar
    53   127   128    2
    54   127   129   am
    55    88    87    1
    56    41    42   ar
    57    79    78    2
    58    27    28    1
    59    15    14    1
    60    15    16    2
    61    86    87    1
    62    14    13    1
    63    40    42   ar
    64    90    87    1
    65    90    91    1
    66    92    91   ar
    67    92    94   ar
    68    72    73    1
    69    78    77    1
    70    91    93   ar
    71    13     8   am
    72    94    96   ar
    73    73    74    1
    74    76    74   am
    75    76    77    1
    76    74    75    2
    77    77    80    1
    78     8     9    2
    79     8     7    1
    80    93    95   ar
    81    12    10    1
    82    96    95   ar
    83    80    81    1
    84     7    10    1
    85     7     6    1
    86    10    11    1
    87    82    81   ar
    88    82    84   ar
    89    81    83   ar
    90    84    85   ar
    91    83    85   ar
    92    70    69    1
    93     3     2    1
    94     3     4    2
    95    67    66    1
    96    67    68    1
    97     2     1    1
    98     2     5    1
    99    66    65    1
   100    69    68    2
   101    69    71    1
   102    65    62    1
   103    63    62    1
   104    63    64    2
   105    62    61    1
   106    60    59    1
   107    59    58    1
   108    58    57    1
   109    57    54    1
   110    50    52   ar
   111    50    48   ar
   112    52    51   ar
   113    48    47    1
   114    48    49   ar
   115    51    49   ar
   116    47    44    1
   117    55    54    1
   118    55    56    2
   119    54    53    1
   120    46    45    2
   121    44    43    1
   122    44    45    1
