@<TRIPOS>MOLECULE
tmp/3e0nA00.pdb
 198 195 0 0 0
SMALL
GASTEIGER

@<TRIPOS>ATOM
      1  N         28.8430    0.6430   34.2130 N.3    25  VAL25      -0.1231
      2  CA        27.7900    0.9830   33.2590 C.3    25  VAL25       0.1692
      3  C         28.3270    1.5090   31.9390 C.2    25  VAL25       0.2592
      4  O         27.6460    1.4580   30.9010 O.2    25  VAL25      -0.2718
      5  CB        26.8030    2.0220   33.8290 C.3    25  VAL25       0.0266
      6  CG1       26.0250    1.4330   35.0070 C.3    25  VAL25       0.0020
      7  CG2       27.4950    3.3310   34.2390 C.3    25  VAL25       0.0020
      8  N         29.4980    2.0960   31.9590 N.am   26  CYS26      -0.1970
      9  CA        30.0060    2.7500   30.7420 C.3    26  CYS26       0.1712
     10  C         31.5130    2.8760   30.8020 C.2    26  CYS26       0.2296
     11  O         32.1350    2.6860   31.8780 O.2    26  CYS26      -0.2864
     12  CB        29.3570    4.1500   30.5560 C.3    26  CYS26       0.0983
     13  SG        27.6470    4.0960   29.9000 S.3    26  CYS26      -0.0798
     14  N         24.5640    9.7010   27.5390 N.3    41  HIS41      -0.1241
     15  CA        23.4400    8.8130   27.8440 C.3    41  HIS41       0.1621
     16  C         23.7300    7.9210   29.0560 C.2    41  HIS41       0.2264
     17  O         22.8010    7.3000   29.6040 O.2    41  HIS41      -0.2867
     18  CB        23.0120    8.0170   26.5970 C.3    41  HIS41       0.0745
     19  CG        23.8570    6.8160   26.3100 C.ar   41  HIS41       0.0817
     20  ND1       24.8050    6.8050   25.3100 N.ar   41  HIS41      -0.2268
     21  CD2       23.8930    5.5840   26.8800 C.ar   41  HIS41       0.1154
     22  CE1       25.3690    5.6070   25.2550 C.ar   41  HIS41       0.1986
     23  NE2       24.8130    4.8420   26.1820 N.ar   41  HIS41      -0.2212
     24  N         21.9190   17.3940   24.3640 N.3    82  TYR82      -0.1241
     25  CA        21.5300   16.0110   24.6000 C.3    82  TYR82       0.1605
     26  C         20.0780   15.8320   25.1790 C.2    82  TYR82       0.2264
     27  O         19.7300   16.4190   26.1800 O.2    82  TYR82      -0.2867
     28  CB        22.5040   15.3440   25.5610 C.3    82  TYR82       0.0534
     29  CG        22.1070   13.9100   25.7740 C.ar   82  TYR82      -0.0201
     30  CD1       22.2210   12.9990   24.7450 C.ar   82  TYR82      -0.0009
     31  CD2       21.5340   13.4990   26.9800 C.ar   82  TYR82      -0.0009
     32  CE1       21.8030   11.6900   24.9160 C.ar   82  TYR82       0.0417
     33  CE2       21.1350   12.1860   27.1680 C.ar   82  TYR82       0.0417
     34  CZ        21.2900   11.2920   26.1270 C.ar   82  TYR82       0.1957
     35  OH        20.8510   10.0000   26.3020 O.3    82  TYR82      -0.2866
     36  N         17.2240    9.2630   25.0410 N.3    85  GLU85      -0.1231
     37  CA        16.6780    8.4100   23.9760 C.3    85  GLU85       0.1699
     38  C         16.8180    9.0230   22.5550 C.2    85  GLU85       0.2593
     39  O         16.3480    8.4630   21.5530 O.2    85  GLU85      -0.2718
     40  CB        15.2290    8.0060   24.2860 C.3    85  GLU85       0.0402
     41  CG        15.0910    7.2940   25.6120 C.3    85  GLU85       0.1161
     42  CD        16.2050    6.2940   25.8320 C.2    85  GLU85       0.3649
     43  OE1       16.5190    5.5350   24.8840 O.co2  85  GLU85      -0.2457
     44  OE2       16.7780    6.2740   26.9510 O.co2  85  GLU85      -0.2457
     45  N         17.4660   10.1770   22.4910 N.am   86  GLY86      -0.1942
     46  CA        17.7810   10.8380   21.2310 C.3    86  GLY86       0.2014
     47  C         19.2630   10.6430   20.9060 C.2    86  GLY86       0.2639
     48  O         20.0840   10.3480   21.8250 O.2    86  GLY86      -0.2714
     49  N         19.6390   10.8000   19.6250 N.am   87  SER87      -0.1949
     50  CA        21.0050   10.5340   19.2460 C.3    87  SER87       0.1924
     51  C         21.9320   11.7510   19.4130 C.2    87  SER87       0.2314
     52  O         23.0530   11.5760   19.7500 O.2    87  SER87      -0.2863
     53  CB        21.0730    9.9700   17.8050 C.3    87  SER87       0.2116
     54  OG        20.4850   10.9410   16.9400 O.3    87  SER87      -0.2180
     55  N         25.6180   13.1200   22.2320 N.3    90  ASP90      -0.1239
     56  CA        25.8390   12.0570   23.2050 C.3    90  ASP90       0.1674
     57  C         27.2710   12.1500   23.7380 C.2    90  ASP90       0.2266
     58  O         28.1410   11.3880   23.3640 O.2    90  ASP90      -0.2867
     59  CB        25.5570   10.6820   22.6070 C.3    90  ASP90       0.1410
     60  CG        25.4480    9.6240   23.6850 C.2    90  ASP90       0.3668
     61  OD1       25.4370   10.0670   24.8670 O.co2  90  ASP90      -0.2456
     62  OD2       25.3050    8.4060   23.3500 O.co2  90  ASP90      -0.2456
     63  N         12.2310    3.7770   13.3500 N.3   168  GLU168     -0.1231
     64  CA        12.6280    3.8610   14.7530 C.3   168  GLU168      0.1699
     65  C         14.1550    3.8370   15.0140 C.2   168  GLU168      0.2592
     66  O         14.5890    4.0300   16.1360 O.2   168  GLU168     -0.2718
     67  CB        12.0110    2.7170   15.4900 C.3   168  GLU168      0.0402
     68  CG        12.6420    1.4130   15.1540 C.3   168  GLU168      0.1161
     69  CD        11.7040    0.3200   15.5810 C.2   168  GLU168      0.3649
     70  OE1       11.8130   -0.0990   16.7670 O.co2 168  GLU168     -0.2457
     71  OE2       10.8160   -0.0400   14.7550 O.co2 168  GLU168     -0.2457
     72  N         14.9480    3.6460   13.9630 N.am  169  GLU169     -0.1966
     73  CA        16.4030    3.6630   14.0890 C.3   169  GLU169      0.1718
     74  C         16.8390    5.1000   14.5020 C.2   169  GLU169      0.2458
     75  O         16.3520    6.0780   13.9400 O.2   169  GLU169     -0.2730
     76  CB        17.0350    3.3170   12.7600 C.3   169  GLU169      0.0428
     77  CG        18.5280    3.0880   12.8680 C.3   169  GLU169      0.1163
     78  CD        18.8140    1.7290   13.5670 C.2   169  GLU169      0.3649
     79  OE1       17.9320    0.8080   13.5700 O.co2 169  GLU169     -0.2457
     80  OE2       19.9520    1.5960   14.0360 O.co2 169  GLU169     -0.2457
     81  N         17.7460    5.2170   15.4850 N.am  170  PRO170     -0.2727
     82  CA        18.2240    6.5620   15.8020 C.3   170  PRO170      0.1402
     83  C         18.8230    7.2560   14.6070 C.2   170  PRO170      0.2269
     84  O         19.2750    6.6190   13.6500 O.2   170  PRO170     -0.2865
     85  CB        19.3040    6.3340   16.8770 C.3   170  PRO170      0.0296
     86  CG        18.8280    5.0360   17.5970 C.3   170  PRO170      0.0237
     87  CD        18.3140    4.1890   16.3810 C.3   170  PRO170      0.0939
     88  N         31.9880   -5.1700   16.8500 N.3   188  ASP188     -0.1225
     89  CA        31.4000   -3.8420   17.1550 C.3   188  ASP188      0.1805
     90  C         31.5920   -3.5740   18.6560 C.2   188  ASP188      0.2598
     91  O         31.9380   -4.4960   19.4330 O.2   188  ASP188     -0.2718
     92  CB        29.8900   -3.9590   16.8760 C.3   188  ASP188      0.1424
     93  CG        29.1650   -2.6100   16.7050 C.2   188  ASP188      0.3668
     94  OD1       29.7320   -1.4980   16.8410 O.co2 188  ASP188     -0.2456
     95  OD2       27.9660   -2.6920   16.4360 O.co2 188  ASP188     -0.2456
     96  N         31.3160   -2.3460   19.0600 N.am  189  ALA189     -0.1966
     97  CA        31.1200   -2.0550   20.4850 C.3   189  ALA189      0.1728
     98  C         29.6950   -2.4830   20.8170 C.2   189  ALA189      0.2616
     99  O         28.8660   -2.6710   19.9200 O.2   189  ALA189     -0.2715
    100  CB        31.2700   -0.5370   20.7640 C.3   189  ALA189      0.0334
    101  N         29.4100   -2.6480   22.1030 N.am  190  CYS190     -0.1954
    102  CA        28.0950   -3.1040   22.5390 C.3   190  CYS190      0.1843
    103  C         27.6290   -2.3590   23.7900 C.2   190  CYS190      0.2625
    104  O         28.3020   -1.4290   24.2790 O.2   190  CYS190     -0.2714
    105  CB        28.1650   -4.6000   22.8400 C.3   190  CYS190      0.0997
    106  SG        28.7690   -5.4660   21.3270 S.3   190  CYS190     -0.0797
    107  N         26.5030   -2.8120   24.3320 N.am  191  GLN191     -0.1963
    108  CA        26.0600   -2.2470   25.5870 C.3   191  GLN191      0.1733
    109  C         27.1770   -2.3290   26.6140 C.2   191  GLN191      0.2616
    110  O         27.8390   -3.3080   26.6890 O.2   191  GLN191     -0.2715
    111  CB        24.8550   -3.0000   26.1410 C.3   191  GLN191      0.0408
    112  CG        23.5900   -2.5460   25.4290 C.3   191  GLN191      0.0908
    113  CD        23.2330   -1.1060   25.7900 C.2   191  GLN191      0.2608
    114  OE1       23.7270   -0.5620   26.8060 O.2   191  GLN191     -0.2717
    115  NE2       22.3930   -0.4780   24.9700 N.am  191  GLN191     -0.0878
    116  N         27.3640   -1.2670   27.4080 N.am  192  GLY192     -0.1955
    117  CA        28.4200   -1.2460   28.4010 C.3   192  GLY192      0.1869
    118  C         29.7150   -0.6350   27.9070 C.2   192  GLY192      0.2309
    119  O         30.6200   -0.3360   28.6770 O.2   192  GLY192     -0.2863
    120  N         29.6300    2.2620   25.8890 N.3   194  SER194     -0.1217
    121  CA        29.4110    3.6830   25.6190 C.3   194  SER194      0.1889
    122  C         30.3490    4.5330   26.3910 C.2   194  SER194      0.2288
    123  O         30.6440    4.2690   27.5620 O.2   194  SER194     -0.2866
    124  CB        28.0250    4.1010   26.1190 C.3   194  SER194      0.2089
    125  OG        27.0870    3.4930   25.2410 O.3   194  SER194     -0.2183
    126  N         32.0250    6.0070   22.0040 N.3   212  VAL212     -0.1231
    127  CA        31.0150    4.9850   21.7030 C.3   212  VAL212      0.1692
    128  C         29.6630    5.5470   22.1030 C.2   212  VAL212      0.2593
    129  O         29.4670    5.9690   23.2670 O.2   212  VAL212     -0.2718
    130  CB        31.2450    3.7390   22.5150 C.3   212  VAL212      0.0266
    131  CG1       30.0580    2.7010   22.3380 C.3   212  VAL212      0.0020
    132  CG2       32.6350    3.0990   22.1140 C.3   212  VAL212      0.0020
    133  N         28.7140    5.5390   21.1710 N.am  213  SER213     -0.1938
    134  CA        27.4140    6.1320   21.4640 C.3   213  SER213      0.2055
    135  C         26.2680    5.1420   21.2720 C.2   213  SER213      0.2643
    136  O         25.4830    4.9030   22.1970 O.2   213  SER213     -0.2714
    137  CB        27.2170    7.4000   20.6460 C.3   213  SER213      0.2130
    138  OG        25.9430    7.9170   20.9230 O.3   213  SER213     -0.2179
    139  N         26.1410    4.5480   20.0800 N.am  214  TRP214     -0.1959
    140  CA        24.9760    3.7180   19.8140 C.3   214  TRP214      0.1771
    141  C         25.1780    2.8320   18.5800 C.2   214  TRP214      0.2620
    142  O         26.1720    2.9550   17.8550 O.2   214  TRP214     -0.2715
    143  CB        23.7090    4.5780   19.5900 C.3   214  TRP214      0.0590
    144  CG        23.7120    5.5370   18.4560 C.ar  214  TRP214      0.0006
    145  CD1       24.1830    6.8220   18.4780 C.ar  214  TRP214      0.0946
    146  CD2       23.1100    5.3480   17.1700 C.ar  214  TRP214      0.0152
    147  NE1       23.9220    7.4570   17.2810 N.ar  214  TRP214     -0.2442
    148  CE2       23.2920    6.5580   16.4510 C.ar  214  TRP214      0.0810
    149  CE3       22.4740    4.2470   16.5410 C.ar  214  TRP214      0.0012
    150  CZ2       22.8520    6.7170   15.1230 C.ar  214  TRP214      0.0191
    151  CZ3       22.0080    4.4020   15.2520 C.ar  214  TRP214      0.0001
    152  CH2       22.2060    5.6420   14.5570 C.ar  214  TRP214      0.0015
    153  N         24.2540    1.8880   18.4020 N.am  215  GLY215     -0.1940
    154  CA        24.2880    1.0150   17.2560 C.3   215  GLY215      0.2014
    155  C         23.1150    0.1060   17.4290 C.2   215  GLY215      0.2639
    156  O         22.1760    0.4550   18.1690 O.2   215  GLY215     -0.2714
    157  N         23.1350   -1.0470   16.7960 N.am  216  ASP216     -0.1957
    158  CA        22.0020   -1.9590   17.0240 C.3   216  ASP216      0.1840
    159  C         22.3880   -3.0120   18.0570 C.2   216  ASP216      0.2622
    160  O         23.1960   -2.7300   18.9630 O.2   216  ASP216     -0.2715
    161  CB        21.5400   -2.5740   15.6990 C.3   216  ASP216      0.1450
    162  CG        20.7370   -1.5910   14.8860 C.2   216  ASP216      0.3671
    163  OD1       20.6510   -0.4140   15.2890 O.co2 216  ASP216     -0.2456
    164  OD2       20.1030   -1.9940   13.8860 O.co2 216  ASP216     -0.2456
    165  N         21.8880   -4.2310   17.9240 N.am  217  ALA217     -0.1963
    166  CA        22.3150   -5.2590   18.8470 C.3   217  ALA217      0.1728
    167  C         23.7990   -5.5040   18.7000 C.2   217  ALA217      0.2616
    168  O         24.4050   -5.1540   17.6970 O.2   217  ALA217     -0.2715
    169  CB        21.5100   -6.5780   18.6290 C.3   217  ALA217      0.0334
    170  N         24.4040   -6.0500   19.7470 N.am  218  CYS218     -0.1968
    171  CA        25.8400   -6.2260   19.7820 C.3   218  CYS218      0.1712
    172  C         26.2870   -7.0160   18.5420 C.2   218  CYS218      0.2296
    173  O         25.9940   -8.2080   18.4350 O.2   218  CYS218     -0.2864
    174  CB        26.1820   -6.9960   21.1170 C.3   218  CYS218      0.0983
    175  SG        27.8590   -7.3260   21.4760 S.3   218  CYS218     -0.0798
    176  N         29.0310    0.3020   14.3210 N.3   225  GLY225     -0.1210
    177  CA        28.7570    1.1350   15.4940 C.3   225  GLY225      0.1956
    178  C         28.8500    2.6380   15.2160 C.2   225  GLY225      0.2612
    179  O         29.6530    3.1170   14.3620 O.2   225  GLY225     -0.2717
    180  N         28.0730    3.4090   15.9880 N.am  226  VAL226     -0.1965
    181  CA        28.0570    4.8640   15.8160 C.3   226  VAL226      0.1727
    182  C         28.7070    5.4960   17.0370 C.2   226  VAL226      0.2616
    183  O         28.4810    5.0440   18.1730 O.2   226  VAL226     -0.2715
    184  CB        26.6530    5.4180   15.6600 C.3   226  VAL226      0.0290
    185  CG1       26.6870    6.9300   15.3610 C.3   226  VAL226      0.0023
    186  CG2       25.9300    4.6960   14.4770 C.3   226  VAL226      0.0023
    187  N         29.4580    6.5460   16.7570 N.am  227  TYR227     -0.1974
    188  CA        30.2800    7.2210   17.7850 C.3   227  TYR227      0.1639
    189  C         30.0500    8.6870   17.7050 C.2   227  TYR227      0.2290
    190  O         29.8460    9.1900   16.6320 O.2   227  TYR227     -0.2864
    191  CB        31.7850    6.9610   17.4930 C.3   227  TYR227      0.0560
    192  CG        32.1450    5.4910   17.5200 C.ar  227  TYR227     -0.0198
    193  CD1       32.8450    4.9630   18.6300 C.ar  227  TYR227     -0.0009
    194  CD2       31.8130    4.6190   16.4620 C.ar  227  TYR227     -0.0009
    195  CE1       33.2240    3.6520   18.6720 C.ar  227  TYR227      0.0417
    196  CE2       32.1370    3.2710   16.5150 C.ar  227  TYR227      0.0417
    197  CZ        32.8500    2.7840   17.6310 C.ar  227  TYR227      0.1957
    198  OH        33.1400    1.4220   17.7400 O.3   227  TYR227     -0.2866
@<TRIPOS>BOND
     1    76    77    1
     2    76    73    1
     3    77    78    1
     4    63    64    1
     5    78    79   ar
     6    78    80   ar
     7    84    83    2
     8   164   162   ar
     9    75    74    2
    10    72    73    1
    11    72    65   am
    12    73    74    1
    13   176   177    1
    14   179   178    2
    15   186   184    1
    16    74    81   am
    17   152   150   ar
    18   152   151   ar
    19    83    82    1
    20    64    65    1
    21    64    67    1
    22    71    69   ar
    23   162   163   ar
    24   162   161    1
    25    65    66    2
    26   150   148   ar
    27    68    67    1
    28    68    69    1
    29   178   177    1
    30   178   180   am
    31   151   149   ar
    32   185   184    1
    33    81    82    1
    34    81    87    1
    35    69    70   ar
    36   184   181    1
    37   161   158    1
    38    82    85    1
    39   181   180    1
    40   181   182    1
    41    87    86    1
    42    95    93   ar
    43   148   146   ar
    44   148   147   ar
    45   194   196   ar
    46   194   192   ar
    47   196   197   ar
    48   149   146   ar
    49   190   189    2
    50    93    94   ar
    51    93    92    1
    52   187   182   am
    53   187   188    1
    54   157   158    1
    55   157   155   am
    56    88    89    1
    57    92    89    1
    58    85    86    1
    59    54    53    1
    60   158   159    1
    61   182   183    2
    62    89    90    1
    63   146   144   ar
    64   154   155    1
    65   154   153    1
    66   147   145   ar
    67   155   156    2
    68   191   192    1
    69   191   188    1
    70   192   193   ar
    71   197   198    1
    72   197   195   ar
    73   168   167    2
    74   189   188    1
    75    53    50    1
    76   142   141    2
    77   165   159   am
    78   165   166    1
    79   159   160    2
    80   153   141   am
    81   173   172    2
    82   144   145   ar
    83   144   143    1
    84   172   171    1
    85   141   140    1
    86   169   166    1
    87   193   195   ar
    88    90    96   am
    89    90    91    2
    90   167   166    1
    91   167   170   am
    92    96    97    1
    93    50    51    1
    94    50    49    1
    95    51    52    2
    96   143   140    1
    97    49    47   am
    98   170   171    1
    99   171   174    1
   100   140   139    1
   101    99    98    2
   102   139   135   am
   103    97   100    1
   104    97    98    1
   105   137   138    1
   106   137   134    1
   107    98   101   am
   108    47    46    1
   109    47    48    2
   110   174   175    1
   111   133   134    1
   112   133   128   am
   113    46    45    1
   114   135   134    1
   115   135   136    2
   116   106   175    1
   117   106   105    1
   118    39    38    2
   119   127   126    1
   120   127   128    1
   121   127   130    1
   122   101   102    1
   123   128   129    2
   124   132   130    1
   125    55    56    1
   126   131   130    1
   127    45    38   am
   128   102   105    1
   129   102   103    1
   130    38    37    1
   131    59    56    1
   132    59    60    1
   133    56    57    1
   134    62    60   ar
   135    58    57    2
   136    60    61   ar
   137   103   104    2
   138   103   107   am
   139    37    40    1
   140    37    36    1
   141    40    41    1
   142   107   108    1
   143    24    25    1
   144    25    26    1
   145    25    28    1
   146    30    32   ar
   147    30    29   ar
   148    43    42   ar
   149    32    34   ar
   150   115   113   am
   151    26    27    2
   152   125   124    1
   153    22    20   ar
   154    22    23   ar
   155    20    19   ar
   156   112   113    1
   157   112   111    1
   158    28    29    1
   159   108   111    1
   160   108   109    1
   161    41    42    1
   162   121   120    1
   163   121   124    1
   164   121   122    1
   165    29    31   ar
   166   113   114    2
   167    42    44   ar
   168    34    35    1
   169    34    33   ar
   170    23    21   ar
   171    19    18    1
   172    19    21   ar
   173   122   123    2
   174    18    15    1
   175   109   110    2
   176   109   116   am
   177    31    33   ar
   178   116   117    1
   179    14    15    1
   180    15    16    1
   181   118   117    1
   182   118   119    2
   183    16    17    2
   184    13    12    1
   185    12     9    1
   186     9    10    1
   187     9     8    1
   188    10    11    2
   189     4     3    2
   190     3     8   am
   191     3     2    1
   192     2     5    1
   193     2     1    1
   194     5     7    1
   195     5     6    1
