@<TRIPOS>MOLECULE
tmp/3e0qB00.pdb
 81 76 0 0 0
SMALL
GASTEIGER

@<TRIPOS>ATOM
      1  N         13.6860   28.5510   46.5480 N.3   112  ALA112     -0.1231
      2  CA        12.6870   29.4670   46.0300 C.3   112  ALA112      0.1694
      3  C         12.4120   29.0300   44.6070 C.2   112  ALA112      0.2592
      4  O         13.3340   28.6190   43.9120 O.2   112  ALA112     -0.2718
      5  CB        13.2190   30.8860   46.0510 C.3   112  ALA112      0.0304
      6  N         11.1540   29.1220   44.1710 N.am  113  ALA113     -0.1966
      7  CA        10.7750   28.6840   42.8350 C.3   113  ALA113      0.1728
      8  C          9.6690   29.5530   42.2380 C.2   113  ALA113      0.2616
      9  O          8.9370   30.2130   42.9650 O.2   113  ALA113     -0.2715
     10  CB        10.3410   27.1870   42.8500 C.3   113  ALA113      0.0334
     11  N          9.5420   29.5310   40.9140 N.am  114  GLY114     -0.1955
     12  CA         8.4100   30.1720   40.2530 C.3   114  GLY114      0.1869
     13  C          7.2280   29.2120   40.2130 C.2   114  GLY114      0.2309
     14  O          7.3950   28.0310   39.9340 O.2   114  GLY114     -0.2863
     15  N         15.5000   34.0030   33.9640 N.3   196  TYR196     -0.1227
     16  CA        14.1420   33.6300   34.3120 C.3   196  TYR196      0.1736
     17  C         13.4540   33.1030   33.0640 C.2   196  TYR196      0.2595
     18  O         13.8960   33.3750   31.9440 O.2   196  TYR196     -0.2718
     19  CB        13.3920   34.8070   34.9170 C.3   196  TYR196      0.0548
     20  CG        13.8510   35.0580   36.3250 C.ar  196  TYR196     -0.0200
     21  CD1       14.2950   36.3080   36.7280 C.ar  196  TYR196     -0.0009
     22  CD2       13.9030   34.0120   37.2440 C.ar  196  TYR196     -0.0009
     23  CE1       14.7250   36.5250   38.0290 C.ar  196  TYR196      0.0417
     24  CE2       14.3410   34.2150   38.5380 C.ar  196  TYR196      0.0417
     25  CZ        14.7490   35.4710   38.9260 C.ar  196  TYR196      0.1957
     26  OH        15.1890   35.6580   40.2160 O.3   196  TYR196     -0.2866
     27  N         12.4040   32.3100   33.2590 N.am  197  GLU197     -0.1979
     28  CA        11.7450   31.6180   32.1590 C.3   197  GLU197      0.1602
     29  C         10.7770   32.5170   31.3830 C.2   197  GLU197      0.2287
     30  O         10.0090   33.2790   31.9810 O.2   197  GLU197     -0.2864
     31  CB        11.0030   30.3920   32.6900 C.3   197  GLU197      0.0415
     32  CG        11.8890   29.4090   33.4600 C.3   197  GLU197      0.1163
     33  CD        12.2030   29.8440   34.8850 C.2   197  GLU197      0.3649
     34  OE1       11.4900   30.7080   35.4520 O.co2 197  GLU197     -0.2457
     35  OE2       13.1640   29.2920   35.4550 O.co2 197  GLU197     -0.2457
     36  N          7.4020   28.8760   30.2470 N.3   202  CYS202     -0.1235
     37  CA         6.5740   28.5240   31.3880 C.3   202  CYS202      0.1677
     38  C          5.3660   27.7080   30.9340 C.2   202  CYS202      0.2270
     39  O          5.0140   26.7320   31.5820 O.2   202  CYS202     -0.2867
     40  CB         6.1410   29.7720   32.1800 C.3   202  CYS202      0.0956
     41  SG         7.4900   30.6220   33.0320 S.3   202  CYS202     -0.0801
     42  N          9.1650   25.8390   39.0770 N.3   213  VAL213     -0.1231
     43  CA        10.4260   25.8360   38.3460 C.3   213  VAL213      0.1692
     44  C         11.5040   26.5820   39.1100 C.2   213  VAL213      0.2593
     45  O         11.2540   27.6290   39.7100 O.2   213  VAL213     -0.2718
     46  CB        10.2780   26.4370   36.9250 C.3   213  VAL213      0.0266
     47  CG1        9.7950   27.8810   36.9950 C.3   213  VAL213      0.0020
     48  CG2       11.6000   26.3530   36.1460 C.3   213  VAL213      0.0020
     49  N         12.7100   26.0460   39.0840 N.am  214  GLY214     -0.1942
     50  CA        13.8180   26.6730   39.7840 C.3   214  GLY214      0.2014
     51  C         15.1090   26.2570   39.1140 C.2   214  GLY214      0.2638
     52  O         15.0810   25.4720   38.1700 O.2   214  GLY214     -0.2714
     53  N         16.2420   26.7520   39.6090 N.am  215  MET215     -0.1976
     54  CA        17.5280   26.5010   38.9550 C.3   215  MET215      0.1605
     55  C         18.4620   25.6630   39.8090 C.2   215  MET215      0.2287
     56  O         19.6650   25.6220   39.5680 O.2   215  MET215     -0.2864
     57  CB        18.2260   27.8200   38.6410 C.3   215  MET215      0.0413
     58  CG        17.4930   28.7160   37.6760 C.3   215  MET215      0.0598
     59  SD        18.2260   30.3600   37.7110 S.3   215  MET215     -0.1393
     60  CE        17.5930   30.9570   39.2710 C.3   215  MET215      0.0692
     61  N          7.9280   32.0120   45.1950 N.3   238  THR238     -0.1203
     62  CA         8.3010   33.4180   45.3970 C.3   238  THR238      0.1994
     63  C          7.8810   34.3290   44.2520 C.2   238  THR238      0.2617
     64  O          8.1600   35.5260   44.2640 O.2   238  THR238     -0.2717
     65  CB         9.8000   33.5760   45.6160 C.3   238  THR238      0.1784
     66  OG1       10.4940   32.8940   44.5610 O.3   238  THR238     -0.2211
     67  CG2       10.2050   32.9980   46.9840 C.3   238  THR238      0.0376
     68  N          7.2330   33.7530   43.2520 N.am  239  ASN239     -0.1974
     69  CA         6.5500   34.5350   42.2430 C.3   239  ASN239      0.1688
     70  C          5.7170   33.6040   41.4120 C.2   239  ASN239      0.2292
     71  O          5.9770   32.3980   41.3710 O.2   239  ASN239     -0.2864
     72  CB         7.5260   35.2670   41.3380 C.3   239  ASN239      0.1181
     73  CG         8.4530   34.3310   40.6350 C.2   239  ASN239      0.2629
     74  OD1        9.4520   33.9010   41.2040 O.2   239  ASN239     -0.2716
     75  ND2        8.1270   33.9920   39.3920 N.am  239  ASN239     -0.0877
     76  N          4.5600   32.5590   37.8000 N.3   241  SER241     -0.1217
     77  CA         5.0010   32.6140   36.4130 C.3   241  SER241      0.1889
     78  C          3.9610   33.2670   35.5080 C.2   241  SER241      0.2288
     79  O          2.7690   32.9930   35.6280 O.2   241  SER241     -0.2866
     80  CB         5.3020   31.1930   35.9160 C.3   241  SER241      0.2089
     81  OG         6.2720   30.6030   36.7550 O.3   241  SER241     -0.2183
@<TRIPOS>BOND
     1    36    37    1
     2    38    37    1
     3    38    39    2
     4    29    30    2
     5    29    28    1
     6    37    40    1
     7    18    17    2
     8    28    31    1
     9    28    27    1
    10    40    41    1
    11    31    32    1
    12    17    27   am
    13    17    16    1
    14    32    33    1
    15    15    16    1
    16    16    19    1
    17    33    34   ar
    18    33    35   ar
    19    19    20    1
    20    78    79    2
    21    78    77    1
    22    80    77    1
    23    80    81    1
    24    48    46    1
    25    20    21   ar
    26    20    22   ar
    27    77    76    1
    28    21    23   ar
    29    46    47    1
    30    46    43    1
    31    22    24   ar
    32    58    59    1
    33    58    57    1
    34    59    60    1
    35    23    25   ar
    36    52    51    2
    37    43    42    1
    38    43    44    1
    39    24    25   ar
    40    57    54    1
    41    25    26    1
    42    54    53    1
    43    54    55    1
    44    49    44   am
    45    49    50    1
    46    44    45    2
    47    51    53   am
    48    51    50    1
    49    75    73   am
    50    56    55    2
    51    14    13    2
    52    13    12    1
    53    12    11    1
    54    73    74    2
    55    73    72    1
    56    11     8   am
    57    72    69    1
    58    71    70    2
    59    70    69    1
    60     8     7    1
    61     8     9    2
    62    69    68    1
    63     7    10    1
    64     7     6    1
    65    68    63   am
    66     4     3    2
    67     6     3   am
    68    63    64    2
    69    63    62    1
    70    66    65    1
    71     3     2    1
    72    61    62    1
    73    62    65    1
    74    65    67    1
    75     2     5    1
    76     2     1    1
