@<TRIPOS>MOLECULE
tmp/3e0xA00.pdb
 116 109 0 0 0
SMALL
GASTEIGER

@<TRIPOS>ATOM
      1  N          3.9430   22.7080   64.8450 N.3    23  GLY23      -0.1210
      2  CA         4.4790   21.4600   65.3810 C.3    23  GLY23       0.1956
      3  C          5.5690   21.6390   66.4210 C.2    23  GLY23       0.2612
      4  O          5.6970   22.6950   67.0680 O.2    23  GLY23      -0.2717
      5  N          6.3360   20.5680   66.5950 N.am   24  SER24      -0.1952
      6  CA         7.3240   20.4750   67.6500 C.3    24  SER24       0.1924
      7  C          8.3940   21.5280   67.4980 C.2    24  SER24       0.2314
      8  O          8.9800   21.6820   66.4100 O.2    24  SER24      -0.2863
      9  CB         8.0040   19.1190   67.5620 C.3    24  SER24       0.2116
     10  OG         7.0230   18.1150   67.6560 O.3    24  SER24      -0.2180
     11  N          8.5120   24.5900   67.1010 N.3    26  CYS26      -0.1235
     12  CA         8.3510   25.7680   66.2540 C.3    26  CYS26       0.1677
     13  C          7.1800   26.6140   66.7140 C.2    26  CYS26       0.2270
     14  O          6.8270   26.5550   67.8620 O.2    26  CYS26      -0.2867
     15  CB         8.3580   25.4390   64.7680 C.3    26  CYS26       0.0956
     16  SG         7.1560   24.2540   64.2480 S.3    26  CYS26      -0.0801
     17  N          6.1580   29.0720   61.0380 N.3    30  ILE30      -0.1245
     18  CA         6.5160   27.9780   60.1450 C.3    30  ILE30       0.1561
     19  C          5.5720   27.8920   58.9450 C.2    30  ILE30       0.2260
     20  O          5.9160   27.2890   57.9170 O.2    30  ILE30      -0.2867
     21  CB         6.5660   26.6150   60.9150 C.3    30  ILE30       0.0252
     22  CG1        7.4300   25.5820   60.1550 C.3    30  ILE30       0.0019
     23  CG2        5.1300   26.0670   61.2180 C.3    30  ILE30       0.0019
     24  CD1        8.9020   25.9390   60.0430 C.3    30  ILE30       0.0001
     25  N          0.3810   20.6900   61.6370 N.3    90  TYR90      -0.1227
     26  CA         1.6560   20.2200   61.1160 C.3    90  TYR90       0.1736
     27  C          2.4800   19.5240   62.1840 C.2    90  TYR90       0.2596
     28  O          2.5660   20.0360   63.2940 O.2    90  TYR90      -0.2718
     29  CB         2.4410   21.4630   60.6550 C.3    90  TYR90       0.0548
     30  CG         3.9260   21.2660   60.4130 C.ar   90  TYR90      -0.0200
     31  CD1        4.4020   20.2920   59.5220 C.ar   90  TYR90      -0.0009
     32  CD2        4.8620   22.0560   61.0790 C.ar   90  TYR90      -0.0009
     33  CE1        5.7780   20.1210   59.2670 C.ar   90  TYR90       0.0417
     34  CE2        6.2480   21.8750   60.8710 C.ar   90  TYR90       0.0417
     35  CZ         6.6980   20.9230   59.9550 C.ar   90  TYR90       0.1957
     36  OH         8.0440   20.7630   59.7180 O.3    90  TYR90      -0.2866
     37  N          3.1180   18.3940   61.8420 N.am   91  SER91      -0.1952
     38  CA         4.0240   17.7500   62.7820 C.3    91  SER91       0.1924
     39  C          3.2300   17.3510   64.0470 C.2    91  SER91       0.2314
     40  O          2.1650   16.7250   63.9240 O.2    91  SER91      -0.2863
     41  CB         5.2500   18.6730   62.9920 C.3    91  SER91       0.2116
     42  OG         5.9100   18.5600   64.2470 O.3    91  SER91      -0.2180
     43  N         18.1060   16.6580   62.9060 N.3   139  LEU139     -0.1245
     44  CA        16.9930   17.5430   62.5840 C.3   139  LEU139      0.1561
     45  C         17.1320   18.0840   61.1550 C.2   139  LEU139      0.2260
     46  O         16.1760   18.0920   60.3690 O.2   139  LEU139     -0.2867
     47  CB        16.9270   18.6780   63.5930 C.3   139  LEU139      0.0270
     48  CG        15.6900   19.5460   63.5340 C.3   139  LEU139      0.0019
     49  CD1       14.4500   18.6820   63.6950 C.3   139  LEU139      0.0001
     50  CD2       15.7750   20.5690   64.6340 C.3   139  LEU139      0.0001
     51  N         16.2470   15.5600   58.6400 N.3   142  CYS142     -0.1221
     52  CA        14.7980   15.3370   58.5630 C.3   142  CYS142      0.1808
     53  C         14.0950   16.3870   57.7290 C.2   142  CYS142      0.2601
     54  O         13.0920   16.1110   57.0720 O.2   142  CYS142     -0.2717
     55  CB        14.1720   15.2760   59.9540 C.3   142  CYS142      0.0970
     56  SG        14.6060   13.7620   60.8550 S.3   142  CYS142     -0.0800
     57  N         14.5920   17.6110   57.7690 N.am  143  ILE143     -0.1979
     58  CA        13.9410   18.6740   56.9940 C.3   143  ILE143      0.1595
     59  C         14.4900   18.7710   55.5810 C.2   143  ILE143      0.2287
     60  O         13.9770   19.5430   54.7710 O.2   143  ILE143     -0.2864
     61  CB        13.9560   20.0700   57.7010 C.3   143  ILE143      0.0276
     62  CG1       15.3810   20.6480   57.7250 C.3   143  ILE143      0.0022
     63  CG2       13.2950   19.9550   59.0870 C.3   143  ILE143      0.0022
     64  CD1       15.4960   22.0710   57.2200 C.3   143  ILE143      0.0001
     65  N         12.5490   28.3420   64.1080 N.3   158  LEU158     -0.1245
     66  CA        12.3370   27.3740   65.1690 C.3   158  LEU158      0.1561
     67  C         12.6920   28.0300   66.5020 C.2   158  LEU158      0.2260
     68  O         13.5290   28.9410   66.5620 O.2   158  LEU158     -0.2867
     69  CB        13.1960   26.1380   64.9770 C.3   158  LEU158      0.0270
     70  CG        12.5340   24.9850   64.2260 C.3   158  LEU158      0.0019
     71  CD1       11.8670   25.3490   62.9000 C.3   158  LEU158      0.0001
     72  CD2       13.5490   23.8440   64.0430 C.3   158  LEU158      0.0001
     73  N          9.1640   16.7210   71.4510 N.3   168  LEU168     -0.1245
     74  CA         9.4760   15.3840   70.9100 C.3   168  LEU168      0.1561
     75  C          9.1290   14.2810   71.9040 C.2   168  LEU168      0.2260
     76  O          8.6760   13.2050   71.5020 O.2   168  LEU168     -0.2867
     77  CB        10.9420   15.2820   70.4790 C.3   168  LEU168      0.0270
     78  CG        11.2900   16.0750   69.2180 C.3   168  LEU168      0.0019
     79  CD1       12.7980   16.1610   69.0100 C.3   168  LEU168      0.0001
     80  CD2       10.5810   15.5330   67.9780 C.3   168  LEU168      0.0001
     81  N         11.0800   11.4210   59.6720 N.3   197  LEU197     -0.1231
     82  CA        10.5610   11.7590   60.9880 C.3   197  LEU197      0.1693
     83  C          9.1070   11.3670   61.1130 C.2   197  LEU197      0.2592
     84  O          8.8080   10.3930   61.8050 O.2   197  LEU197     -0.2718
     85  CB        10.7770   13.2500   61.2710 C.3   197  LEU197      0.0284
     86  CG        10.4860   13.7440   62.6880 C.3   197  LEU197      0.0019
     87  CD1       11.5050   13.1710   63.6920 C.3   197  LEU197      0.0001
     88  CD2       10.5120   15.2730   62.7070 C.3   197  LEU197      0.0001
     89  N          8.2000   12.0810   60.4310 N.am  198  THR198     -0.1953
     90  CA         6.7830   11.6760   60.4210 C.3   198  THR198      0.1897
     91  C          6.5790   10.8010   59.1690 C.2   198  THR198      0.2313
     92  O          6.2100   11.2720   58.0960 O.2   198  THR198     -0.2863
     93  CB         5.8640   12.8910   60.4790 C.3   198  THR198      0.1794
     94  OG1        6.1350   13.7610   59.3800 O.3   198  THR198     -0.2208
     95  CG2        6.1190   13.6610   61.7910 C.3   198  THR198      0.0378
     96  N         10.4740   16.7520   55.7910 N.3   223  HIS223     -0.1226
     97  CA         9.6160   17.3430   56.8260 C.3   223  HIS223      0.1752
     98  C          9.3330   18.8330   56.5740 C.2   223  HIS223      0.2596
     99  O          8.4570   19.4320   57.2250 O.2   223  HIS223     -0.2718
    100  CB        10.2140   17.0970   58.2170 C.3   223  HIS223      0.0759
    101  CG         9.2210   17.1750   59.3230 C.ar  223  HIS223      0.0818
    102  ND1        8.0910   16.3910   59.3590 N.ar  223  HIS223     -0.2268
    103  CD2        9.2190   17.9050   60.4620 C.ar  223  HIS223      0.1154
    104  CE1        7.4090   16.6750   60.4580 C.ar  223  HIS223      0.1986
    105  NE2        8.0740   17.5860   61.1450 N.ar  223  HIS223     -0.2212
    106  N         10.0770   19.4280   55.6380 N.am  224  PHE224     -0.1976
    107  CA         9.8270   20.8210   55.2460 C.3   224  PHE224      0.1639
    108  C          9.0050   20.9170   53.9630 C.2   224  PHE224      0.2290
    109  O          9.0170   21.9420   53.2980 O.2   224  PHE224     -0.2864
    110  CB        11.1430   21.6150   55.1520 C.3   224  PHE224      0.0560
    111  CG        11.3950   22.5280   56.3350 C.ar  224  PHE224     -0.0200
    112  CD1       10.8310   22.2830   57.5930 C.ar  224  PHE224     -0.0042
    113  CD2       12.2660   23.6090   56.1890 C.ar  224  PHE224     -0.0042
    114  CE1       11.1180   23.1240   58.6750 C.ar  224  PHE224     -0.0003
    115  CE2       12.5450   24.4590   57.2470 C.ar  224  PHE224     -0.0003
    116  CZ        11.9820   24.2260   58.4990 C.ar  224  PHE224     -0.0000
@<TRIPOS>BOND
     1   109   108    2
     2   108   107    1
     3    60    59    2
     4   110   107    1
     5   110   111    1
     6   107   106    1
     7    59    58    1
     8   106    98   am
     9    96    97    1
    10   113   111   ar
    11   113   115   ar
    12   111   112   ar
    13    98    97    1
    14    98    99    2
    15    97   100    1
    16    58    61    1
    17    58    57    1
    18    54    53    2
    19    64    62    1
    20   115   116   ar
    21   112   114   ar
    22    61    62    1
    23    61    63    1
    24    53    57   am
    25    53    52    1
    26    20    19    2
    27    92    91    2
    28   100   101    1
    29   116   114   ar
    30    52    51    1
    31    52    55    1
    32    19    18    1
    33    91    90    1
    34    33    31   ar
    35    33    35   ar
    36   101   102   ar
    37   101   103   ar
    38   102   104   ar
    39    94    93    1
    40    31    30   ar
    41    81    82    1
    42    36    35    1
    43    55    56    1
    44    35    34   ar
    45    24    22    1
    46    18    21    1
    47    18    17    1
    48    22    21    1
    49    46    45    2
    50    30    29    1
    51    30    32   ar
    52    90    89    1
    53    90    93    1
    54    89    83   am
    55   104   105   ar
    56   103   105   ar
    57    93    95    1
    58    29    26    1
    59    34    32   ar
    60    21    23    1
    61    82    83    1
    62    82    85    1
    63    83    84    2
    64    26    25    1
    65    26    27    1
    66    45    44    1
    67    85    86    1
    68    37    27   am
    69    37    38    1
    70    27    28    2
    71    44    43    1
    72    44    47    1
    73    86    88    1
    74    86    87    1
    75    38    41    1
    76    38    39    1
    77    71    70    1
    78    41    42    1
    79    48    47    1
    80    48    49    1
    81    48    50    1
    82    40    39    2
    83    72    70    1
    84    65    66    1
    85    70    69    1
    86    16    15    1
    87    15    12    1
    88     1     2    1
    89    69    66    1
    90    66    67    1
    91     2     3    1
    92    12    13    1
    93    12    11    1
    94     8     7    2
    95     3     5   am
    96     3     4    2
    97    67    68    2
    98     5     6    1
    99    13    14    2
   100     7     6    1
   101     9     6    1
   102     9    10    1
   103    80    78    1
   104    79    78    1
   105    78    77    1
   106    77    74    1
   107    74    73    1
   108    74    75    1
   109    76    75    2
