@<TRIPOS>MOLECULE
tmp/3e10B00.pdb
 66 64 0 0 0
SMALL
GASTEIGER

@<TRIPOS>ATOM
      1  N         34.0900   12.4780   74.4520 N.3    30  GLN30      -0.1231
      2  CA        35.2210   12.8210   73.6000 C.3    30  GLN30       0.1698
      3  C         34.8700   13.7570   72.4540 C.2    30  GLN30       0.2592
      4  O         35.7410   14.1170   71.6640 O.2    30  GLN30      -0.2718
      5  CB        35.8610   11.5510   73.0280 C.3    30  GLN30       0.0381
      6  CG        36.5220   10.6710   74.0380 C.3    30  GLN30       0.0905
      7  CD        37.5910   11.3440   74.8530 C.2    30  GLN30       0.2608
      8  OE1       37.5070   11.3880   76.0920 O.2    30  GLN30      -0.2717
      9  NE2       38.5970   11.9020   74.1780 N.am   30  GLN30      -0.0878
     10  N         33.6220   14.1910   72.3540 N.am   31  ALA31      -0.1966
     11  CA        33.2320   15.0930   71.2800 C.3    31  ALA31       0.1713
     12  C         33.9110   16.4470   71.3770 C.2    31  ALA31       0.2458
     13  O         34.2590   16.9200   72.4760 O.2    31  ALA31      -0.2730
     14  CB        31.7180   15.2550   71.2580 C.3    31  ALA31       0.0333
     15  N         34.1000   17.0800   70.2240 N.am   32  PRO32      -0.2716
     16  CA        34.5400   18.4500   70.2490 C.3    32  PRO32       0.1536
     17  C         33.4170   19.3210   70.8210 C.2    32  PRO32       0.2599
     18  O         32.2460   18.9320   70.8230 O.2    32  PRO32      -0.2715
     19  CB        34.7970   18.7740   68.7830 C.3    32  PRO32       0.0310
     20  CG        33.8070   17.9250   68.0680 C.3    32  PRO32       0.0237
     21  CD        33.8130   16.6110   68.8520 C.3    32  PRO32       0.0939
     22  N         33.7710   20.5160   71.2950 N.am   33  SER33      -0.1936
     23  CA        32.7660   21.4560   71.7940 C.3    33  SER33       0.2055
     24  C         33.2970   22.8620   71.7000 C.2    33  SER33       0.2643
     25  O         34.4960   23.0940   71.8640 O.2    33  SER33      -0.2714
     26  CB        32.3010   21.1170   73.2100 C.3    33  SER33       0.2130
     27  OG        33.3160   21.2000   74.1970 O.3    33  SER33      -0.2179
     28  N         32.4170   23.7930   71.3770 N.am   34  ALA34      -0.1963
     29  CA        32.8240   25.2010   71.2300 C.3    34  ALA34       0.1728
     30  C         33.4610   25.6680   72.5210 C.2    34  ALA34       0.2617
     31  O         32.9210   25.4690   73.6190 O.2    34  ALA34      -0.2715
     32  CB        31.6200   26.0610   70.8470 C.3    34  ALA34       0.0334
     33  N         34.6370   26.2840   72.4100 N.am   35  GLY35      -0.1940
     34  CA        35.3160   26.7280   73.6330 C.3    35  GLY35       0.2014
     35  C         35.7760   25.6160   74.5770 C.2    35  GLY35       0.2638
     36  O         36.0970   25.8800   75.7180 O.2    35  GLY35      -0.2714
     37  N         35.7680   24.3600   74.1190 N.am   36  ASN36      -0.1972
     38  CA        35.9340   23.2140   74.9810 C.3    36  ASN36       0.1688
     39  C         34.9790   23.2580   76.1970 C.2    36  ASN36       0.2292
     40  O         35.3360   22.8210   77.2970 O.2    36  ASN36      -0.2864
     41  CB        37.3840   23.1040   75.4790 C.3    36  ASN36       0.1181
     42  CG        37.7060   21.7490   76.0940 C.2    36  ASN36       0.2629
     43  OD1       37.1560   20.7110   75.7120 O.2    36  ASN36      -0.2716
     44  ND2       38.6130   21.7550   77.0750 N.am   36  ASN36      -0.0877
     45  N         25.2670   22.3150   68.7020 N.3    86  GLN86      -0.1231
     46  CA        26.2680   21.6960   67.8390 C.3    86  GLN86       0.1698
     47  C         27.1640   20.7670   68.6280 C.2    86  GLN86       0.2592
     48  O         27.4400   19.6430   68.1870 O.2    86  GLN86      -0.2718
     49  CB        27.0810   22.7910   67.1300 C.3    86  GLN86       0.0381
     50  CG        26.1940   23.6560   66.2160 C.3    86  GLN86       0.0905
     51  CD        26.9310   24.8070   65.5620 C.2    86  GLN86       0.2608
     52  OE1       28.1180   24.6890   65.2490 O.2    86  GLN86      -0.2717
     53  NE2       26.2300   25.9420   65.3690 N.am   86  GLN86      -0.0878
     54  N         27.6040   21.2220   69.7940 N.am   87  ASP87      -0.1974
     55  CA        28.3620   20.3840   70.6930 C.3    87  ASP87       0.1709
     56  C         27.5990   19.0720   70.9750 C.2    87  ASP87       0.2293
     57  O         28.1740   17.9990   70.9660 O.2    87  ASP87      -0.2864
     58  CB        28.5350   21.0570   72.0510 C.3    87  ASP87       0.1436
     59  CG        29.2710   22.3820   72.0190 C.2    87  ASP87       0.3671
     60  OD1       29.8650   22.7390   70.9670 O.co2  87  ASP87      -0.2456
     61  OD2       29.2770   23.0300   73.1150 O.co2  87  ASP87      -0.2456
     62  N         27.4030   16.6950   68.0980 N.3    89  ALA89      -0.1245
     63  CA        28.6660   15.9730   67.9040 C.3    89  ALA89       0.1562
     64  C         28.7680   14.8100   68.8960 C.2    89  ALA89       0.2260
     65  O         29.2190   13.7230   68.5410 O.2    89  ALA89      -0.2867
     66  CB        29.8500   16.9590   68.0500 C.3    89  ALA89       0.0290
@<TRIPOS>BOND
     1    52    51    2
     2    53    51   am
     3    51    50    1
     4    50    49    1
     5    49    46    1
     6    46    47    1
     7    46    45    1
     8    63    66    1
     9    63    62    1
    10    63    64    1
    11    20    19    1
    12    20    21    1
    13    48    47    2
    14    65    64    2
    15    47    54   am
    16    19    16    1
    17    21    15    1
    18    54    55    1
    19    15    16    1
    20    15    12   am
    21    16    17    1
    22    55    56    1
    23    55    58    1
    24    17    18    2
    25    17    22   am
    26    32    29    1
    27    57    56    2
    28    60    59   ar
    29    29    28    1
    30    29    30    1
    31    14    11    1
    32    11    12    1
    33    11    10    1
    34    22    23    1
    35    12    13    2
    36    28    24   am
    37     4     3    2
    38    24    23    1
    39    24    25    2
    40    23    26    1
    41    59    58    1
    42    59    61   ar
    43    10     3   am
    44    33    30   am
    45    33    34    1
    46     3     2    1
    47    30    31    2
    48     5     2    1
    49     5     6    1
    50    26    27    1
    51     2     1    1
    52    34    35    1
    53     6     7    1
    54    37    35   am
    55    37    38    1
    56     9     7   am
    57    35    36    2
    58     7     8    2
    59    38    41    1
    60    38    39    1
    61    41    42    1
    62    43    42    2
    63    42    44   am
    64    39    40    2
