@<TRIPOS>MOLECULE
tmp/3e10B02.pdb
 120 115 0 0 0
SMALL
GASTEIGER

@<TRIPOS>ATOM
      1  N         26.8730    2.7480   60.0940 N.3     6  ARG6       -0.1231
      2  CA        25.9520    3.2180   61.1260 C.3     6  ARG6        0.1694
      3  C         24.5780    3.5180   60.5120 C.2     6  ARG6        0.2592
      4  O         24.4790    4.3340   59.5830 O.2     6  ARG6       -0.2718
      5  CB        26.4950    4.4900   61.7240 C.3     6  ARG6        0.0321
      6  CG        25.5740    5.1590   62.7790 C.3     6  ARG6        0.0489
      7  CD        25.5530    6.6880   62.7020 C.3     6  ARG6        0.2205
      8  NE        25.1780    7.1700   61.3620 N.pl3   6  ARG6       -0.0865
      9  CZ        23.9430    7.2170   60.8680 C.cat   6  ARG6        0.5346
     10  NH1       22.9170    6.7610   61.5640 N.pl3   6  ARG6        0.1354
     11  NH2       23.7490    7.6800   59.6400 N.pl3   6  ARG6        0.1354
     12  N         23.5350    2.8960   61.0730 N.am    7  ARG7       -0.1966
     13  CA        22.1700    3.1350   60.6120 C.3     7  ARG7        0.1729
     14  C         21.2760    3.4870   61.7950 C.2     7  ARG7        0.2616
     15  O         21.5400    3.1030   62.9370 O.2     7  ARG7       -0.2715
     16  CB        21.5800    1.8850   59.9100 C.3     7  ARG7        0.0348
     17  CG        22.2870    1.4730   58.6180 C.3     7  ARG7        0.0492
     18  CD        21.7900    2.1690   57.3860 C.3     7  ARG7        0.2205
     19  NE        22.0590    3.6050   57.3280 N.pl3   7  ARG7       -0.0865
     20  CZ        23.2080    4.1220   56.8970 C.cat   7  ARG7        0.5346
     21  NH1       24.2280    3.3500   56.5140 N.pl3   7  ARG7        0.1354
     22  NH2       23.3500    5.4310   56.8770 N.pl3   7  ARG7        0.1354
     23  N         20.1600    4.1570   61.5200 N.am    8  SER8       -0.1950
     24  CA        19.1280    4.3070   62.5330 C.3     8  SER8        0.1924
     25  C         18.3690    2.9860   62.6830 C.2     8  SER8        0.2314
     26  O         17.6850    2.5360   61.7600 O.2     8  SER8       -0.2863
     27  CB        18.1580    5.4290   62.1390 C.3     8  SER8        0.2116
     28  OG        18.7610    6.6980   62.2880 O.3     8  SER8       -0.2180
     29  N         15.5950    0.9810   64.9570 N.3    10  ARG10      -0.1245
     30  CA        14.4050    1.4030   65.6950 C.3    10  ARG10       0.1563
     31  C         13.6330    0.2880   66.3660 C.2    10  ARG10       0.2260
     32  O         12.5840    0.5360   66.9500 O.2    10  ARG10      -0.2867
     33  CB        13.4830    2.1770   64.7640 C.3    10  ARG10       0.0307
     34  CG        14.1350    3.4510   64.2160 C.3    10  ARG10       0.0489
     35  CD        13.1570    4.2290   63.3360 C.3    10  ARG10       0.2205
     36  NE        13.6690    5.5300   62.9460 N.pl3  10  ARG10      -0.0865
     37  CZ        14.3330    5.7900   61.8250 C.cat  10  ARG10       0.5346
     38  NH1       14.5690    4.8500   60.9160 N.pl3  10  ARG10       0.1354
     39  NH2       14.7610    7.0270   61.5920 N.pl3  10  ARG10       0.1354
     40  N          7.5930   12.2090   72.3330 N.3    58  SER58      -0.1217
     41  CA         7.5230   12.5830   70.9490 C.3    58  SER58       0.1889
     42  C          6.6910   11.5630   70.1850 C.2    58  SER58       0.2288
     43  O          6.6200   10.4250   70.5800 O.2    58  SER58      -0.2866
     44  CB         8.9690   12.5930   70.4450 C.3    58  SER58       0.2089
     45  OG         9.1100   12.4070   69.0920 O.3    58  SER58      -0.2183
     46  N          7.6550   10.4480   67.4030 N.3    60  TYR60      -0.1241
     47  CA         8.6460    9.7370   66.6350 C.3    60  TYR60       0.1605
     48  C          9.6410    8.9560   67.5120 C.2    60  TYR60       0.2264
     49  O         10.7480    8.6810   67.0930 O.2    60  TYR60      -0.2867
     50  CB         9.3510   10.7030   65.6980 C.3    60  TYR60       0.0534
     51  CG         8.3850   11.2660   64.6750 C.ar   60  TYR60      -0.0201
     52  CD1        8.0060   10.5100   63.5810 C.ar   60  TYR60      -0.0009
     53  CD2        7.7780   12.4760   64.8740 C.ar   60  TYR60      -0.0009
     54  CE1        7.1100   10.9960   62.6390 C.ar   60  TYR60       0.0417
     55  CE2        6.8640   12.9760   63.9380 C.ar   60  TYR60       0.0417
     56  CZ         6.5490   12.2330   62.8240 C.ar   60  TYR60       0.1957
     57  OH         5.6220   12.6770   61.9010 O.3    60  TYR60      -0.2866
     58  N         19.1440    4.8260   67.5770 N.3   106  VAL106     -0.1231
     59  CA        18.5920    5.9130   66.7830 C.3   106  VAL106      0.1692
     60  C         18.5330    7.1850   67.6400 C.2   106  VAL106      0.2592
     61  O         18.1990    7.1600   68.8270 O.2   106  VAL106     -0.2718
     62  CB        17.1880    5.5580   66.1800 C.3   106  VAL106      0.0266
     63  CG1       16.1660    5.2280   67.2920 C.3   106  VAL106      0.0020
     64  CG2       16.6760    6.7110   65.2990 C.3   106  VAL106      0.0020
     65  N         18.8400    8.3010   66.9830 N.am  107  TRP107     -0.1962
     66  CA        18.7020    9.6510   67.5330 C.3   107  TRP107      0.1771
     67  C         17.2440   10.0410   67.4550 C.2   107  TRP107      0.2619
     68  O         16.6530   10.0360   66.3730 O.2   107  TRP107     -0.2715
     69  CB        19.5820   10.5700   66.6890 C.3   107  TRP107      0.0590
     70  CG        19.7040   11.9960   67.0060 C.ar  107  TRP107      0.0006
     71  CD1       18.8130   12.8290   67.6400 C.ar  107  TRP107      0.0946
     72  CD2       20.8050   12.8180   66.6170 C.ar  107  TRP107      0.0152
     73  NE1       19.3240   14.1110   67.6890 N.ar  107  TRP107     -0.2442
     74  CE2       20.5230   14.1350   67.0250 C.ar  107  TRP107      0.0810
     75  CE3       22.0060   12.5580   65.9500 C.ar  107  TRP107      0.0012
     76  CZ2       21.4210   15.1860   66.8150 C.ar  107  TRP107      0.0191
     77  CZ3       22.8670   13.5910   65.6970 C.ar  107  TRP107      0.0001
     78  CH2       22.5610   14.8960   66.1160 C.ar  107  TRP107      0.0015
     79  N         16.6800   10.3660   68.6170 N.am  108  LEU108     -0.1963
     80  CA        15.2980   10.8310   68.7280 C.3   108  LEU108      0.1728
     81  C         15.3350   12.3230   69.0550 C.2   108  LEU108      0.2616
     82  O         15.6300   12.7170   70.1840 O.2   108  LEU108     -0.2715
     83  CB        14.5560   10.0080   69.7780 C.3   108  LEU108      0.0311
     84  CG        14.5780    8.4760   69.5690 C.3   108  LEU108      0.0022
     85  CD1       13.8940    7.7850   70.7670 C.3   108  LEU108      0.0001
     86  CD2       13.9860    8.0400   68.2480 C.3   108  LEU108      0.0001
     87  N         15.0650   13.1520   68.0500 N.am  109  GLY109     -0.1955
     88  CA        15.2200   14.5910   68.1940 C.3   109  GLY109      0.1869
     89  C         14.2930   15.1690   69.2580 C.2   109  GLY109      0.2309
     90  O         13.1570   14.6960   69.4500 O.2   109  GLY109     -0.2863
     91  N          8.3640   18.7230   72.7050 N.3   116  ARG116     -0.1245
     92  CA         9.2530   17.6220   73.0860 C.3   116  ARG116      0.1563
     93  C         10.1540   18.0090   74.2550 C.2   116  ARG116      0.2260
     94  O         10.3600   17.2320   75.2050 O.2   116  ARG116     -0.2867
     95  CB        10.0880   17.2200   71.8800 C.3   116  ARG116      0.0307
     96  CG         9.2530   16.6840   70.7750 C.3   116  ARG116      0.0489
     97  CD        10.0930   16.1630   69.6480 C.3   116  ARG116      0.2205
     98  NE         9.3460   15.9150   68.4210 N.pl3 116  ARG116     -0.0865
     99  CZ         9.9100   15.5170   67.2930 C.cat 116  ARG116      0.5346
    100  NH1       11.2040   15.2900   67.2330 N.pl3 116  ARG116      0.1354
    101  NH2        9.1580   15.3700   66.2130 N.pl3 116  ARG116      0.1354
    102  N         24.2740    2.0460   53.4420 N.3   148  ILE148     -0.1245
    103  CA        23.3780    2.6910   52.4780 C.3   148  ILE148      0.1561
    104  C         24.1920    3.8960   51.9780 C.2   148  ILE148      0.2260
    105  O         24.5480    4.7790   52.7480 O.2   148  ILE148     -0.2867
    106  CB        22.0370    3.1400   53.0800 C.3   148  ILE148      0.0252
    107  CG1       21.2380    1.9280   53.5800 C.3   148  ILE148      0.0019
    108  CG2       21.2660    3.9680   52.1000 C.3   148  ILE148      0.0019
    109  CD1       19.9380    2.2900   54.2980 C.3   148  ILE148      0.0001
    110  N         24.9420    7.1800   50.5970 N.3   150  ARG150     -0.1245
    111  CA        24.2420    8.4600   50.4530 C.3   150  ARG150      0.1563
    112  C         25.0760    9.4950   49.7110 C.2   150  ARG150      0.2260
    113  O         24.6870   10.6650   49.5830 O.2   150  ARG150     -0.2867
    114  CB        23.8730    8.9910   51.8250 C.3   150  ARG150      0.0307
    115  CG        22.9460    8.0860   52.6210 C.3   150  ARG150      0.0489
    116  CD        21.5580    8.6380   52.6890 C.3   150  ARG150      0.2205
    117  NE        20.6480    7.6840   53.3130 N.pl3 150  ARG150     -0.0865
    118  CZ        20.5720    7.4750   54.6210 C.cat 150  ARG150      0.5346
    119  NH1       21.3470    8.1340   55.4610 N.pl3 150  ARG150      0.1354
    120  NH2       19.7340    6.5840   55.1090 N.pl3 150  ARG150      0.1354
@<TRIPOS>BOND
     1   113   112    2
     2   112   111    1
     3   111   110    1
     4   111   114    1
     5   114   115    1
     6   104   103    1
     7   104   105    2
     8   108   106    1
     9   103   106    1
    10   103   102    1
    11   115   116    1
    12   116   117    1
    13   106   107    1
    14   117   118    2
    15   107   109    1
    16   118   120    1
    17   118   119    1
    18    21    20    1
    19    22    20    1
    20    20    19    2
    21    19    18    1
    22    18    17    1
    23    17    16    1
    24     4     3    2
    25    11     9    1
    26    16    13    1
    27     1     2    1
    28     3    12   am
    29     3     2    1
    30    13    12    1
    31    13    14    1
    32     9     8    2
    33     9    10    1
    34    38    37    1
    35     2     5    1
    36     8     7    1
    37    23    14   am
    38    23    24    1
    39    39    37    1
    40     5     6    1
    41    26    25    2
    42    14    15    2
    43    37    36    2
    44    57    56    1
    45    27    28    1
    46    27    24    1
    47    24    25    1
    48    54    56   ar
    49    54    52   ar
    50     7     6    1
    51    56    55   ar
    52    36    35    1
    53    35    34    1
    54    52    51   ar
    55    55    53   ar
    56    34    33    1
    57    51    53   ar
    58    51    50    1
    59    33    30    1
    60    29    30    1
    61    64    62    1
    62    30    31    1
    63    77    75   ar
    64    77    78   ar
    65    50    47    1
    66    75    72   ar
    67    78    76   ar
    68    62    59    1
    69    62    63    1
    70   101    99    1
    71    31    32    2
    72    68    67    2
    73    72    70   ar
    74    72    74   ar
    75    47    46    1
    76    47    48    1
    77    69    70    1
    78    69    66    1
    79    59    58    1
    80    59    60    1
    81    76    74   ar
    82    65    66    1
    83    65    60   am
    84    70    71   ar
    85    74    73   ar
    86    49    48    2
    87   100    99    1
    88    99    98    2
    89    67    66    1
    90    67    79   am
    91    71    73   ar
    92    60    61    2
    93    87    88    1
    94    87    81   am
    95    88    89    1
    96    86    84    1
    97    98    97    1
    98    79    80    1
    99    80    81    1
   100    80    83    1
   101    81    82    2
   102    45    44    1
   103    89    90    2
   104    84    83    1
   105    84    85    1
   106    97    96    1
   107    42    43    2
   108    42    41    1
   109    44    41    1
   110    96    95    1
   111    41    40    1
   112    95    92    1
   113    91    92    1
   114    92    93    1
   115    93    94    2
