@<TRIPOS>MOLECULE
tmp/3e12A00.pdb
 164 152 0 0 0
SMALL
GASTEIGER

@<TRIPOS>ATOM
      1  N         28.3210   54.8740   31.1270 N.3    40  LYS40      -0.1245
      2  CA        29.3570   54.1800   30.2910 C.3    40  LYS40       0.1561
      3  C         30.6120   54.9940   30.1160 C.2    40  LYS40       0.2260
      4  O         30.5390   56.1990   29.8190 O.2    40  LYS40      -0.2867
      5  CB        28.7880   53.8480   28.8950 C.3    40  LYS40       0.0271
      6  CG        29.7610   53.0270   27.9560 C.3    40  LYS40       0.0035
      7  CD        30.6280   53.9580   27.0560 C.3    40  LYS40       0.0206
      8  CE        31.7560   53.1420   26.3220 C.3    40  LYS40       0.1093
      9  NZ        32.4670   53.9320   25.2450 N.3    40  LYS40      -0.1314
     10  N         34.8690   53.8930   28.5570 N.3    42  SER42      -0.1217
     11  CA        35.8990   52.8840   28.2520 C.3    42  SER42       0.1889
     12  C         37.2160   53.1370   28.9570 C.2    42  SER42       0.2288
     13  O         37.7930   54.2030   28.8050 O.2    42  SER42      -0.2866
     14  CB        36.1660   52.8450   26.7460 C.3    42  SER42       0.2089
     15  OG        35.0200   52.4190   26.0010 O.3    42  SER42      -0.2183
     16  N         40.6590   52.2860   24.7510 N.3    45  LYS45      -0.1245
     17  CA        40.3060   52.2760   23.3420 C.3    45  LYS45       0.1561
     18  C         41.3420   51.3640   22.7000 C.2    45  LYS45       0.2260
     19  O         42.4320   51.8120   22.3220 O.2    45  LYS45      -0.2867
     20  CB        40.3710   53.6920   22.7740 C.3    45  LYS45       0.0271
     21  CG        39.5700   54.7520   23.5920 C.3    45  LYS45       0.0035
     22  CD        38.1150   54.3340   23.9440 C.3    45  LYS45       0.0206
     23  CE        37.2160   53.9910   22.7190 C.3    45  LYS45       0.1093
     24  NZ        35.7940   53.7200   23.1780 N.3    45  LYS45      -0.1314
     25  N         41.2680   49.5340   20.0040 N.3    47  ASN47      -0.1225
     26  CA        41.1560   49.3050   18.5630 C.3    47  ASN47       0.1785
     27  C         41.2920   50.6040   17.7570 C.2    47  ASN47       0.2597
     28  O         40.7170   50.7220   16.6880 O.2    47  ASN47      -0.2718
     29  CB        39.7900   48.6230   18.2310 C.3    47  ASN47       0.1169
     30  CG        38.5930   49.5740   18.4330 C.2    47  ASN47       0.2627
     31  OD1       37.4780   49.3360   17.9180 O.2    47  ASN47      -0.2716
     32  ND2       38.8140   50.6560   19.1630 N.am   47  ASN47      -0.0877
     33  N         42.0400   51.5970   18.2630 N.am   48  ARG48      -0.1966
     34  CA        42.1340   52.8650   17.5400 C.3    48  ARG48       0.1729
     35  C         42.8040   52.5930   16.1910 C.2    48  ARG48       0.2617
     36  O         43.6250   51.6710   16.0800 O.2    48  ARG48      -0.2715
     37  CB        43.0000   53.8920   18.2840 C.3    48  ARG48       0.0348
     38  CG        42.5700   54.3180   19.6990 C.3    48  ARG48       0.0492
     39  CD        41.2650   55.0680   19.7120 C.3    48  ARG48       0.2205
     40  NE        41.0850   56.1860   18.7770 N.pl3  48  ARG48      -0.0865
     41  CZ        41.0780   57.4680   19.1450 C.cat  48  ARG48       0.5346
     42  NH1       41.3710   57.7970   20.4130 N.pl3  48  ARG48       0.1354
     43  NH2       40.7950   58.4280   18.2540 N.pl3  48  ARG48       0.1354
     44  N         42.4960   53.4160   15.1830 N.am   49  SER49      -0.1936
     45  CA        43.1550   53.2740   13.8720 C.3    49  SER49       0.2055
     46  C         44.6710   53.5070   13.9760 C.2    49  SER49       0.2643
     47  O         45.4630   52.7330   13.4260 O.2    49  SER49      -0.2714
     48  CB        42.5620   54.2560   12.8580 C.3    49  SER49       0.2130
     49  OG        41.1730   53.9130   12.6250 O.3    49  SER49      -0.2179
     50  N         45.0450   54.5620   14.6950 N.am   50  SER50      -0.1949
     51  CA        46.4480   54.9550   14.7860 C.3    50  SER50       0.1924
     52  C         47.1450   54.5930   16.1090 C.2    50  SER50       0.2314
     53  O         46.5730   54.7630   17.1800 O.2    50  SER50      -0.2863
     54  CB        46.5700   56.4730   14.6320 C.3    50  SER50       0.2116
     55  OG        47.9610   56.8330   14.7550 O.3    50  SER50      -0.2180
     56  N         47.0780   57.5870   18.6590 N.3    53  SER53      -0.1217
     57  CA        45.8540   58.0400   19.2940 C.3    53  SER53       0.1889
     58  C         45.7090   57.6370   20.7580 C.2    53  SER53       0.2288
     59  O         46.2870   56.6510   21.2200 O.2    53  SER53      -0.2866
     60  CB        44.6630   57.5070   18.4890 C.3    53  SER53       0.2089
     61  OG        44.5690   58.1850   17.2450 O.3    53  SER53      -0.2183
     62  N         33.6090   48.3110   28.3820 N.3    80  ASP80      -0.1239
     63  CA        33.8900   47.2410   27.3930 C.3    80  ASP80       0.1674
     64  C         35.1670   46.4690   27.7580 C.2    80  ASP80       0.2266
     65  O         36.0600   47.0140   28.4060 O.2    80  ASP80      -0.2867
     66  CB        33.8600   47.7210   25.9070 C.3    80  ASP80       0.1410
     67  CG        34.6430   48.9990   25.6330 C.2    80  ASP80       0.3668
     68  OD1       34.9700   49.8140   26.5550 O.co2  80  ASP80      -0.2456
     69  OD2       34.9160   49.1920   24.4230 O.co2  80  ASP80      -0.2456
     70  N         30.2980   45.1540   28.2600 N.3    98  GLN98      -0.1245
     71  CA        30.1130   45.4450   26.8470 C.3    98  GLN98       0.1566
     72  C         31.1620   44.7090   26.0180 C.2    98  GLN98       0.2260
     73  O         32.3740   44.6810   26.3690 O.2    98  GLN98      -0.2867
     74  CB        30.2160   46.9570   26.5980 C.3    98  GLN98       0.0367
     75  CG        30.0330   47.3750   25.1120 C.3    98  GLN98       0.0905
     76  CD        30.0180   48.9060   25.0060 C.2    98  GLN98       0.2608
     77  OE1       30.8230   49.5240   24.2780 O.2    98  GLN98      -0.2717
     78  NE2       29.1020   49.5270   25.7530 N.am   98  GLN98      -0.0878
     79  N         32.9440   44.6880   22.3900 N.3   100  PRO100     -0.2116
     80  CA        33.1360   45.5480   21.2060 C.3   100  PRO100      0.1372
     81  C         32.6720   44.8530   19.8880 C.2   100  PRO100      0.2244
     82  O         32.7270   43.6150   19.7610 O.2   100  PRO100     -0.2868
     83  CB        34.6640   45.7700   21.1870 C.3   100  PRO100      0.0268
     84  CG        35.0490   45.6580   22.6320 C.3   100  PRO100      0.0207
     85  CD        34.1980   44.5370   23.1730 C.3   100  PRO100      0.0892
     86  N         33.8860   44.5630   16.8190 N.3   102  PHE102     -0.1241
     87  CA        34.8190   43.7160   16.0470 C.3   102  PHE102      0.1605
     88  C         35.0350   42.3680   16.7470 C.2   102  PHE102      0.2264
     89  O         35.5040   41.4110   16.1190 O.2   102  PHE102     -0.2867
     90  CB        36.2160   44.3620   15.9060 C.3   102  PHE102      0.0534
     91  CG        36.2680   45.6740   15.0990 C.ar  102  PHE102     -0.0203
     92  CD1       35.3680   45.9430   14.0710 C.ar  102  PHE102     -0.0042
     93  CD2       37.2840   46.5950   15.3740 C.ar  102  PHE102     -0.0042
     94  CE1       35.4850   47.1630   13.3500 C.ar  102  PHE102     -0.0003
     95  CE2       37.4230   47.8010   14.6620 C.ar  102  PHE102     -0.0003
     96  CZ        36.5230   48.0710   13.6370 C.ar  102  PHE102     -0.0000
     97  N         27.9090   44.6060   21.0480 N.3   123  LYS123     -0.1245
     98  CA        27.7740   45.4620   19.8700 C.3   123  LYS123      0.1561
     99  C         27.7570   44.5830   18.6170 C.2   123  LYS123      0.2260
    100  O         28.6600   43.7800   18.4100 O.2   123  LYS123     -0.2867
    101  CB        28.9320   46.4850   19.8060 C.3   123  LYS123      0.0271
    102  CG        29.0170   47.4310   21.0320 C.3   123  LYS123      0.0035
    103  CD        27.9480   48.5600   21.0010 C.3   123  LYS123      0.0206
    104  CE        28.3590   49.8320   21.7910 C.3   123  LYS123      0.1093
    105  NZ        29.2090   50.7690   20.9760 N.3   123  LYS123     -0.1314
    106  N         24.8200   49.1940   15.7720 N.3   153  ARG153     -0.1245
    107  CA        25.7640   50.3060   15.6250 C.3   153  ARG153      0.1563
    108  C         26.1880   50.5130   14.1660 C.2   153  ARG153      0.2260
    109  O         27.2460   51.0760   13.8880 O.2   153  ARG153     -0.2867
    110  CB        26.9820   50.1590   16.5840 C.3   153  ARG153      0.0307
    111  CG        27.7420   48.8350   16.4680 C.3   153  ARG153      0.0489
    112  CD        28.9240   48.9630   15.5740 C.3   153  ARG153      0.2205
    113  NE        30.0740   49.6740   16.1870 N.pl3 153  ARG153     -0.0865
    114  CZ        30.5920   50.8090   15.7210 C.cat 153  ARG153      0.5346
    115  NH1       30.0490   51.3850   14.6690 N.pl3 153  ARG153      0.1354
    116  NH2       31.6550   51.3810   16.3050 N.pl3 153  ARG153      0.1354
    117  N         27.9520   55.8580   17.5110 N.3   184  HIS184     -0.1241
    118  CA        28.9110   55.2360   16.6110 C.3   184  HIS184      0.1621
    119  C         28.2770   54.8290   15.2670 C.2   184  HIS184      0.2264
    120  O         29.0000   54.5200   14.3180 O.2   184  HIS184     -0.2867
    121  CB        29.6160   54.0290   17.2950 C.3   184  HIS184      0.0745
    122  CG        30.2920   54.3980   18.5800 C.ar  184  HIS184      0.0817
    123  ND1       29.7690   54.0720   19.8110 N.ar  184  HIS184     -0.2268
    124  CD2       31.4090   55.1290   18.8250 C.ar  184  HIS184      0.1154
    125  CE1       30.5500   54.5540   20.7640 C.ar  184  HIS184      0.1986
    126  NE2       31.5500   55.2000   20.1900 N.ar  184  HIS184     -0.2212
    127  N         29.2690   57.4020   12.7210 N.3   187  GLN187     -0.1245
    128  CA        30.6890   57.6850   12.5830 C.3   187  GLN187      0.1566
    129  C         31.1880   57.1480   11.2400 C.2   187  GLN187      0.2260
    130  O         30.7790   56.0710   10.7880 O.2   187  GLN187     -0.2867
    131  CB        31.4860   57.0940   13.7500 C.3   187  GLN187      0.0367
    132  CG        32.8130   57.7810   13.9940 C.3   187  GLN187      0.0905
    133  CD        33.2430   57.6790   15.4320 C.2   187  GLN187      0.2608
    134  OE1       32.4130   57.4860   16.3220 O.2   187  GLN187     -0.2717
    135  NE2       34.5410   57.8270   15.6790 N.am  187  GLN187     -0.0878
    136  N         37.6670   55.1730    9.8350 N.3   190  GLY190     -0.1225
    137  CA        38.9170   55.4060    9.1020 C.3   190  GLY190      0.1811
    138  C         38.9700   56.7690    8.4350 C.2   190  GLY190      0.2280
    139  O         39.8300   57.0290    7.5780 O.2   190  GLY190     -0.2866
    140  N         21.9140   54.0700   23.3970 N.3   214  PHE214     -0.1241
    141  CA        23.2640   54.2850   23.8550 C.3   214  PHE214      0.1605
    142  C         23.7090   55.5880   23.2280 C.2   214  PHE214      0.2264
    143  O         23.6120   55.7600   22.0050 O.2   214  PHE214     -0.2867
    144  CB        24.1000   53.0730   23.3850 C.3   214  PHE214      0.0534
    145  CG        25.5620   53.1730   23.6400 C.ar  214  PHE214     -0.0203
    146  CD1       26.3450   54.0130   22.8500 C.ar  214  PHE214     -0.0042
    147  CD2       26.1820   52.3310   24.5600 C.ar  214  PHE214     -0.0042
    148  CE1       27.7270   54.0990   23.0210 C.ar  214  PHE214     -0.0003
    149  CE2       27.5880   52.4110   24.7590 C.ar  214  PHE214     -0.0003
    150  CZ        28.3510   53.3020   23.9890 C.ar  214  PHE214     -0.0000
    151  N         38.6700   60.8770   22.0610 N.3   226  SER226     -0.1202
    152  CA        38.1850   59.8070   21.2040 C.3   226  SER226      0.2020
    153  C         36.7630   60.1400   20.7360 C.2   226  SER226      0.2618
    154  O         35.9890   60.7710   21.4680 O.2   226  SER226     -0.2717
    155  CB        38.1920   58.4840   21.9700 C.3   226  SER226      0.2103
    156  OG        37.2370   58.5160   23.0120 O.3   226  SER226     -0.2182
    157  N         36.4380   59.7230   19.5140 N.am  227  ASP227     -0.1973
    158  CA        35.1260   59.9750   18.8850 C.3   227  ASP227      0.1709
    159  C         34.6550   61.4230   19.0940 C.2   227  ASP227      0.2293
    160  O         33.4900   61.6760   19.4350 O.2   227  ASP227     -0.2864
    161  CB        34.0690   58.9850   19.3990 C.3   227  ASP227      0.1436
    162  CG        34.3950   57.5530   19.0380 C.2   227  ASP227      0.3671
    163  OD1       35.1220   57.3400   18.0430 O.co2 227  ASP227     -0.2456
    164  OD2       33.9190   56.6420   19.7470 O.co2 227  ASP227     -0.2456
@<TRIPOS>BOND
     1   139   138    2
     2   138   137    1
     3   137   136    1
     4   130   129    2
     5   129   128    1
     6   128   127    1
     7   128   131    1
     8    49    48    1
     9    48    45    1
    10    94    96   ar
    11    94    92   ar
    12    47    46    2
    13    96    95   ar
    14   131   132    1
    15    45    46    1
    16    45    44    1
    17   109   108    2
    18    46    50   am
    19   132   133    1
    20    92    91   ar
    21   108   107    1
    22   120   119    2
    23    54    55    1
    24    54    51    1
    25    95    93   ar
    26   115   114    1
    27    50    51    1
    28    51    52    1
    29    91    93   ar
    30    91    90    1
    31    44    35   am
    32   119   118    1
    33   133   135   am
    34   133   134    2
    35   112   113    1
    36   112   111    1
    37   107   106    1
    38   107   110    1
    39   114   113    2
    40   114   116    1
    41    90    87    1
    42    87    88    1
    43    87    86    1
    44    36    35    2
    45    52    53    2
    46    89    88    2
    47    35    34    1
    48   111   110    1
    49   118   121    1
    50   118   117    1
    51    28    27    2
    52    61    60    1
    53   121   122    1
    54    34    33    1
    55    34    37    1
    56    27    33   am
    57    27    26    1
    58    31    30    2
    59   163   162   ar
    60    29    30    1
    61    29    26    1
    62    43    41    1
    63    37    38    1
    64   100    99    2
    65    30    32   am
    66    60    57    1
    67    26    25    1
    68   122   124   ar
    69   122   123   ar
    70    99    98    1
    71    56    57    1
    72    40    41    2
    73    40    39    1
    74   124   126   ar
    75   158   159    1
    76   158   161    1
    77   158   157    1
    78   162   161    1
    79   162   164   ar
    80   159   160    2
    81    41    42    1
    82    57    58    1
    83   157   153   am
    84    38    39    1
    85    82    81    2
    86   101    98    1
    87   101   102    1
    88   123   125   ar
    89    98    97    1
    90    81    80    1
    91   126   125   ar
    92   153   152    1
    93   153   154    2
    94    58    59    2
    95   105   104    1
    96   103   102    1
    97   103   104    1
    98    83    80    1
    99    83    84    1
   100   152   155    1
   101   152   151    1
   102    80    79    1
   103   155   156    1
   104   143   142    2
   105    19    18    2
   106    79    85    1
   107    84    85    1
   108    18    17    1
   109    23    24    1
   110    23    22    1
   111    20    17    1
   112    20    21    1
   113   146   148   ar
   114   146   145   ar
   115   148   150   ar
   116   142   141    1
   117    17    16    1
   118   144   145    1
   119   144   141    1
   120   140   141    1
   121    21    22    1
   122   145   147   ar
   123   150   149   ar
   124    77    76    2
   125    69    67   ar
   126   147   149   ar
   127    76    75    1
   128    76    78   am
   129    75    74    1
   130     9     8    1
   131    67    66    1
   132    67    68   ar
   133    66    63    1
   134    15    14    1
   135    72    73    2
   136    72    71    1
   137     8     7    1
   138    74    71    1
   139    14    11    1
   140    71    70    1
   141     7     6    1
   142    63    64    1
   143    63    62    1
   144    64    65    2
   145     6     5    1
   146    11    10    1
   147    11    12    1
   148    13    12    2
   149     5     2    1
   150     4     3    2
   151     3     2    1
   152     2     1    1
