@<TRIPOS>MOLECULE
tmp/3e16A00.pdb
 202 202 0 0 0
SMALL
GASTEIGER

@<TRIPOS>ATOM
      1  N         11.0730   32.4790   14.5480 N.3    25  VAL25      -0.1231
      2  CA        11.8860   33.2820   13.6280 C.3    25  VAL25       0.1692
      3  C         12.0710   32.6410   12.2490 C.2    25  VAL25       0.2592
      4  O         12.2360   33.3370   11.2470 O.2    25  VAL25      -0.2718
      5  CB        13.2880   33.6390   14.2210 C.3    25  VAL25       0.0266
      6  CG1       13.1630   34.5840   15.4040 C.3    25  VAL25       0.0020
      7  CG2       14.0680   32.3780   14.6020 C.3    25  VAL25       0.0020
      8  N         12.0320   31.3210   12.1920 N.am   26  CYS26      -0.1970
      9  CA        12.3750   30.6000   10.9540 C.3    26  CYS26       0.1712
     10  C         11.7620   29.2000   10.9150 C.2    26  CYS26       0.2296
     11  O         11.3640   28.6470   11.9260 O.2    26  CYS26      -0.2864
     12  CB        13.8770   30.4140   10.8270 C.3    26  CYS26       0.0983
     13  SG        14.8080   31.8920   10.2900 S.3    26  CYS26      -0.0798
     14  N         21.3790   31.8400    7.8680 N.3    41  HIS41      -0.1226
     15  CA        21.1220   33.2250    8.2490 C.3    41  HIS41       0.1752
     16  C         20.1340   33.3570    9.4140 C.2    41  HIS41       0.2596
     17  O         20.0650   34.4160   10.0400 O.2    41  HIS41      -0.2718
     18  CB        20.6590   34.0250    7.0440 C.3    41  HIS41       0.0759
     19  CG        19.1920   33.9070    6.7460 C.ar   41  HIS41       0.0818
     20  ND1       18.6910   33.1600    5.6910 N.ar   41  HIS41      -0.2268
     21  CD2       18.1200   34.4820    7.3410 C.ar   41  HIS41       0.1154
     22  CE1       17.3740   33.2870    5.6590 C.ar   41  HIS41       0.1986
     23  NE2       17.0000   34.0620    6.6600 N.ar   41  HIS41      -0.2212
     24  N         19.4030   32.2790    9.7040 N.am   42  CYS42      -0.1970
     25  CA        18.5710   32.1900   10.8790 C.3    42  CYS42       0.1712
     26  C         19.3300   32.1290   12.1890 C.2    42  CYS42       0.2296
     27  O         18.6890   32.2040   13.2540 O.2    42  CYS42      -0.2864
     28  CB        17.6340   30.9830   10.8070 C.3    42  CYS42       0.0983
     29  SG        16.4560   31.0680    9.4130 S.3    42  CYS42      -0.0798
     30  N         29.1520   30.2570    4.1820 N.3    82  TYR82      -0.1241
     31  CA        28.2150   31.3540    4.3710 C.3    82  TYR82       0.1605
     32  C         28.9020   32.4760    5.1210 C.2    82  TYR82       0.2264
     33  O         29.1610   32.3240    6.2980 O.2    82  TYR82      -0.2867
     34  CB        26.9920   30.9130    5.1500 C.3    82  TYR82       0.0534
     35  CG        25.9620   32.0190    5.2690 C.ar   82  TYR82      -0.0201
     36  CD1       25.1790   32.3730    4.1850 C.ar   82  TYR82      -0.0009
     37  CD2       25.8060   32.7160    6.4510 C.ar   82  TYR82      -0.0009
     38  CE1       24.2460   33.3920    4.2730 C.ar   82  TYR82       0.0417
     39  CE2       24.8810   33.7390    6.5590 C.ar   82  TYR82       0.0417
     40  CZ        24.1000   34.0710    5.4660 C.ar   82  TYR82       0.1957
     41  OH        23.1970   35.0920    5.5400 O.3    82  TYR82      -0.2866
     42  N         24.9150   37.9360    4.1590 N.3    85  GLU85      -0.1231
     43  CA        23.6560   37.7960    3.4440 C.3    85  GLU85       0.1699
     44  C         23.8940   37.8400    1.9370 C.2    85  GLU85       0.2592
     45  O         24.4950   38.7840    1.4390 O.2    85  GLU85      -0.2718
     46  CB        22.7140   38.9230    3.8330 C.3    85  GLU85       0.0402
     47  CG        22.1810   38.8100    5.2480 C.3    85  GLU85       0.1161
     48  CD        21.3320   40.0130    5.6350 C.2    85  GLU85       0.3649
     49  OE1       21.0730   40.8890    4.7630 O.co2  85  GLU85      -0.2457
     50  OE2       20.9260   40.0790    6.8120 O.co2  85  GLU85      -0.2457
     51  N         23.4210   36.8220    1.2240 N.am   86  GLY86      -0.1957
     52  CA        23.5230   36.7730   -0.2270 C.3    86  GLY86       0.1869
     53  C         24.6500   35.8490   -0.6420 C.2    86  GLY86       0.2309
     54  O         24.7330   35.4340   -1.7920 O.2    86  GLY86      -0.2863
     55  N         23.8040   29.3680    2.3730 N.3    90  ASP90      -0.1239
     56  CA        22.7940   29.7310    3.3680 C.3    90  ASP90       0.1674
     57  C         22.0160   28.5010    3.7640 C.2    90  ASP90       0.2266
     58  O         20.8540   28.3170    3.3480 O.2    90  ASP90      -0.2867
     59  CB        21.8440   30.8250    2.8820 C.3    90  ASP90       0.1410
     60  CG        20.9520   31.3610    4.0020 C.2    90  ASP90       0.3668
     61  OD1       21.2870   31.1050    5.1840 O.co2  90  ASP90      -0.2456
     62  OD2       19.8970   31.9680    3.6770 O.co2  90  ASP90      -0.2456
     63  N         21.0790   45.2530   -4.5130 N.3   170  PRO170     -0.2102
     64  CA        21.3190   44.1780   -5.4540 C.3   170  PRO170      0.1504
     65  C         20.7650   42.8360   -4.9690 C.2   170  PRO170      0.2576
     66  O         20.6330   42.6020   -3.7740 O.2   170  PRO170     -0.2718
     67  CB        22.8330   44.0630   -5.4460 C.3   170  PRO170      0.0282
     68  CG        23.1790   44.3910   -4.0620 C.3   170  PRO170      0.0208
     69  CD        22.3050   45.5440   -3.7430 C.3   170  PRO170      0.0893
     70  N         20.5250   41.9630   -5.9220 N.am  171  HIS171     -0.1962
     71  CA        19.9970   40.6180   -5.6750 C.3   171  HIS171      0.1787
     72  C         20.6330   39.6970   -6.6990 C.2   171  HIS171      0.2620
     73  O         20.3290   39.7720   -7.8910 O.2   171  HIS171     -0.2715
     74  CB        18.4920   40.5870   -5.8850 C.3   171  HIS171      0.0785
     75  CG        17.7260   41.4370   -4.9350 C.ar  171  HIS171      0.0821
     76  ND1       17.4740   41.0630   -3.6310 N.ar  171  HIS171     -0.2267
     77  CD2       17.1530   42.6520   -5.0970 C.ar  171  HIS171      0.1154
     78  CE1       16.7740   42.0130   -3.0340 C.ar  171  HIS171      0.1986
     79  NE2       16.5630   42.9850   -3.9020 N.ar  171  HIS171     -0.2212
     80  N         21.5160   38.8300   -6.2660 N.am  172  PHE172     -0.1974
     81  CA        22.1400   37.9260   -7.2080 C.3   172  PHE172      0.1639
     82  C         21.8640   36.5050   -6.7480 C.2   172  PHE172      0.2290
     83  O         22.1910   36.1390   -5.6260 O.2   172  PHE172     -0.2864
     84  CB        23.6150   38.1930   -7.3690 C.3   172  PHE172      0.0560
     85  CG        24.2720   37.2510   -8.3120 C.ar  172  PHE172     -0.0200
     86  CD1       23.9160   37.2290   -9.6350 C.ar  172  PHE172     -0.0042
     87  CD2       25.2400   36.3760   -7.8680 C.ar  172  PHE172     -0.0042
     88  CE1       24.5240   36.3500  -10.5100 C.ar  172  PHE172     -0.0003
     89  CE2       25.8320   35.4940   -8.7400 C.ar  172  PHE172     -0.0003
     90  CZ        25.4690   35.4790  -10.0400 C.ar  172  PHE172     -0.0000
     91  N          4.0830   33.8710   -2.6240 N.3   188  ASP188     -0.1225
     92  CA         5.4790   33.6010   -2.3160 C.3   188  ASP188      0.1805
     93  C          5.6650   33.2480   -0.8520 C.2   188  ASP188      0.2598
     94  O          4.7340   33.3200   -0.0440 O.2   188  ASP188     -0.2718
     95  CB         6.3580   34.8210   -2.6600 C.3   188  ASP188      0.1424
     96  CG         7.7230   34.4180   -3.2090 C.2   188  ASP188      0.3668
     97  OD1        8.1320   34.9620   -4.2620 O.co2 188  ASP188     -0.2456
     98  OD2        8.3780   33.5210   -2.6320 O.co2 188  ASP188     -0.2456
     99  N          6.8830   32.8430   -0.5330 N.am  189  ALA189     -0.1966
    100  CA         7.3280   32.7920    0.8440 C.3   189  ALA189      0.1728
    101  C          7.7120   34.1730    1.3320 C.2   189  ALA189      0.2616
    102  O          8.0800   35.0670    0.5520 O.2   189  ALA189     -0.2715
    103  CB         8.4950   31.8180    0.9870 C.3   189  ALA189      0.0334
    104  N          7.6000   34.3580    2.6440 N.am  190  CYS190     -0.1954
    105  CA         7.8490   35.6700    3.2350 C.3   190  CYS190      0.1843
    106  C          8.5270   35.5220    4.5770 C.2   190  CYS190      0.2625
    107  O          8.9140   34.4150    4.9700 O.2   190  CYS190     -0.2714
    108  CB         6.5430   36.4440    3.3420 C.3   190  CYS190      0.0997
    109  SG         5.8470   36.7550    1.7450 S.3   190  CYS190     -0.0797
    110  N          8.7360   36.6420    5.2600 N.am  191  GLN191     -0.1963
    111  CA         9.5350   36.6730    6.4700 C.3   191  GLN191      0.1733
    112  C          9.0010   35.7440    7.5400 C.2   191  GLN191      0.2617
    113  O          7.8220   35.8190    7.9150 O.2   191  GLN191     -0.2715
    114  CB         9.6190   38.1110    7.0340 C.3   191  GLN191      0.0408
    115  CG        10.5800   39.0170    6.2820 C.3   191  GLN191      0.0908
    116  CD        10.2480   39.0980    4.8190 C.2   191  GLN191      0.2608
    117  OE1        9.0810   39.3580    4.4410 O.2   191  GLN191     -0.2717
    118  NE2       11.2500   38.8310    3.9720 N.am  191  GLN191     -0.0878
    119  N          9.8850   34.8990    8.0420 N.am  192  GLY192     -0.1940
    120  CA         9.5300   33.8320    8.9760 C.3   192  GLY192      0.2014
    121  C          9.3740   32.4720    8.3040 C.2   192  GLY192      0.2639
    122  O          9.3050   31.4500    8.9800 O.2   192  GLY192     -0.2714
    123  N          9.4050   32.4590    6.9760 N.am  193  ASP193     -0.1957
    124  CA         9.4590   31.2260    6.2160 C.3   193  ASP193      0.1840
    125  C         10.8720   30.7380    6.0140 C.2   193  ASP193      0.2622
    126  O         11.0490   29.5470    5.7730 O.2   193  ASP193     -0.2715
    127  CB         8.7460   31.3530    4.8810 C.3   193  ASP193      0.1450
    128  CG         7.2510   31.5930    5.0380 C.2   193  ASP193      0.3671
    129  OD1        6.6780   31.0250    5.9670 O.co2 193  ASP193     -0.2456
    130  OD2        6.6480   32.3430    4.2330 O.co2 193  ASP193     -0.2456
    131  N         11.8460   31.6660    6.0680 N.am  194  SER194     -0.1950
    132  CA        13.2640   31.3470    6.0390 C.3   194  SER194      0.1924
    133  C         13.5770   30.0580    6.7300 C.2   194  SER194      0.2314
    134  O         13.1390   29.8160    7.8550 O.2   194  SER194     -0.2863
    135  CB        14.0930   32.4410    6.6890 C.3   194  SER194      0.2116
    136  OG        14.1970   33.5390    5.8230 O.3   194  SER194     -0.2180
    137  N         14.2020   27.8090    2.1770 N.3   212  VAL212     -0.1231
    138  CA        13.7650   29.1820    1.9400 C.3   212  VAL212      0.1692
    139  C         14.8680   30.1100    2.3910 C.2   212  VAL212      0.2593
    140  O         15.4140   29.9400    3.4890 O.2   212  VAL212     -0.2718
    141  CB        12.4950   29.5620    2.7260 C.3   212  VAL212      0.0266
    142  CG1       12.1760   31.0360    2.4460 C.3   212  VAL212      0.0020
    143  CG2       11.3460   28.5980    2.3620 C.3   212  VAL212      0.0020
    144  N         15.2550   31.0190    1.5130 N.am  213  SER213     -0.1938
    145  CA        16.4130   31.9080    1.7990 C.3   213  SER213      0.2055
    146  C         16.0770   33.3860    1.8170 C.2   213  SER213      0.2643
    147  O         16.0800   34.0090    2.8690 O.2   213  SER213     -0.2714
    148  CB        17.5540   31.6370    0.8270 C.3   213  SER213      0.2130
    149  OG        18.7530   32.1560    1.3460 O.3   213  SER213     -0.2179
    150  N         15.7580   33.9420    0.6620 N.am  214  TRP214     -0.1959
    151  CA        15.5700   35.3800    0.5600 C.3   214  TRP214      0.1771
    152  C         14.7400   35.7460   -0.6640 C.2   214  TRP214      0.2620
    153  O         14.3750   34.8980   -1.4780 O.2   214  TRP214     -0.2715
    154  CB        16.9430   36.0940    0.5120 C.3   214  TRP214      0.0590
    155  CG        17.8490   35.6780   -0.6300 C.ar  214  TRP214      0.0006
    156  CD1       18.7490   34.6650   -0.6110 C.ar  214  TRP214      0.0946
    157  CD2       17.9330   36.2630   -1.9280 C.ar  214  TRP214      0.0152
    158  NE1       19.3970   34.5870   -1.8020 N.ar  214  TRP214     -0.2442
    159  CE2       18.8990   35.5440   -2.6380 C.ar  214  TRP214      0.0810
    160  CE3       17.2640   37.3110   -2.5580 C.ar  214  TRP214      0.0012
    161  CZ2       19.2660   35.8580   -3.9590 C.ar  214  TRP214      0.0191
    162  CZ3       17.6060   37.6260   -3.8880 C.ar  214  TRP214      0.0001
    163  CH2       18.6050   36.8970   -4.5690 C.ar  214  TRP214      0.0015
    164  N         14.4000   37.0190   -0.7510 N.am  215  GLY215     -0.1940
    165  CA        13.7240   37.5440   -1.9160 C.3   215  GLY215      0.2014
    166  C         13.7470   39.0390   -1.8100 C.2   215  GLY215      0.2639
    167  O         14.7830   39.6130   -1.4520 O.2   215  GLY215     -0.2714
    168  N         12.6510   39.6620   -2.1850 N.am  216  ASP216     -0.1957
    169  CA        12.5090   41.0900   -2.0620 C.3   216  ASP216      0.1840
    170  C         11.3010   41.2490   -1.1770 C.2   216  ASP216      0.2622
    171  O         11.1520   40.4620   -0.2220 O.2   216  ASP216     -0.2715
    172  CB        12.3480   41.7310   -3.4580 C.3   216  ASP216      0.1450
    173  CG        12.8210   43.1900   -3.5020 C.2   216  ASP216      0.3671
    174  OD1       13.2970   43.6420   -4.5590 O.co2 216  ASP216     -0.2456
    175  OD2       12.7270   43.8830   -2.4670 O.co2 216  ASP216     -0.2456
    176  N         10.4410   42.2430   -1.4390 N.am  217  ALA217     -0.1963
    177  CA         9.2370   42.4070   -0.6360 C.3   217  ALA217      0.1728
    178  C          8.2800   41.2420   -0.8430 C.2   217  ALA217      0.2616
    179  O          8.1290   40.7430   -1.9430 O.2   217  ALA217     -0.2715
    180  CB         8.5430   43.7420   -0.9380 C.3   217  ALA217      0.0334
    181  N          7.6540   40.8150    0.2430 N.am  218  CYS218     -0.1968
    182  CA         6.6720   39.7210    0.2340 C.3   218  CYS218      0.1712
    183  C          5.6840   39.8220   -0.9050 C.2   218  CYS218      0.2296
    184  O          4.8460   40.7190   -0.9070 O.2   218  CYS218     -0.2864
    185  CB         5.9050   39.8310    1.5220 C.3   218  CYS218      0.0983
    186  SG         4.8990   38.5080    2.0320 S.3   218  CYS218     -0.0798
    187  N         10.6790   33.8900   -4.8860 N.3   225  GLY225     -0.1225
    188  CA        11.5070   33.4950   -3.7730 C.3   225  GLY225      0.1811
    189  C         12.7640   32.7810   -4.1900 C.2   225  GLY225      0.2280
    190  O         12.7550   31.9840   -5.1320 O.2   225  GLY225     -0.2866
    191  N         15.9140   30.1970   -2.9150 N.3   227  TYR227     -0.1241
    192  CA        16.0880   29.0650   -2.0520 C.3   227  TYR227      0.1605
    193  C         17.5010   28.5610   -2.2290 C.2   227  TYR227      0.2264
    194  O         17.9740   28.5080   -3.3550 O.2   227  TYR227     -0.2867
    195  CB        15.1210   27.9770   -2.5130 C.3   227  TYR227      0.0534
    196  CG        13.6770   28.3460   -2.4110 C.ar  227  TYR227     -0.0201
    197  CD1       13.0570   29.1480   -3.3570 C.ar  227  TYR227     -0.0009
    198  CD2       12.9180   27.8950   -1.3410 C.ar  227  TYR227     -0.0009
    199  CE1       11.6880   29.4990   -3.2340 C.ar  227  TYR227      0.0417
    200  CE2       11.5820   28.2300   -1.2090 C.ar  227  TYR227      0.0417
    201  CZ        10.9540   29.0420   -2.1640 C.ar  227  TYR227      0.1957
    202  OH         9.6030   29.3410   -1.9950 O.3   227  TYR227     -0.2866
@<TRIPOS>BOND
     1    88    90   ar
     2    88    86   ar
     3    90    89   ar
     4    86    85   ar
     5    89    87   ar
     6    85    87   ar
     7    85    84    1
     8    73    72    2
     9    84    81    1
    10    81    82    1
    11    81    80    1
    12    82    83    2
    13    72    80   am
    14    72    71    1
    15    70    71    1
    16    70    65   am
    17    74    71    1
    18    74    75    1
    19    64    67    1
    20    64    65    1
    21    64    63    1
    22    67    68    1
    23   190   189    2
    24    77    75   ar
    25    77    79   ar
    26    65    66    2
    27    75    76   ar
    28   187   188    1
    29   163   161   ar
    30   163   162   ar
    31   174   173   ar
    32    63    69    1
    33    97    96   ar
    34   189   188    1
    35    68    69    1
    36   161   159   ar
    37    79    78   ar
    38   162   160   ar
    39    76    78   ar
    40   173   172    1
    41   173   175   ar
    42   172   169    1
    43   197   199   ar
    44   197   196   ar
    45   194   193    2
    46   199   201   ar
    47    96    95    1
    48    96    98   ar
    49   191   192    1
    50    95    92    1
    51   159   157   ar
    52   159   158   ar
    53    91    92    1
    54   160   157   ar
    55   195   196    1
    56   195   192    1
    57   196   198   ar
    58    92    93    1
    59   193   192    1
    60   168   169    1
    61   168   166   am
    62   201   202    1
    63   201   200   ar
    64   169   170    1
    65   179   178    2
    66   157   155   ar
    67   165   166    1
    68   165   164    1
    69   166   167    2
    70   158   156   ar
    71    54    53    2
    72   153   152    2
    73   176   170   am
    74   176   177    1
    75   198   200   ar
    76   170   171    2
    77   180   177    1
    78   184   183    2
    79   183   182    1
    80    93    99   am
    81    93    94    2
    82   178   177    1
    83   178   181   am
    84   164   152   am
    85   152   151    1
    86    53    52    1
    87   155   156   ar
    88   155   154    1
    89    99   100    1
    90    52    51    1
    91   182   181    1
    92   182   185    1
    93   154   151    1
    94   102   101    2
    95   151   150    1
    96   150   146   am
    97   148   149    1
    98   148   145    1
    99   100   103    1
   100   100   101    1
   101    51    44   am
   102   101   104   am
   103    45    44    2
   104   144   145    1
   105   144   139   am
   106   185   186    1
   107   109   186    1
   108   109   108    1
   109   145   146    1
   110   146   147    2
   111    44    43    1
   112   138   137    1
   113   138   139    1
   114   138   141    1
   115   143   141    1
   116    55    56    1
   117   139   140    2
   118   142   141    1
   119   104   105    1
   120    59    56    1
   121    59    60    1
   122   105   108    1
   123   105   106    1
   124    58    57    2
   125    56    57    1
   126    43    46    1
   127    43    42    1
   128    62    60   ar
   129    46    47    1
   130   118   116   am
   131    60    61   ar
   132    30    31    1
   133    36    38   ar
   134    36    35   ar
   135   130   128   ar
   136    38    40   ar
   137    31    32    1
   138    31    34    1
   139   117   116    2
   140   106   107    2
   141   106   110   am
   142    49    48   ar
   143   116   115    1
   144   127   128    1
   145   127   124    1
   146   128   129   ar
   147    32    33    2
   148    34    35    1
   149    47    48    1
   150   110   111    1
   151    35    37   ar
   152    40    41    1
   153    40    39   ar
   154    48    50   ar
   155    22    20   ar
   156    22    23   ar
   157    20    19   ar
   158   126   125    2
   159   136   135    1
   160   125   131   am
   161   125   124    1
   162   132   131    1
   163   132   135    1
   164   132   133    1
   165   124   123    1
   166   115   114    1
   167    37    39   ar
   168   111   114    1
   169   111   112    1
   170    23    21   ar
   171   133   134    2
   172    19    18    1
   173    19    21   ar
   174   123   121   am
   175    18    15    1
   176   112   113    2
   177   112   119   am
   178    14    15    1
   179   119   120    1
   180    15    16    1
   181   121   120    1
   182   121   122    2
   183    29    13    1
   184    29    28    1
   185    16    24   am
   186    16    17    2
   187    24    25    1
   188    13    12    1
   189    28    25    1
   190    12     9    1
   191    25    26    1
   192    10     9    1
   193    10    11    2
   194     9     8    1
   195     4     3    2
   196    26    27    2
   197     8     3   am
   198     3     2    1
   199     2     5    1
   200     2     1    1
   201     5     7    1
   202     5     6    1
