@<TRIPOS>MOLECULE
tmp/3e1gA00.pdb
 123 117 0 0 0
SMALL
GASTEIGER

@<TRIPOS>ATOM
      1  N         -6.4040   12.6920   15.2900 N.3    21  ALA21      -0.1231
      2  CA        -6.2280   12.2020   13.8970 C.3    21  ALA21       0.1694
      3  C         -5.7140   10.7790   13.8700 C.2    21  ALA21       0.2592
      4  O         -5.2920   10.2190   14.9070 O.2    21  ALA21      -0.2718
      5  CB        -5.2540   13.1260   13.1160 C.3    21  ALA21       0.0304
      6  N         -5.8490   10.1550   12.6870 N.am   22  TYR22      -0.1962
      7  CA        -5.3100    8.8440   12.4120 C.3    22  TYR22       0.1771
      8  C         -3.7470    8.8810   12.4210 C.2    22  TYR22       0.2620
      9  O         -3.1430    9.7550   11.8470 O.2    22  TYR22      -0.2715
     10  CB        -5.8390    8.3720   11.0360 C.3    22  TYR22       0.0574
     11  CG        -5.4080    6.9920   10.6040 C.ar   22  TYR22      -0.0198
     12  CD1       -5.8670    5.8520   11.2540 C.ar   22  TYR22      -0.0009
     13  CD2       -4.5910    6.8230    9.4370 C.ar   22  TYR22      -0.0009
     14  CE1       -5.4690    4.5380   10.7970 C.ar   22  TYR22       0.0417
     15  CE2       -4.3400    5.5580    8.9000 C.ar   22  TYR22       0.0417
     16  CZ        -4.7780    4.4260    9.5640 C.ar   22  TYR22       0.1957
     17  OH        -4.3970    3.2040    9.0650 O.3    22  TYR22      -0.2866
     18  N         -3.1470    7.9000   13.0980 N.am   23  THR23      -0.1951
     19  CA        -1.7280    7.9390   13.5000 C.3    23  THR23       0.1897
     20  C         -1.3570    9.0970   14.4750 C.2    23  THR23       0.2313
     21  O         -0.2540    9.1480   14.9460 O.2    23  THR23      -0.2863
     22  CB        -0.7510    7.9740   12.3260 C.3    23  THR23       0.1794
     23  OG1       -0.5060    9.3180   11.9410 O.3    23  THR23      -0.2208
     24  CG2       -1.2290    7.1880   11.1750 C.3    23  THR23       0.0378
     25  N         -9.1620   15.5190   11.1550 N.3    92  SER92      -0.1202
     26  CA        -9.0580   14.4190   10.1740 C.3    92  SER92       0.2020
     27  C         -9.9440   13.2040   10.5630 C.2    92  SER92       0.2618
     28  O        -11.1270   13.3110   10.5950 O.2    92  SER92      -0.2717
     29  CB        -7.6010   14.0290   10.0040 C.3    92  SER92       0.2103
     30  OG        -7.3830   13.3400    8.7760 O.3    92  SER92      -0.2182
     31  N         -9.3450   12.1050   10.9610 N.am   93  LEU93      -0.1979
     32  CA       -10.1340   10.8960   11.3890 C.3    93  LEU93       0.1596
     33  C        -11.2030   11.2580   12.4360 C.2    93  LEU93       0.2287
     34  O        -12.3920   10.8700   12.3170 O.2    93  LEU93      -0.2864
     35  CB        -9.2040    9.8340   11.9660 C.3    93  LEU93       0.0297
     36  CG        -9.8770    8.5610   12.5180 C.3    93  LEU93       0.0022
     37  CD1      -10.4860    7.6820   11.3660 C.3    93  LEU93       0.0001
     38  CD2       -8.8380    7.7160   13.4150 C.3    93  LEU93       0.0001
     39  N        -14.5760   12.9120   11.1350 N.3    96  ILE96      -0.1245
     40  CA       -15.5960   11.9810   10.7060 C.3    96  ILE96       0.1561
     41  C        -16.4670   11.6100   11.8840 C.2    96  ILE96       0.2260
     42  O        -17.6640   11.5920   11.7810 O.2    96  ILE96      -0.2867
     43  CB       -14.9800   10.6430   10.0850 C.3    96  ILE96       0.0252
     44  CG1      -14.0800   10.9730    8.8980 C.3    96  ILE96       0.0019
     45  CG2      -16.0830    9.7270    9.6380 C.3    96  ILE96       0.0019
     46  CD1      -13.2160    9.7670    8.3660 C.3    96  ILE96       0.0001
     47  N        -10.8880   17.8420    7.7660 N.3   116  SER116     -0.1217
     48  CA       -11.6260   16.5590    7.5750 C.3   116  SER116      0.1889
     49  C        -12.8500   16.7820    6.6710 C.2   116  SER116      0.2288
     50  O        -13.9520   17.1270    7.1550 O.2   116  SER116     -0.2866
     51  CB       -12.0760   15.9880    8.9050 C.3   116  SER116      0.2089
     52  OG       -12.5050   14.6380    8.7550 O.3   116  SER116     -0.2183
     53  N         -2.4320    9.3340    2.4590 N.3   125  LEU125     -0.1245
     54  CA        -2.3670    8.7050    3.7740 C.3   125  LEU125      0.1561
     55  C         -1.4440    7.4910    3.7780 C.2   125  LEU125      0.2260
     56  O         -0.8650    7.1430    4.8230 O.2   125  LEU125     -0.2867
     57  CB        -3.7460    8.2950    4.2240 C.3   125  LEU125      0.0270
     58  CG        -4.7360    9.4500    4.4860 C.3   125  LEU125      0.0019
     59  CD1       -6.0560    8.9090    4.9660 C.3   125  LEU125      0.0001
     60  CD2       -4.1770   10.4350    5.4840 C.3   125  LEU125      0.0001
     61  N          1.9850    9.0890    4.0740 N.3   128  GLY128     -0.1210
     62  CA         1.9300    9.6360    5.4220 C.3   128  GLY128      0.1956
     63  C          2.1030    8.5910    6.5040 C.2   128  GLY128      0.2611
     64  O          2.9960    8.7070    7.3530 O.2   128  GLY128     -0.2717
     65  N          1.2890    7.5360    6.4560 N.am  129  PHE129     -0.1976
     66  CA         1.4180    6.4380    7.4440 C.3   129  PHE129      0.1639
     67  C          2.8550    5.8680    7.4700 C.2   129  PHE129      0.2290
     68  O          3.4200    5.6490    8.5370 O.2   129  PHE129     -0.2864
     69  CB         0.3920    5.2970    7.1640 C.3   129  PHE129      0.0560
     70  CG         0.1970    4.3330    8.3500 C.ar  129  PHE129     -0.0200
     71  CD1       -0.8960    4.4780    9.2290 C.ar  129  PHE129     -0.0042
     72  CD2        1.1310    3.3260    8.6180 C.ar  129  PHE129     -0.0042
     73  CE1       -1.1020    3.5630   10.2920 C.ar  129  PHE129     -0.0003
     74  CE2        0.9200    2.4120    9.6880 C.ar  129  PHE129     -0.0003
     75  CZ        -0.1580    2.5930   10.5610 C.ar  129  PHE129     -0.0000
     76  N        -11.9910    2.8190    6.8590 N.3   160  ILE160     -0.1231
     77  CA       -12.1750    4.2350    7.1550 C.3   160  ILE160      0.1692
     78  C        -13.0860    4.9250    6.1000 C.2   160  ILE160      0.2592
     79  O        -14.0880    5.5960    6.4580 O.2   160  ILE160     -0.2718
     80  CB       -10.8270    4.9700    7.2290 C.3   160  ILE160      0.0266
     81  CG1       -9.9920    4.4570    8.4710 C.3   160  ILE160      0.0019
     82  CG2      -11.0460    6.4590    7.3320 C.3   160  ILE160      0.0020
     83  CD1       -8.5360    5.0430    8.5370 C.3   160  ILE160      0.0001
     84  N        -12.7920    4.7040    4.8200 N.am  161  ASP161     -0.1974
     85  CA       -13.5220    5.3720    3.7600 C.3   161  ASP161      0.1709
     86  C        -14.9420    4.9210    3.7830 C.2   161  ASP161      0.2293
     87  O        -15.8820    5.7380    3.7170 O.2   161  ASP161     -0.2864
     88  CB       -12.9120    5.0670    2.3900 C.3   161  ASP161      0.1436
     89  CG       -11.7080    5.9020    2.0980 C.2   161  ASP161      0.3671
     90  OD1      -11.5310    6.9330    2.7570 O.co2 161  ASP161     -0.2456
     91  OD2      -10.9550    5.5590    1.1390 O.co2 161  ASP161     -0.2456
     92  N         -2.0700   15.9030    2.8780 N.3   188  LEU188     -0.1231
     93  CA        -2.5140   14.5280    3.2380 C.3   188  LEU188      0.1693
     94  C         -3.9130   14.1860    2.7600 C.2   188  LEU188      0.2591
     95  O         -4.1820   13.0420    2.4180 O.2   188  LEU188     -0.2718
     96  CB        -2.4310   14.3140    4.7750 C.3   188  LEU188      0.0284
     97  CG        -0.9990   14.1060    5.3320 C.3   188  LEU188      0.0019
     98  CD1       -0.9490   14.4740    6.8000 C.3   188  LEU188      0.0001
     99  CD2       -0.5420   12.6420    5.1100 C.3   188  LEU188      0.0001
    100  N         -4.8540   15.1200    2.9340 N.am  189  VAL189     -0.1980
    101  CA        -6.1730   14.9730    2.3450 C.3   189  VAL189      0.1595
    102  C         -6.4750   16.0940    1.3910 C.2   189  VAL189      0.2287
    103  O         -5.7760   17.0930    1.3490 O.2   189  VAL189     -0.2864
    104  CB        -7.3040   14.9010    3.4200 C.3   189  VAL189      0.0276
    105  CG1       -6.9650   13.8950    4.4810 C.3   189  VAL189      0.0022
    106  CG2       -7.5610   16.2690    4.0290 C.3   189  VAL189      0.0022
    107  N         -1.4980   20.2360    7.0790 N.3   217  HIS217     -0.1226
    108  CA        -2.7320   19.4880    7.5140 C.3   217  HIS217      0.1752
    109  C         -3.1040   19.7470    9.0150 C.2   217  HIS217      0.2595
    110  O         -4.2490   20.0360    9.3320 O.2   217  HIS217     -0.2718
    111  CB        -2.5150   18.0090    7.2940 C.3   217  HIS217      0.0759
    112  CG        -3.6440   17.1580    7.7540 C.ar  217  HIS217      0.0818
    113  ND1       -4.8890   17.1950    7.1650 N.ar  217  HIS217     -0.2268
    114  CD2       -3.6940   16.1700    8.6780 C.ar  217  HIS217      0.1154
    115  CE1       -5.6660   16.2970    7.7360 C.ar  217  HIS217      0.1986
    116  NE2       -4.9740   15.6900    8.6870 N.ar  217  HIS217     -0.2212
    117  N         -2.1470   19.4980    9.9150 N.am  218  VAL218     -0.1980
    118  CA        -2.4290   19.4960   11.3460 C.3   218  VAL218      0.1595
    119  C         -2.4850   20.9170   11.8760 C.2   218  VAL218      0.2287
    120  O         -1.6610   21.3390   12.6600 O.2   218  VAL218     -0.2864
    121  CB        -1.4040   18.6270   12.1510 C.3   218  VAL218      0.0276
    122  CG1       -1.8790   18.4540   13.6050 C.3   218  VAL218      0.0022
    123  CG2       -1.2230   17.2380   11.4800 C.3   218  VAL218      0.0022
@<TRIPOS>BOND
     1    91    89   ar
     2   103   102    2
     3   102   101    1
     4    89    88    1
     5    89    90   ar
     6   101   100    1
     7   101   104    1
     8    88    85    1
     9    95    94    2
    10    53    54    1
    11    94   100   am
    12    94    93    1
    13    92    93    1
    14    93    96    1
    15   104   106    1
    16   104   105    1
    17    87    86    2
    18    85    86    1
    19    85    84    1
    20    54    55    1
    21    54    57    1
    22    55    56    2
    23    61    62    1
    24    57    58    1
    25    58    59    1
    26    58    60    1
    27    96    97    1
    28    84    78   am
    29    99    97    1
    30    97    98    1
    31    62    63    1
    32    78    79    2
    33    78    77    1
    34    65    63   am
    35    65    66    1
    36    63    64    2
    37    49    50    2
    38    49    48    1
    39    76    77    1
    40   107   108    1
    41    77    80    1
    42    69    66    1
    43    69    70    1
    44   113   115   ar
    45   113   112   ar
    46    80    82    1
    47    80    81    1
    48   111   108    1
    49   111   112    1
    50    66    67    1
    51    67    68    2
    52   108   109    1
    53    48    47    1
    54    48    51    1
    55   115   116   ar
    56   112   114   ar
    57    70    72   ar
    58    70    71   ar
    59    46    44    1
    60    81    83    1
    61    72    74   ar
    62   114   116   ar
    63    52    51    1
    64    30    29    1
    65    44    43    1
    66    15    13   ar
    67    15    16   ar
    68   109   110    2
    69   109   117   am
    70    17    16    1
    71    71    73   ar
    72    13    11   ar
    73    16    14   ar
    74    45    43    1
    75    74    75   ar
    76   117   118    1
    77    29    26    1
    78    43    40    1
    79    26    27    1
    80    26    25    1
    81    73    75   ar
    82    27    28    2
    83    27    31   am
    84    11    10    1
    85    11    12   ar
    86    40    39    1
    87    40    41    1
    88    14    12   ar
    89    31    32    1
    90    10     7    1
    91    24    22    1
    92   118   119    1
    93   118   121    1
    94    37    36    1
    95    32    35    1
    96    32    33    1
    97   123   121    1
    98    42    41    2
    99     9     8    2
   100   119   120    2
   101    23    22    1
   102    35    36    1
   103   121   122    1
   104    34    33    2
   105    22    19    1
   106     7     8    1
   107     7     6    1
   108     8    18   am
   109    36    38    1
   110     6     3   am
   111    18    19    1
   112     5     2    1
   113    19    20    1
   114     3     2    1
   115     3     4    2
   116     2     1    1
   117    20    21    2
