@<TRIPOS>MOLECULE
tmp/3e1lK00.pdb
 112 104 0 0 0
SMALL
GASTEIGER

@<TRIPOS>ATOM
      1  N        -52.2840    0.0900   -6.5010 N.3    19  LEU19      -0.1245
      2  CA       -52.1280    0.3890   -5.0940 C.3    19  LEU19       0.1561
      3  C        -53.4460    0.8670   -4.5020 C.2    19  LEU19       0.2260
      4  O        -53.8050    0.4920   -3.3960 O.2    19  LEU19      -0.2867
      5  CB       -51.0080    1.4160   -4.8650 C.3    19  LEU19       0.0270
      6  CG       -49.6230    0.8980   -5.2750 C.3    19  LEU19       0.0019
      7  CD1      -48.5550    1.9740   -5.1610 C.3    19  LEU19       0.0001
      8  CD2      -49.2250   -0.3250   -4.4830 C.3    19  LEU19       0.0001
      9  N        -55.8140   -2.2470   -4.3550 N.3    22  ILE22      -0.1231
     10  CA       -55.3890   -3.1570   -3.3030 C.3    22  ILE22       0.1692
     11  C        -56.0560   -2.7280   -1.9950 C.2    22  ILE22       0.2592
     12  O        -56.7630   -3.5260   -1.3530 O.2    22  ILE22      -0.2718
     13  CB       -53.8390   -3.1880   -3.1640 C.3    22  ILE22       0.0266
     14  CG1      -53.1910   -3.9910   -4.3020 C.3    22  ILE22       0.0019
     15  CG2      -53.3880   -3.7590   -1.7960 C.3    22  ILE22       0.0020
     16  CD1      -51.6740   -3.7500   -4.4040 C.3    22  ILE22       0.0001
     17  N        -55.8720   -1.4640   -1.6290 N.am   23  ASN23      -0.1974
     18  CA       -56.3990   -0.9490   -0.3690 C.3    23  ASN23       0.1688
     19  C        -57.9250   -0.8990   -0.3350 C.2    23  ASN23       0.2292
     20  O        -58.5490   -1.2840    0.6600 O.2    23  ASN23      -0.2864
     21  CB       -55.8170    0.4350   -0.0650 C.3    23  ASN23       0.1181
     22  CG       -54.3610    0.3800    0.3890 C.2    23  ASN23       0.2629
     23  OD1      -53.7970    1.4000    0.7790 O.2    23  ASN23      -0.2716
     24  ND2      -53.7480   -0.7900    0.3380 N.am   23  ASN23      -0.0877
     25  N        -59.3370   -4.3830   -0.1580 N.3    26  PHE26      -0.1241
     26  CA       -59.0720   -4.9870    1.1370 C.3    26  PHE26       0.1605
     27  C        -60.0040   -4.4830    2.2360 C.2    26  PHE26       0.2264
     28  O        -60.5570   -5.2690    3.0140 O.2    26  PHE26      -0.2867
     29  CB       -57.6200   -4.8460    1.5630 C.3    26  PHE26       0.0534
     30  CG       -57.2090   -5.9200    2.4900 C.ar   26  PHE26      -0.0203
     31  CD1      -56.7270   -7.1350    1.9880 C.ar   26  PHE26      -0.0042
     32  CD2      -57.3840   -5.7730    3.8650 C.ar   26  PHE26      -0.0042
     33  CE1      -56.3820   -8.1890    2.8540 C.ar   26  PHE26      -0.0003
     34  CE2      -57.0460   -6.8060    4.7540 C.ar   26  PHE26      -0.0003
     35  CZ       -56.5430   -8.0160    4.2590 C.ar   26  PHE26      -0.0000
     36  N        -63.1180   -6.5720    4.2740 N.3    30  ARG30      -0.1245
     37  CA       -63.2410   -6.8020    5.7070 C.3    30  ARG30       0.1563
     38  C        -64.4800   -6.1080    6.2640 C.2    30  ARG30       0.2260
     39  O        -64.9880   -6.4950    7.3280 O.2    30  ARG30      -0.2867
     40  CB       -61.9660   -6.4550    6.4450 C.3    30  ARG30       0.0307
     41  CG       -60.7530   -7.1380    5.8750 C.3    30  ARG30       0.0489
     42  CD       -60.3960   -8.4520    6.5260 C.3    30  ARG30       0.2205
     43  NE       -60.6570   -9.5520    5.6230 N.pl3  30  ARG30      -0.0865
     44  CZ       -59.8200  -10.5360    5.2870 C.cat  30  ARG30       0.5346
     45  NH1      -58.6070  -10.6360    5.7860 N.pl3  30  ARG30       0.1354
     46  NH2      -60.2440  -11.4510    4.4350 N.pl3  30  ARG30       0.1354
     47  N        -61.6390  -10.1130   -1.0940 N.3    45  TYR45      -0.1241
     48  CA       -60.2880  -10.3390   -0.6280 C.3    45  TYR45       0.1605
     49  C        -59.4270  -10.9270   -1.7310 C.2    45  TYR45       0.2264
     50  O        -58.2780  -10.4970   -1.9110 O.2    45  TYR45      -0.2867
     51  CB       -60.2960  -11.2400    0.5920 C.3    45  TYR45       0.0534
     52  CG       -58.9500  -11.7710    1.0190 C.ar   45  TYR45      -0.0201
     53  CD1      -58.1200  -11.0390    1.8750 C.ar   45  TYR45      -0.0009
     54  CD2      -58.5130  -13.0220    0.5810 C.ar   45  TYR45      -0.0009
     55  CE1      -56.8960  -11.5370    2.2830 C.ar   45  TYR45       0.0417
     56  CE2      -57.2750  -13.5300    0.9760 C.ar   45  TYR45       0.0417
     57  CZ       -56.4820  -12.7860    1.8280 C.ar   45  TYR45       0.1957
     58  OH       -55.2620  -13.3240    2.2060 O.3    45  TYR45      -0.2866
     59  N        -55.9060   -9.5940   -3.4670 N.3    49  ILE49      -0.1245
     60  CA       -54.7080  -10.3920   -3.7340 C.3    49  ILE49       0.1561
     61  C        -54.3500  -10.2950   -5.2120 C.2    49  ILE49       0.2260
     62  O        -53.1940  -10.1560   -5.5720 O.2    49  ILE49      -0.2867
     63  CB       -54.9230  -11.8850   -3.3460 C.3    49  ILE49       0.0252
     64  CG1      -55.2710  -12.0360   -1.8560 C.3    49  ILE49       0.0019
     65  CG2      -53.7430  -12.7470   -3.7340 C.3    49  ILE49       0.0019
     66  CD1      -54.3360  -11.3300   -0.9060 C.3    49  ILE49       0.0001
     67  N        -52.5970   -7.1580   -5.9790 N.3    52  MET52      -0.1230
     68  CA       -51.2330   -7.2670   -5.4440 C.3    52  MET52       0.1702
     69  C        -50.3180   -7.9770   -6.4110 C.2    52  MET52       0.2592
     70  O        -49.1840   -7.5520   -6.6100 O.2    52  MET52      -0.2718
     71  CB       -51.2090   -8.0300   -4.1390 C.3    52  MET52       0.0401
     72  CG       -51.8920   -7.3350   -3.0130 C.3    52  MET52       0.0596
     73  SD       -51.8980   -8.3580   -1.5230 S.3    52  MET52      -0.1393
     74  CE       -53.4880   -7.7830   -0.8190 C.3    52  MET52       0.0692
     75  N        -50.8140   -9.0540   -7.0160 N.am   53  LYS53      -0.1980
     76  CA       -50.0790   -9.7480   -8.0590 C.3    53  LYS53       0.1596
     77  C        -49.7840   -8.8250   -9.2330 C.2    53  LYS53       0.2287
     78  O        -48.6760   -8.8470   -9.7650 O.2    53  LYS53      -0.2864
     79  CB       -50.8300  -10.9850   -8.5240 C.3    53  LYS53       0.0298
     80  CG       -50.9660  -12.0500   -7.4480 C.3    53  LYS53       0.0038
     81  CD       -51.5570  -13.3450   -8.0070 C.3    53  LYS53       0.0206
     82  CE       -51.6300  -14.4290   -6.9090 C.3    53  LYS53       0.1093
     83  NZ       -52.5220  -15.5650   -7.3070 N.3    53  LYS53      -0.1314
     84  N        -49.5590   -5.4710   -9.1350 N.3    55  ALA55      -0.1231
     85  CA       -48.5840   -4.5070   -8.6540 C.3    55  ALA55       0.1694
     86  C        -47.1890   -5.1230   -8.7040 C.2    55  ALA55       0.2592
     87  O        -46.2410   -4.4860   -9.1480 O.2    55  ALA55      -0.2718
     88  CB       -48.9240   -4.0530   -7.2460 C.3    55  ALA55       0.0304
     89  N        -47.0770   -6.3790   -8.2840 N.am   56  ASP56      -0.1974
     90  CA       -45.8110   -7.0700   -8.2630 C.3    56  ASP56       0.1709
     91  C        -45.2470   -7.1390   -9.6850 C.2    56  ASP56       0.2293
     92  O        -44.0570   -6.8820   -9.9010 O.2    56  ASP56      -0.2864
     93  CB       -46.0060   -8.4570   -7.6700 C.3    56  ASP56       0.1436
     94  CG       -44.7050   -9.1630   -7.3690 C.2    56  ASP56       0.3671
     95  OD1      -43.6410   -8.5070   -7.3030 O.co2  56  ASP56      -0.2456
     96  OD2      -44.7270  -10.4020   -7.1890 O.co2  56  ASP56      -0.2456
     97  N        -43.9560   -3.6760  -10.6340 N.3    59  ILE59      -0.1245
     98  CA       -42.7400   -3.3840   -9.8980 C.3    59  ILE59       0.1561
     99  C        -41.5230   -4.0920  -10.5200 C.2    59  ILE59       0.2260
    100  O        -40.4980   -3.4500  -10.7790 O.2    59  ILE59      -0.2867
    101  CB       -42.8490   -3.6860   -8.3890 C.3    59  ILE59       0.0252
    102  CG1      -43.8460   -2.7420   -7.7250 C.3    59  ILE59       0.0019
    103  CG2      -41.4970   -3.5050   -7.7060 C.3    59  ILE59       0.0019
    104  CD1      -44.4150   -3.2730   -6.3940 C.3    59  ILE59       0.0001
    105  N        -44.1310    3.7280   -5.0530 N.3    71  LEU71      -0.1245
    106  CA       -45.1500    3.2340   -4.1390 C.3    71  LEU71       0.1561
    107  C        -45.4800    4.2960   -3.0860 C.2    71  LEU71       0.2260
    108  O        -46.1770    4.0150   -2.1150 O.2    71  LEU71      -0.2867
    109  CB       -44.6720    1.9460   -3.4690 C.3    71  LEU71       0.0270
    110  CG       -44.6500    0.6800   -4.3320 C.3    71  LEU71       0.0019
    111  CD1      -43.4780    0.6740   -5.2860 C.3    71  LEU71       0.0001
    112  CD2      -44.6520   -0.5930   -3.4580 C.3    71  LEU71       0.0001
@<TRIPOS>BOND
     1   100    99    2
     2    97    98    1
     3    99    98    1
     4    92    91    2
     5    98   101    1
     6    78    77    2
     7    91    90    1
     8    77    76    1
     9    87    86    2
    10    84    85    1
    11    86    85    1
    12    86    89   am
    13    85    88    1
    14    79    76    1
    15    79    80    1
    16   101   102    1
    17   101   103    1
    18    89    90    1
    19    90    93    1
    20    76    75    1
    21    81    80    1
    22    81    82    1
    23   102   104    1
    24    93    94    1
    25    94    95   ar
    26    94    96   ar
    27    83    82    1
    28    75    69   am
    29    70    69    2
    30     1     2    1
    31    69    68    1
    32    67    68    1
    33    62    61    2
    34    68    71    1
    35   111   110    1
    36     6     7    1
    37     6     5    1
    38     6     8    1
    39    61    60    1
    40     2     5    1
    41     2     3    1
    42   105   106    1
    43     3     4    2
    44    16    14    1
    45     9    10    1
    46   110   109    1
    47   110   112    1
    48    14    13    1
    49    71    72    1
    50   106   109    1
    51   106   107    1
    52    65    63    1
    53    60    59    1
    54    60    63    1
    55    63    64    1
    56    10    13    1
    57    10    11    1
    58    13    15    1
    59   107   108    2
    60    72    73    1
    61    11    17   am
    62    11    12    2
    63    50    49    2
    64    64    66    1
    65    49    48    1
    66    17    18    1
    67    73    74    1
    68    47    48    1
    69    48    51    1
    70    18    19    1
    71    18    21    1
    72    19    20    2
    73    25    26    1
    74    21    22    1
    75    24    22   am
    76    22    23    2
    77    54    56   ar
    78    54    52   ar
    79    51    52    1
    80    56    57   ar
    81    52    53   ar
    82    26    29    1
    83    26    27    1
    84    29    30    1
    85    57    58    1
    86    57    55   ar
    87    53    55   ar
    88    31    30   ar
    89    31    33   ar
    90    27    28    2
    91    30    32   ar
    92    33    35   ar
    93    32    34   ar
    94    35    34   ar
    95    36    37    1
    96    46    44    1
    97    44    43    2
    98    44    45    1
    99    43    42    1
   100    37    38    1
   101    37    40    1
   102    41    40    1
   103    41    42    1
   104    38    39    2
