@<TRIPOS>MOLECULE
tmp/3e1yB01.pdb
 72 66 0 0 0
SMALL
GASTEIGER

@<TRIPOS>ATOM
      1  N        -25.7960   99.8910   23.0420 N.3    26  THR26      -0.1218
      2  CA       -25.6570  101.0600   22.1500 C.3    26  THR26       0.1862
      3  C        -25.6370  102.4090   22.9100 C.2    26  THR26       0.2287
      4  O        -26.6360  103.1340   22.9570 O.2    26  THR26      -0.2866
      5  CB       -26.6720  101.0550   20.9440 C.3    26  THR26       0.1770
      6  OG1      -28.0200  100.8700   21.4110 O.3    26  THR26      -0.2211
      7  CG2      -26.3070   99.9540   19.9260 C.3    26  THR26       0.0375
      8  N        -34.7930  111.9150   18.9870 N.3    49  GLU49      -0.1245
      9  CA       -34.0710  110.6730   19.2550 C.3    49  GLU49       0.1567
     10  C        -34.2110  110.1740   20.6880 C.2    49  GLU49       0.2260
     11  O        -34.4310  108.9880   20.9190 O.2    49  GLU49      -0.2867
     12  CB       -32.5980  110.8420   18.9270 C.3    49  GLU49       0.0388
     13  CG       -32.2590  110.3800   17.5440 C.3    49  GLU49       0.1160
     14  CD       -32.4430  108.8880   17.4040 C.2    49  GLU49       0.3649
     15  OE1      -31.5450  108.1180   17.8300 O.co2  49  GLU49      -0.2457
     16  OE2      -33.4990  108.4880   16.8790 O.co2  49  GLU49      -0.2457
     17  N        -37.5720  108.5180   20.7990 N.3    52  THR52      -0.1203
     18  CA       -37.8880  107.1640   20.3770 C.3    52  THR52       0.1994
     19  C        -37.1320  106.0820   21.1840 C.2    52  THR52       0.2617
     20  O        -37.7030  105.0310   21.5150 O.2    52  THR52      -0.2717
     21  CB       -37.7720  106.9830   18.8320 C.3    52  THR52       0.1784
     22  OG1      -36.5290  107.5190   18.3620 O.3    52  THR52      -0.2211
     23  CG2      -38.9140  107.7020   18.1340 C.3    52  THR52       0.0376
     24  N        -35.8680  106.3400   21.5220 N.am   53  ALA53      -0.1979
     25  CA       -35.1220  105.4310   22.4010 C.3    53  ALA53       0.1597
     26  C        -35.6660  105.5680   23.8220 C.2    53  ALA53       0.2287
     27  O        -35.0600  105.1210   24.7970 O.2    53  ALA53      -0.2864
     28  CB       -33.6370  105.7340   22.3550 C.3    53  ALA53       0.0319
     29  N        -38.4000  104.1150   24.3290 N.3    55  ASN55      -0.1225
     30  CA       -38.8680  102.7330   24.5010 C.3    55  ASN55       0.1785
     31  C        -37.7330  101.6950   24.5020 C.2    55  ASN55       0.2597
     32  O        -37.3100  101.2130   25.5610 O.2    55  ASN55      -0.2718
     33  CB       -39.9550  102.3560   23.4850 C.3    55  ASN55       0.1169
     34  CG       -40.7790  101.1410   23.9390 C.2    55  ASN55       0.2627
     35  OD1      -40.3980   99.9830   23.7110 O.2    55  ASN55      -0.2716
     36  ND2      -41.9110  101.4070   24.5970 N.am   55  ASN55      -0.0877
     37  N        -37.2490  101.3360   23.3190 N.am   56  ILE56      -0.1966
     38  CA       -36.0320  100.5440   23.2470 C.3    56  ILE56       0.1727
     39  C        -36.2660   99.1060   23.7160 C.2    56  ILE56       0.2616
     40  O        -35.7890   98.1570   23.0990 O.2    56  ILE56      -0.2715
     41  CB       -34.9000  101.2180   24.0850 C.3    56  ILE56       0.0290
     42  CG1      -33.9290  102.0050   23.1940 C.3    56  ILE56       0.0022
     43  CG2      -34.1730  100.2000   24.9380 C.3    56  ILE56       0.0023
     44  CD1      -32.8640  101.1580   22.5680 C.3    56  ILE56       0.0001
     45  N        -37.0140   98.9540   24.8020 N.am   57  LYS57      -0.1963
     46  CA       -37.3060   97.6380   25.3660 C.3    57  LYS57       0.1728
     47  C        -36.0400   96.8240   25.5540 C.2    57  LYS57       0.2616
     48  O        -35.9380   95.7200   25.0520 O.2    57  LYS57      -0.2715
     49  CB       -38.2860   96.8610   24.4820 C.3    57  LYS57       0.0311
     50  CG       -39.4250   96.1600   25.2410 C.3    57  LYS57       0.0038
     51  CD       -38.9340   95.3320   26.4310 C.3    57  LYS57       0.0206
     52  CE       -39.9840   94.3220   26.9090 C.3    57  LYS57       0.1093
     53  NZ       -40.0510   93.0920   26.0570 N.3    57  LYS57      -0.1314
     54  N        -35.0750   97.3840   26.2690 N.am   58  SER58      -0.1950
     55  CA       -33.8590   96.6610   26.6290 C.3    58  SER58       0.1924
     56  C        -33.1590   97.3570   27.7820 C.2    58  SER58       0.2314
     57  O        -31.9470   97.6020   27.7510 O.2    58  SER58      -0.2863
     58  CB       -32.9090   96.5250   25.4470 C.3    58  SER58       0.2116
     59  OG       -31.7900   95.7330   25.8090 O.3    58  SER58      -0.2180
     60  N        -28.4700  104.7600   26.4330 N.3    65  VAL65      -0.1245
     61  CA       -28.7000  105.5480   25.2230 C.3    65  VAL65       0.1561
     62  C        -29.1500  106.9400   25.5980 C.2    65  VAL65       0.2260
     63  O        -28.6170  107.9310   25.1070 O.2    65  VAL65      -0.2867
     64  CB       -29.8300  104.9800   24.3750 C.3    65  VAL65       0.0252
     65  CG1      -29.8270  105.6370   23.0130 C.3    65  VAL65       0.0019
     66  CG2      -29.7090  103.4740   24.2570 C.3    65  VAL65       0.0019
     67  N        -24.9400  105.8610   16.8510 N.3   121  CYS121     -0.1235
     68  CA       -24.5480  105.2350   18.1150 C.3   121  CYS121      0.1677
     69  C        -24.3300  103.7500   17.9400 C.2   121  CYS121      0.2270
     70  O        -25.2790  102.9650   17.9200 O.2   121  CYS121     -0.2867
     71  CB       -25.5850  105.4490   19.2100 C.3   121  CYS121      0.0956
     72  SG       -26.8600  106.6150   18.7710 S.3   121  CYS121     -0.0801
@<TRIPOS>BOND
     1    67    68    1
     2    16    14   ar
     3    14    13    1
     4    14    15   ar
     5    13    12    1
     6    70    69    2
     7    69    68    1
     8    68    71    1
     9    23    21    1
    10    22    21    1
    11    72    71    1
    12    21    18    1
    13    12     9    1
    14     8     9    1
    15     9    10    1
    16     7     5    1
    17    18    17    1
    18    18    19    1
    19    10    11    2
    20     5     6    1
    21     5     2    1
    22    19    20    2
    23    19    24   am
    24    24    25    1
    25     2     3    1
    26     2     1    1
    27    28    25    1
    28    25    26    1
    29    44    42    1
    30     3     4    2
    31    65    64    1
    32    40    39    2
    33    42    41    1
    34    38    37    1
    35    38    39    1
    36    38    41    1
    37    37    31   am
    38    33    34    1
    39    33    30    1
    40    35    34    2
    41    39    45   am
    42    26    27    2
    43    34    36   am
    44    41    43    1
    45    66    64    1
    46    29    30    1
    47    64    61    1
    48    49    50    1
    49    49    46    1
    50    30    31    1
    51    31    32    2
    52    45    46    1
    53    48    47    2
    54    63    62    2
    55    61    62    1
    56    61    60    1
    57    50    51    1
    58    46    47    1
    59    58    59    1
    60    58    55    1
    61    47    54   am
    62    53    52    1
    63    54    55    1
    64    51    52    1
    65    55    56    1
    66    57    56    2
