@<TRIPOS>MOLECULE
tmp/3e2mA00.pdb
 192 181 0 0 0
SMALL
GASTEIGER

@<TRIPOS>ATOM
      1  N         -7.4900   19.8180  -13.7250 N.3     3  VAL3       -0.1245
      2  CA        -8.0450   19.8210  -12.3770 C.3     3  VAL3        0.1561
      3  C         -7.3200   18.7860  -11.5250 C.2     3  VAL3        0.2260
      4  O         -7.3520   17.5880  -11.8280 O.2     3  VAL3       -0.2867
      5  CB        -9.5980   19.5950  -12.3560 C.3     3  VAL3        0.0252
      6  CG1      -10.1080   19.4080  -10.9210 C.3     3  VAL3        0.0019
      7  CG2      -10.3260   20.7670  -13.0070 C.3     3  VAL3        0.0019
      8  N         -7.4510   17.0730   -8.0320 N.3     5  LEU5       -0.1245
      9  CA        -8.4860   16.8450   -7.0230 C.3     5  LEU5        0.1561
     10  C         -8.0860   15.8250   -5.9750 C.2     5  LEU5        0.2260
     11  O         -7.7700   14.6760   -6.2990 O.2     5  LEU5       -0.2867
     12  CB        -9.8080   16.4170   -7.6950 C.3     5  LEU5        0.0270
     13  CG       -11.0800   16.2410   -6.8550 C.3     5  LEU5        0.0019
     14  CD1      -12.2730   16.6410   -7.6670 C.3     5  LEU5        0.0001
     15  CD2      -11.2480   14.7840   -6.3330 C.3     5  LEU5        0.0001
     16  N         -9.2840   13.6510   -2.6500 N.3     7  PHE7       -0.1241
     17  CA       -10.2680   13.1540   -1.7130 C.3     7  PHE7        0.1605
     18  C         -9.6330   13.1260   -0.3130 C.2     7  PHE7        0.2264
     19  O         -8.6590   12.4110   -0.0750 O.2     7  PHE7       -0.2867
     20  CB       -10.7290   11.7530   -2.1160 C.3     7  PHE7        0.0534
     21  CG       -11.5280   11.7160   -3.3940 C.ar    7  PHE7       -0.0203
     22  CD1      -10.9100   11.4390   -4.6110 C.ar    7  PHE7       -0.0042
     23  CD2      -12.9050   11.9280   -3.3760 C.ar    7  PHE7       -0.0042
     24  CE1      -11.6600   11.3820   -5.7960 C.ar    7  PHE7       -0.0003
     25  CE2      -13.6560   11.8680   -4.5480 C.ar    7  PHE7       -0.0003
     26  CZ       -13.0290   11.6060   -5.7570 C.ar    7  PHE7       -0.0000
     27  N        -17.6510    5.2690   -3.1690 N.3    26  PHE26      -0.1241
     28  CA       -18.0330    6.5560   -3.7700 C.3    26  PHE26       0.1605
     29  C        -16.8760    7.2080   -4.5320 C.2    26  PHE26       0.2264
     30  O        -17.0280    7.6180   -5.6840 O.2    26  PHE26      -0.2867
     31  CB       -18.5480    7.5120   -2.6850 C.3    26  PHE26       0.0534
     32  CG       -18.9240    8.8750   -3.1860 C.ar   26  PHE26      -0.0203
     33  CD1      -20.0900    9.0650   -3.9300 C.ar   26  PHE26      -0.0042
     34  CD2      -18.1350    9.9900   -2.8800 C.ar   26  PHE26      -0.0042
     35  CE1      -20.4490   10.3420   -4.3910 C.ar   26  PHE26      -0.0003
     36  CE2      -18.4910   11.2750   -3.3370 C.ar   26  PHE26      -0.0003
     37  CZ       -19.6560   11.4420   -4.0890 C.ar   26  PHE26      -0.0000
     38  N        -16.5360    7.9400   -8.6200 N.3    30  VAL30      -0.1245
     39  CA       -16.2440    9.2520   -9.1990 C.3    30  VAL30       0.1561
     40  C        -15.0350    9.1720  -10.1310 C.2    30  VAL30       0.2260
     41  O        -15.1170    9.5760  -11.2890 O.2    30  VAL30      -0.2867
     42  CB       -16.0300   10.3420   -8.1250 C.3    30  VAL30       0.0252
     43  CG1      -15.6460   11.6670   -8.7830 C.3    30  VAL30       0.0019
     44  CG2      -17.2870   10.5380   -7.3040 C.3    30  VAL30       0.0019
     45  N        -14.5550    9.8090  -14.3320 N.3    34  LEU34      -0.1245
     46  CA       -13.7360   10.9030  -14.8480 C.3    34  LEU34       0.1561
     47  C        -12.3620   10.4610  -15.3870 C.2    34  LEU34       0.2260
     48  O        -11.4330   11.2680  -15.5130 O.2    34  LEU34      -0.2867
     49  CB       -13.6340   12.0300  -13.8070 C.3    34  LEU34       0.0270
     50  CG       -14.9690   12.6900  -13.4530 C.3    34  LEU34       0.0019
     51  CD1      -14.8880   13.3500  -12.0840 C.3    34  LEU34       0.0001
     52  CD2      -15.3980   13.7000  -14.5490 C.3    34  LEU34       0.0001
     53  N         -8.8150   15.6070  -15.2150 N.3    39  TYR39      -0.1241
     54  CA        -8.7880   15.3450  -13.7750 C.3    39  TYR39       0.1605
     55  C         -7.6770   14.3640  -13.4460 C.2    39  TYR39       0.2264
     56  O         -7.5300   13.3560  -14.1180 O.2    39  TYR39      -0.2867
     57  CB       -10.1140   14.7350  -13.2860 C.3    39  TYR39       0.0534
     58  CG       -11.2860   15.6870  -13.2010 C.ar   39  TYR39      -0.0201
     59  CD1      -12.0140   16.0290  -14.3360 C.ar   39  TYR39      -0.0009
     60  CD2      -11.6750   16.2410  -11.9840 C.ar   39  TYR39      -0.0009
     61  CE1      -13.0850   16.9020  -14.2710 C.ar   39  TYR39       0.0417
     62  CE2      -12.7500   17.1120  -11.9020 C.ar   39  TYR39       0.0417
     63  CZ       -13.4490   17.4400  -13.0550 C.ar   39  TYR39       0.1957
     64  OH       -14.5140   18.3080  -12.9980 O.3    39  TYR39      -0.2866
     65  N         -6.1410   23.7960  -11.6460 N.3   104  THR104     -0.1218
     66  CA        -7.1660   24.1180  -10.6620 C.3   104  THR104      0.1862
     67  C         -7.1190   23.0600   -9.5550 C.2   104  THR104      0.2287
     68  O         -7.1270   21.8560   -9.8240 O.2   104  THR104     -0.2866
     69  CB        -8.5690   24.1800  -11.3010 C.3   104  THR104      0.1770
     70  OG1       -8.5840   25.2110  -12.2930 O.3   104  THR104     -0.2211
     71  CG2       -9.6420   24.4910  -10.2500 C.3   104  THR104      0.0375
     72  N         -8.7880   21.1560   -6.4440 N.3   106  VAL106     -0.1245
     73  CA       -10.0560   20.8250   -5.7890 C.3   106  VAL106      0.1561
     74  C         -9.8210   19.8910   -4.6020 C.2   106  VAL106      0.2260
     75  O         -9.0080   18.9660   -4.6740 O.2   106  VAL106     -0.2867
     76  CB       -11.1130   20.2070   -6.7550 C.3   106  VAL106      0.0252
     77  CG1      -12.4310   19.9230   -6.0090 C.3   106  VAL106      0.0019
     78  CG2      -11.3830   21.1230   -7.9320 C.3   106  VAL106      0.0019
     79  N        -12.1520   17.6140   -1.9880 N.3   108  ILE108     -0.1245
     80  CA       -13.4130   17.0280   -1.5510 C.3   108  ILE108      0.1561
     81  C        -13.1680   16.4090   -0.1780 C.2   108  ILE108      0.2260
     82  O        -12.4000   15.4500   -0.0560 O.2   108  ILE108     -0.2867
     83  CB       -13.9240   15.9050   -2.5150 C.3   108  ILE108      0.0252
     84  CG1      -14.0220   16.3910   -3.9760 C.3   108  ILE108      0.0019
     85  CG2      -15.2490   15.3130   -2.0170 C.3   108  ILE108      0.0019
     86  CD1      -14.7500   17.7410   -4.2080 C.3   108  ILE108      0.0001
     87  N        -10.3540   25.2600   -4.1180 N.3   128  ILE128     -0.1245
     88  CA       -11.8230   25.1390   -4.1050 C.3   128  ILE128      0.1561
     89  C        -12.2150   23.9490   -3.2330 C.2   128  ILE128      0.2260
     90  O        -11.9020   22.7900   -3.5630 O.2   128  ILE128     -0.2867
     91  CB       -12.4090   24.9320   -5.5220 C.3   128  ILE128      0.0252
     92  CG1      -11.8670   25.9840   -6.4990 C.3   128  ILE128      0.0019
     93  CG2      -13.9470   24.9360   -5.4710 C.3   128  ILE128      0.0019
     94  CD1      -12.0410   25.6090   -7.9350 C.3   128  ILE128      0.0001
     95  N        -14.9490   21.5550   -1.1580 N.3   130  TYR130     -0.1227
     96  CA       -16.2850   20.9730   -0.9750 C.3   130  TYR130      0.1736
     97  C        -16.2110   20.0290    0.2120 C.2   130  TYR130      0.2595
     98  O        -15.1980   19.3360    0.3890 O.2   130  TYR130     -0.2718
     99  CB       -16.7160   20.1500   -2.1980 C.3   130  TYR130      0.0548
    100  CG       -16.9440   20.9370   -3.4610 C.ar  130  TYR130     -0.0200
    101  CD1      -15.8700   21.3040   -4.2820 C.ar  130  TYR130     -0.0009
    102  CD2      -18.2350   21.2870   -3.8560 C.ar  130  TYR130     -0.0009
    103  CE1      -16.0760   22.0210   -5.4570 C.ar  130  TYR130      0.0417
    104  CE2      -18.4580   22.0060   -5.0350 C.ar  130  TYR130      0.0417
    105  CZ       -17.3780   22.3740   -5.8240 C.ar  130  TYR130      0.1957
    106  OH       -17.6030   23.0810   -6.9780 O.3   130  TYR130     -0.2866
    107  N        -17.2730   20.0060    1.0160 N.am  131  ILE131     -0.1966
    108  CA       -17.3510   19.1110    2.1750 C.3   131  ILE131      0.1727
    109  C        -18.6800   18.3220    2.2250 C.2   131  ILE131      0.2616
    110  O        -19.7620   18.8980    2.1070 O.2   131  ILE131     -0.2715
    111  CB       -17.0270   19.8550    3.5140 C.3   131  ILE131      0.0290
    112  CG1      -16.8570   18.8560    4.6620 C.3   131  ILE131      0.0022
    113  CG2      -18.0950   20.9100    3.8460 C.3   131  ILE131      0.0023
    114  CD1      -16.1900   19.4220    5.9180 C.3   131  ILE131      0.0001
    115  N        -18.5630   16.9970    2.3630 N.am  132  ILE132     -0.1977
    116  CA       -19.7050   16.0940    2.5340 C.3   132  ILE132      0.1596
    117  C        -19.7200   15.6190    3.9800 C.2   132  ILE132      0.2287
    118  O        -18.7610   14.9950    4.4480 O.2   132  ILE132     -0.2864
    119  CB       -19.6350   14.8680    1.5690 C.3   132  ILE132      0.0276
    120  CG1      -19.4560   15.3390    0.1170 C.3   132  ILE132      0.0022
    121  CG2      -20.8740   13.9360    1.7330 C.3   132  ILE132      0.0022
    122  CD1      -18.8930   14.2860   -0.8120 C.3   132  ILE132      0.0001
    123  N        -23.6090   25.8760   -1.8220 N.3   157  GLU157     -0.1231
    124  CA       -22.9670   25.3220   -3.0110 C.3   157  GLU157      0.1699
    125  C        -21.9210   24.2710   -2.6460 C.2   157  GLU157      0.2592
    126  O        -21.7920   23.2490   -3.3290 O.2   157  GLU157     -0.2718
    127  CB       -22.3250   26.4440   -3.8300 C.3   157  GLU157      0.0402
    128  CG       -21.6520   26.0050   -5.1390 C.3   157  GLU157      0.1161
    129  CD       -21.0890   27.1830   -5.9040 C.2   157  GLU157      0.3649
    130  OE1      -21.3570   28.3260   -5.4780 O.co2 157  GLU157     -0.2457
    131  OE2      -20.3720   26.9740   -6.9090 O.co2 157  GLU157     -0.2457
    132  N        -21.1950   24.5140   -1.5560 N.am  158  PHE158     -0.1962
    133  CA       -20.0130   23.7130   -1.2370 C.3   158  PHE158      0.1771
    134  C        -20.1540   22.7900   -0.0330 C.2   158  PHE158      0.2619
    135  O        -19.2300   22.0390    0.2610 O.2   158  PHE158     -0.2715
    136  CB       -18.7700   24.6010   -1.0870 C.3   158  PHE158      0.0574
    137  CG       -18.4320   25.4000   -2.3170 C.ar  158  PHE158     -0.0200
    138  CD1      -18.7930   26.7330   -2.4120 C.ar  158  PHE158     -0.0042
    139  CD2      -17.7300   24.8250   -3.3730 C.ar  158  PHE158     -0.0042
    140  CE1      -18.4710   27.4780   -3.5400 C.ar  158  PHE158     -0.0003
    141  CE2      -17.4050   25.5600   -4.5100 C.ar  158  PHE158     -0.0003
    142  CZ       -17.7730   26.8970   -4.5890 C.ar  158  PHE158     -0.0000
    143  N        -21.2970   22.8480    0.6560 N.am  159  VAL159     -0.1963
    144  CA       -21.5950   21.9060    1.7580 C.3   159  VAL159      0.1727
    145  C        -22.8000   21.0320    1.4050 C.2   159  VAL159      0.2616
    146  O        -23.8530   21.5320    1.0210 O.2   159  VAL159     -0.2715
    147  CB       -21.8180   22.6390    3.1430 C.3   159  VAL159      0.0290
    148  CG1      -22.0190   21.6620    4.2890 C.3   159  VAL159      0.0023
    149  CG2      -20.6520   23.5630    3.4830 C.3   159  VAL159      0.0023
    150  N        -22.6190   19.7190    1.5280 N.am  160  LYS160     -0.1977
    151  CA       -23.6890   18.7340    1.3680 C.3   160  LYS160      0.1596
    152  C        -23.7680   17.8690    2.6140 C.2   160  LYS160      0.2287
    153  O        -22.7560   17.3410    3.0700 O.2   160  LYS160     -0.2864
    154  CB       -23.4290   17.8310    0.1530 C.3   160  LYS160      0.0298
    155  CG       -24.4920   16.7530   -0.1400 C.3   160  LYS160      0.0038
    156  CD       -25.9150   17.3030   -0.0820 C.3   160  LYS160      0.0206
    157  CE       -26.7630   16.8030   -1.2340 C.3   160  LYS160      0.1093
    158  NZ       -26.5700   17.6460   -2.4350 N.3   160  LYS160     -0.1314
    159  N        -25.9080   10.9540   -4.3560 N.3   171  LEU171     -0.1245
    160  CA       -25.0270   12.0560   -4.7140 C.3   171  LEU171      0.1561
    161  C        -24.2530   11.7280   -5.9790 C.2   171  LEU171      0.2260
    162  O        -24.0000   12.6010   -6.7850 O.2   171  LEU171     -0.2867
    163  CB       -24.0770   12.4120   -3.5600 C.3   171  LEU171      0.0270
    164  CG       -23.0850   13.5730   -3.7480 C.3   171  LEU171      0.0019
    165  CD1      -23.7570   14.9490   -4.0450 C.3   171  LEU171      0.0001
    166  CD2      -22.1430   13.6700   -2.5340 C.3   171  LEU171      0.0001
    167  N        -26.7200   12.4030   -8.7990 N.3   174  GLU174     -0.1231
    168  CA       -26.9020   13.8390   -8.9940 C.3   174  GLU174      0.1699
    169  C        -25.7180   14.4550   -9.7460 C.2   174  GLU174      0.2592
    170  O        -25.8950   15.1700  -10.7360 O.2   174  GLU174     -0.2718
    171  CB       -27.1190   14.5590   -7.6470 C.3   174  GLU174      0.0402
    172  CG       -27.2510   16.0780   -7.7760 C.3   174  GLU174      0.1161
    173  CD       -27.0300   16.8550   -6.4800 C.2   174  GLU174      0.3649
    174  OE1      -26.9870   18.1080   -6.5640 O.co2 174  GLU174     -0.2457
    175  OE2      -26.9050   16.2430   -5.3870 O.co2 174  GLU174     -0.2457
    176  N        -24.5170   14.1670   -9.2620 N.am  175  LEU175     -0.1980
    177  CA       -23.2880   14.7400   -9.7900 C.3   175  LEU175      0.1596
    178  C        -23.0480   14.3980  -11.2720 C.2   175  LEU175      0.2287
    179  O        -22.6020   15.2450  -12.0360 O.2   175  LEU175     -0.2864
    180  CB       -22.1350   14.3220   -8.8580 C.3   175  LEU175      0.0297
    181  CG       -20.7200   13.7890   -9.1040 C.3   175  LEU175      0.0022
    182  CD1      -20.4360   12.8480   -7.9150 C.3   175  LEU175      0.0001
    183  CD2      -20.4730   13.0650  -10.4220 C.3   175  LEU175      0.0001
    184  N        -24.4920   16.5470  -13.8020 N.3   178  LYS178     -0.1245
    185  CA       -23.7470   17.7870  -13.9440 C.3   178  LYS178      0.1561
    186  C        -22.4730   17.5990  -14.7810 C.2   178  LYS178      0.2260
    187  O        -21.6350   18.4890  -14.8520 O.2   178  LYS178     -0.2867
    188  CB       -23.4250   18.3580  -12.5570 C.3   178  LYS178      0.0271
    189  CG       -24.6540   18.8250  -11.7710 C.3   178  LYS178      0.0035
    190  CD       -25.2690   20.0910  -12.3950 C.3   178  LYS178      0.0206
    191  CE       -26.7220   20.3040  -11.9860 C.3   178  LYS178      0.1093
    192  NZ       -26.8710   20.8970  -10.6220 N.3   178  LYS178     -0.1314
@<TRIPOS>BOND
     1    48    47    2
     2    47    46    1
     3    53    54    1
     4   187   186    2
     5    46    45    1
     6    46    49    1
     7   186   185    1
     8    52    50    1
     9    59    61   ar
    10    59    58   ar
    11    61    63   ar
    12    56    55    2
    13   185   184    1
    14   185   188    1
    15    49    50    1
    16    54    55    1
    17    54    57    1
    18     1     2    1
    19    50    51    1
    20    57    58    1
    21    58    60   ar
    22    63    64    1
    23    63    62   ar
    24     7     5    1
    25   188   189    1
    26   190   191    1
    27   190   189    1
    28     2     5    1
    29     2     3    1
    30     5     6    1
    31    70    69    1
    32   179   178    2
    33   191   192    1
    34    60    62   ar
    35     4     3    2
    36    65    66    1
    37    69    66    1
    38    69    71    1
    39    41    40    2
    40   178   177    1
    41   170   169    2
    42    66    67    1
    43   183   181    1
    44    40    39    1
    45    68    67    2
    46   177   176    1
    47   177   180    1
    48   169   176   am
    49   169   168    1
    50    39    38    1
    51    39    42    1
    52   181   180    1
    53   181   182    1
    54   168   167    1
    55   168   171    1
    56    43    42    1
    57    42    44    1
    58     8     9    1
    59    94    92    1
    60    78    76    1
    61   172   171    1
    62   172   173    1
    63    12     9    1
    64    12    13    1
    65    14    13    1
    66     9    10    1
    67   106   105    1
    68   131   129   ar
    69    13    15    1
    70   162   161    2
    71    76    77    1
    72    76    73    1
    73   174   173   ar
    74    92    91    1
    75   173   175   ar
    76    72    73    1
    77    11    10    2
    78   161   160    1
    79   129   130   ar
    80   129   128    1
    81   105   103   ar
    82   105   104   ar
    83    24    26   ar
    84    24    22   ar
    85    73    74    1
    86    26    25   ar
    87    30    29    2
    88    91    93    1
    89    91    88    1
    90   103   101   ar
    91   128   127    1
    92   104   102   ar
    93   160   159    1
    94   160   163    1
    95    75    74    2
    96    22    21   ar
    97   142   141   ar
    98   142   140   ar
    99    25    23   ar
   100    29    28    1
   101   141   139   ar
   102    35    37   ar
   103    35    33   ar
   104   101   100   ar
   105    86    84    1
   106    87    88    1
   107    88    89    1
   108    37    36   ar
   109   165   164    1
   110    84    83    1
   111    33    32   ar
   112   102   100   ar
   113   127   124    1
   114    28    27    1
   115    28    31    1
   116   164   163    1
   117   164   166    1
   118    90    89    2
   119   140   138   ar
   120   100    99    1
   121    21    23   ar
   122    21    20    1
   123   139   137   ar
   124    36    34   ar
   125   126   125    2
   126    32    34   ar
   127    32    31    1
   128   124   125    1
   129   124   123    1
   130    16    17    1
   131   125   132   am
   132    83    85    1
   133    83    80    1
   134   158   157    1
   135   138   137   ar
   136   137   136    1
   137    99    96    1
   138    20    17    1
   139    79    80    1
   140    17    18    1
   141   132   133    1
   142    80    81    1
   143   133   136    1
   144   133   134    1
   145   157   156    1
   146    95    96    1
   147    96    97    1
   148   122   120    1
   149    18    19    2
   150    81    82    2
   151   155   156    1
   152   155   154    1
   153   134   135    2
   154   134   143   am
   155   120   119    1
   156   154   151    1
   157    97    98    2
   158    97   107   am
   159   143   144    1
   160   107   108    1
   161   146   145    2
   162   151   150    1
   163   151   152    1
   164   145   150   am
   165   145   144    1
   166   119   121    1
   167   119   116    1
   168   144   147    1
   169   110   109    2
   170   108   109    1
   171   108   111    1
   172   109   115   am
   173   115   116    1
   174   116   117    1
   175   152   153    2
   176   147   149    1
   177   147   148    1
   178   111   113    1
   179   111   112    1
   180   117   118    2
   181   112   114    1
