@<TRIPOS>MOLECULE
tmp/3e2qA01.pdb
 119 110 0 0 0
SMALL
GASTEIGER

@<TRIPOS>ATOM
      1  N         15.6790   54.6060   54.9510 N.3   143  ASP143     -0.1239
      2  CA        16.0780   53.6170   53.9630 C.3   143  ASP143      0.1674
      3  C         17.3050   54.1360   53.2350 C.2   143  ASP143      0.2266
      4  O         17.1900   54.9440   52.3140 O.2   143  ASP143     -0.2867
      5  CB        14.9180   53.4110   52.9800 C.3   143  ASP143      0.1410
      6  CG        15.2930   52.5610   51.7820 C.2   143  ASP143      0.3668
      7  OD1       16.3860   51.9520   51.7770 O.co2 143  ASP143     -0.2456
      8  OD2       14.4770   52.5110   50.8300 O.co2 143  ASP143     -0.2456
      9  N         16.1470   50.7390   58.0280 N.3   185  SER185     -0.1217
     10  CA        15.9660   49.5010   57.2970 C.3   185  SER185      0.1889
     11  C         17.2320   49.2090   56.5160 C.2   185  SER185      0.2288
     12  O         17.9160   50.1210   56.0410 O.2   185  SER185     -0.2866
     13  CB        14.7590   49.5710   56.3520 C.3   185  SER185      0.2089
     14  OG        14.9140   50.6340   55.4280 O.3   185  SER185     -0.2183
     15  N         19.3920   46.5080   53.6340 N.3   187  LYS187     -0.1245
     16  CA        19.3250   45.4730   52.6230 C.3   187  LYS187      0.1561
     17  C         20.5250   44.5660   52.7850 C.2   187  LYS187      0.2260
     18  O         21.6730   45.0300   52.7840 O.2   187  LYS187     -0.2867
     19  CB        19.3140   46.0920   51.2230 C.3   187  LYS187      0.0271
     20  CG        17.9300   46.5680   50.7970 C.3   187  LYS187      0.0035
     21  CD        17.9640   47.1840   49.4180 C.3   187  LYS187      0.0206
     22  CE        16.5730   47.2920   48.8220 C.3   187  LYS187      0.1093
     23  NZ        15.7360   48.2290   49.6050 N.3   187  LYS187     -0.1314
     24  N         15.0850   44.3420   54.9880 N.3   228  ASP228     -0.1225
     25  CA        14.2800   44.4180   53.7660 C.3   228  ASP228      0.1805
     26  C         14.2290   43.0700   53.0640 C.2   228  ASP228      0.2597
     27  O         15.1620   42.2770   53.1660 O.2   228  ASP228     -0.2718
     28  CB        14.8790   45.4390   52.7890 C.3   228  ASP228      0.1424
     29  CG        14.5920   46.8720   53.1770 C.2   228  ASP228      0.3668
     30  OD1       13.8890   47.1090   54.1830 O.co2 228  ASP228     -0.2456
     31  OD2       15.0870   47.7710   52.4630 O.co2 228  ASP228     -0.2456
     32  N         13.1330   42.8260   52.3440 N.am  229  ALA229     -0.1979
     33  CA        13.0130   41.6480   51.4990 C.3   229  ALA229      0.1597
     34  C         13.3650   42.0260   50.0670 C.2   229  ALA229      0.2287
     35  O         12.9070   43.0470   49.5480 O.2   229  ALA229     -0.2864
     36  CB        11.5990   41.0860   51.5610 C.3   229  ALA229      0.0319
     37  N         10.8350   42.1210   56.7160 N.3   260  VAL260     -0.1245
     38  CA         9.7830   42.2690   55.7100 C.3   260  VAL260      0.1561
     39  C          9.4130   40.9140   55.1440 C.2   260  VAL260      0.2260
     40  O         10.2810   40.0740   54.9080 O.2   260  VAL260     -0.2867
     41  CB        10.2490   43.1660   54.5280 C.3   260  VAL260      0.0252
     42  CG1        9.2500   43.1010   53.3640 C.3   260  VAL260      0.0019
     43  CG2       10.4460   44.6040   55.0060 C.3   260  VAL260      0.0019
     44  N          7.0350   43.6570   58.7530 N.3   289  ARG289     -0.1245
     45  CA         6.4310   44.4730   57.7050 C.3   289  ARG289      0.1563
     46  C          5.8370   43.5730   56.6480 C.2   289  ARG289      0.2260
     47  O          6.5570   42.8610   55.9640 O.2   289  ARG289     -0.2867
     48  CB         7.4820   45.3710   57.0530 C.3   289  ARG289      0.0307
     49  CG         8.0920   46.3450   58.0400 C.3   289  ARG289      0.0489
     50  CD         9.0780   47.2560   57.3490 C.3   289  ARG289      0.2205
     51  NE         9.7070   48.1510   58.3170 N.pl3 289  ARG289     -0.0865
     52  CZ        10.4950   49.1620   57.9790 C.cat 289  ARG289      0.5346
     53  NH1       10.7540   49.4010   56.6900 N.pl3 289  ARG289      0.1354
     54  NH2       11.0160   49.9300   58.9300 N.pl3 289  ARG289      0.1354
     55  N          7.9960   44.3560   45.6740 N.3   294  ALA294     -0.1231
     56  CA         8.4470   45.4140   44.7650 C.3   294  ALA294      0.1694
     57  C          9.1430   44.9100   43.5080 C.2   294  ALA294      0.2592
     58  O          9.4770   45.7050   42.6290 O.2   294  ALA294     -0.2718
     59  CB         9.3730   46.4020   45.5310 C.3   294  ALA294      0.0304
     60  N          9.3440   43.6000   43.4080 N.am  295  TYR295     -0.1976
     61  CA        10.1600   43.0580   42.3180 C.3   295  TYR295      0.1639
     62  C          9.4020   42.1840   41.3370 C.2   295  TYR295      0.2290
     63  O         10.0000   41.3210   40.7030 O.2   295  TYR295     -0.2864
     64  CB        11.3070   42.2350   42.9010 C.3   295  TYR295      0.0560
     65  CG        12.1470   42.9880   43.9110 C.ar  295  TYR295     -0.0198
     66  CD1       13.3620   43.5640   43.5410 C.ar  295  TYR295     -0.0009
     67  CD2       11.7400   43.1070   45.2290 C.ar  295  TYR295     -0.0009
     68  CE1       14.1430   44.2530   44.4790 C.ar  295  TYR295      0.0417
     69  CE2       12.5120   43.7880   46.1710 C.ar  295  TYR295      0.0417
     70  CZ        13.7060   44.3550   45.7890 C.ar  295  TYR295      0.1957
     71  OH        14.4450   45.0350   46.7350 O.3   295  TYR295     -0.2866
     72  N          5.4810   54.5780   51.5940 N.3   371  LEU371     -0.1245
     73  CA         6.6960   55.1290   51.0120 C.3   371  LEU371      0.1561
     74  C          6.5620   56.6330   50.8800 C.2   371  LEU371      0.2260
     75  O          5.5230   57.1290   50.4510 O.2   371  LEU371     -0.2867
     76  CB         6.9540   54.5430   49.6090 C.3   371  LEU371      0.0270
     77  CG         7.1200   53.0280   49.5410 C.3   371  LEU371      0.0019
     78  CD1        7.3890   52.5770   48.1020 C.3   371  LEU371      0.0001
     79  CD2        8.2550   52.6010   50.4720 C.3   371  LEU371      0.0001
     80  N          8.5820   55.2220   55.1020 N.3   398  SER398     -0.1217
     81  CA         9.9070   54.8010   54.6800 C.3   398  SER398      0.1889
     82  C         10.5260   55.9290   53.8590 C.2   398  SER398      0.2288
     83  O          9.9820   56.3470   52.8360 O.2   398  SER398     -0.2866
     84  CB         9.8380   53.5100   53.8610 C.3   398  SER398      0.2089
     85  OG        11.1390   53.0790   53.4770 O.3   398  SER398     -0.2183
     86  N         16.0060   51.7640   43.1060 N.3   410  TYR410     -0.1241
     87  CA        14.8210   52.1580   43.8620 C.3   410  TYR410      0.1605
     88  C         13.8500   52.9210   42.9490 C.2   410  TYR410      0.2264
     89  O         12.6430   52.6690   42.9400 O.2   410  TYR410     -0.2867
     90  CB        15.2320   53.0160   45.0670 C.3   410  TYR410      0.0534
     91  CG        14.0940   53.3610   46.0080 C.ar  410  TYR410     -0.0201
     92  CD1       13.7750   52.5310   47.0800 C.ar  410  TYR410     -0.0009
     93  CD2       13.3360   54.5070   45.8220 C.ar  410  TYR410     -0.0009
     94  CE1       12.7350   52.8430   47.9530 C.ar  410  TYR410      0.0417
     95  CE2       12.2760   54.8210   46.6880 C.ar  410  TYR410      0.0417
     96  CZ        11.9930   53.9890   47.7480 C.ar  410  TYR410      0.1957
     97  OH        10.9580   54.3020   48.6030 O.3   410  TYR410     -0.2866
     98  N         11.9990   50.6720   40.5130 N.3   413  ARG413     -0.1231
     99  CA        10.9100   49.9600   41.1720 C.3   413  ARG413      0.1694
    100  C          9.7020   50.8750   41.4000 C.2   413  ARG413      0.2591
    101  O          8.5560   50.4460   41.2460 O.2   413  ARG413     -0.2718
    102  CB        11.3690   49.3010   42.4880 C.3   413  ARG413      0.0321
    103  CG        12.2960   48.1120   42.2410 C.3   413  ARG413      0.0489
    104  CD        12.5450   47.2890   43.5000 C.3   413  ARG413      0.2205
    105  NE        13.2010   48.0490   44.5480 N.pl3 413  ARG413     -0.0865
    106  CZ        14.5170   48.1640   44.6910 C.cat 413  ARG413      0.5346
    107  NH1       15.3390   47.5710   43.8280 N.pl3 413  ARG413      0.1354
    108  NH2       15.0030   48.8770   45.7040 N.pl3 413  ARG413      0.1354
    109  N          9.9580   52.1350   41.7510 N.am  414  ARG414     -0.1980
    110  CA         8.8730   53.1040   41.9250 C.3   414  ARG414      0.1597
    111  C          8.1660   53.4130   40.5960 C.2   414  ARG414      0.2287
    112  O          6.9460   53.5940   40.5660 O.2   414  ARG414     -0.2864
    113  CB         9.3840   54.4060   42.5500 C.3   414  ARG414      0.0334
    114  CG        10.0360   54.2440   43.9160 C.3   414  ARG414      0.0492
    115  CD         9.0310   53.9090   45.0040 C.3   414  ARG414      0.2205
    116  NE         8.6240   52.5030   45.0410 N.pl3 414  ARG414     -0.0865
    117  CZ         9.4190   51.5030   45.4150 C.cat 414  ARG414      0.5346
    118  NH1       10.6860   51.7450   45.7270 N.pl3 414  ARG414      0.1354
    119  NH2        8.9540   50.2590   45.4600 N.pl3 414  ARG414      0.1354
@<TRIPOS>BOND
     1    98    99    1
     2   112   111    2
     3   111   110    1
     4    63    62    2
     5    99   100    1
     6    99   102    1
     7   101   100    2
     8    62    61    1
     9   100   109   am
    10   109   110    1
    11   110   113    1
    12   103   102    1
    13   103   104    1
    14    61    64    1
    15    61    60    1
    16   113   114    1
    17    58    57    2
    18    64    65    1
    19    89    88    2
    20    88    87    1
    21    86    87    1
    22    60    57   am
    23   104   105    1
    24    57    56    1
    25    66    65   ar
    26    66    68   ar
    27   107   106    1
    28    87    90    1
    29    65    67   ar
    30   114   115    1
    31    68    70   ar
    32   105   106    2
    33   106   108    1
    34    56    59    1
    35    56    55    1
    36   115   116    1
    37   116   117    2
    38    90    91    1
    39    67    69   ar
    40   117   119    1
    41   117   118    1
    42    70    69   ar
    43    70    71    1
    44    93    91   ar
    45    93    95   ar
    46    91    92   ar
    47    95    96   ar
    48    92    94   ar
    49    96    94   ar
    50    96    97    1
    51    78    77    1
    52    22    21    1
    53    22    23    1
    54    21    20    1
    55    77    76    1
    56    77    79    1
    57    35    34    2
    58    76    73    1
    59    34    33    1
    60    75    74    2
    61    20    19    1
    62     8     6   ar
    63    74    73    1
    64    73    72    1
    65    19    16    1
    66    33    36    1
    67    33    32    1
    68     7     6   ar
    69     6     5    1
    70     4     3    2
    71    32    26   am
    72    31    29   ar
    73    16    17    1
    74    16    15    1
    75    18    17    2
    76    28    29    1
    77    28    25    1
    78    83    82    2
    79     5     2    1
    80    26    27    2
    81    26    25    1
    82    29    30   ar
    83     3     2    1
    84    42    41    1
    85    85    84    1
    86    25    24    1
    87    82    81    1
    88    84    81    1
    89     2     1    1
    90    41    43    1
    91    41    38    1
    92    81    80    1
    93    40    39    2
    94    39    38    1
    95    14    13    1
    96    38    37    1
    97    47    46    2
    98    12    11    2
    99    13    10    1
   100    11    10    1
   101    46    45    1
   102    53    52    1
   103    48    45    1
   104    48    49    1
   105    10     9    1
   106    50    49    1
   107    50    51    1
   108    45    44    1
   109    52    51    2
   110    52    54    1
