@<TRIPOS>MOLECULE
tmp/3e2sA00.pdb
 108 100 0 0 0
SMALL
GASTEIGER

@<TRIPOS>ATOM
      1  N         15.8840   54.6780   54.8050 N.3   143  ASP143     -0.1239
      2  CA        16.2980   53.6760   53.8270 C.3   143  ASP143      0.1674
      3  C         17.4720   54.2430   53.0400 C.2   143  ASP143      0.2266
      4  O         17.2810   55.0000   52.0850 O.2   143  ASP143     -0.2867
      5  CB        15.1070   53.3810   52.9150 C.3   143  ASP143      0.1410
      6  CG        15.4710   52.5350   51.6950 C.2   143  ASP143      0.3668
      7  OD1       16.5870   51.9730   51.6430 O.co2 143  ASP143     -0.2456
      8  OD2       14.6130   52.4370   50.7840 O.co2 143  ASP143     -0.2456
      9  N         16.1740   50.8910   57.8800 N.3   185  SER185     -0.1217
     10  CA        16.0580   49.6410   57.1390 C.3   185  SER185      0.1889
     11  C         17.3420   49.3780   56.3520 C.2   185  SER185      0.2288
     12  O         18.0450   50.3070   55.9450 O.2   185  SER185     -0.2866
     13  CB        14.8330   49.6230   56.2190 C.3   185  SER185      0.2089
     14  OG        14.8770   50.6820   55.2920 O.3   185  SER185     -0.2183
     15  N         19.4130   46.5740   53.4700 N.3   187  LYS187     -0.1245
     16  CA        19.3770   45.5060   52.4720 C.3   187  LYS187      0.1561
     17  C         20.6070   44.6330   52.6350 C.2   187  LYS187      0.2260
     18  O         21.7350   45.1250   52.6330 O.2   187  LYS187     -0.2867
     19  CB        19.3420   46.0920   51.0550 C.3   187  LYS187      0.0271
     20  CG        17.9490   46.5600   50.6130 C.3   187  LYS187      0.0035
     21  CD        17.9730   47.1190   49.1880 C.3   187  LYS187      0.0206
     22  CE        16.5630   47.2020   48.6090 C.3   187  LYS187      0.1093
     23  NZ        15.6890   48.1200   49.4070 N.3   187  LYS187     -0.1314
     24  N         15.1360   44.4010   54.8490 N.3   228  ASP228     -0.1225
     25  CA        14.3380   44.4320   53.6140 C.3   228  ASP228      0.1805
     26  C         14.3100   43.0610   52.9650 C.2   228  ASP228      0.2597
     27  O         15.2550   42.2900   53.1140 O.2   228  ASP228     -0.2718
     28  CB        14.9090   45.4370   52.6070 C.3   228  ASP228      0.1424
     29  CG        14.5780   46.8810   52.9580 C.2   228  ASP228      0.3668
     30  OD1       13.8470   47.1200   53.9370 O.co2 228  ASP228     -0.2456
     31  OD2       15.0460   47.7890   52.2430 O.co2 228  ASP228     -0.2456
     32  N         13.2210   42.7630   52.2530 N.am  229  ALA229     -0.1979
     33  CA        13.1550   41.5600   51.4390 C.3   229  ALA229      0.1597
     34  C         13.4840   41.9320   49.9820 C.2   229  ALA229      0.2287
     35  O         13.0620   42.9940   49.4820 O.2   229  ALA229     -0.2864
     36  CB        11.7810   40.8900   51.5460 C.3   229  ALA229      0.0319
     37  N         10.9280   42.0910   56.6070 N.3   260  VAL260     -0.1245
     38  CA         9.8780   42.2130   55.5840 C.3   260  VAL260      0.1561
     39  C          9.4870   40.8410   55.0550 C.2   260  VAL260      0.2260
     40  O         10.3370   39.9940   54.8780 O.2   260  VAL260     -0.2867
     41  CB        10.3500   43.0690   54.3740 C.3   260  VAL260      0.0252
     42  CG1        9.3070   43.0480   53.2360 C.3   260  VAL260      0.0019
     43  CG2       10.6240   44.4910   54.8000 C.3   260  VAL260      0.0019
     44  N          8.0690   44.2630   45.6080 N.3   294  ALA294     -0.1231
     45  CA         8.5680   45.2980   44.7060 C.3   294  ALA294      0.1694
     46  C          9.2430   44.8140   43.4270 C.2   294  ALA294      0.2592
     47  O          9.6050   45.6490   42.5920 O.2   294  ALA294     -0.2718
     48  CB         9.5250   46.2450   45.4390 C.3   294  ALA294      0.0304
     49  N          9.4340   43.5010   43.2810 N.am  295  TYR295     -0.1976
     50  CA        10.2730   42.9730   42.1970 C.3   295  TYR295      0.1639
     51  C          9.4870   42.0940   41.2170 C.2   295  TYR295      0.2290
     52  O         10.0560   41.2270   40.5800 O.2   295  TYR295     -0.2864
     53  CB        11.4360   42.1540   42.7830 C.3   295  TYR295      0.0560
     54  CG        12.2590   42.9120   43.8090 C.ar  295  TYR295     -0.0198
     55  CD1       13.5230   43.4120   43.4880 C.ar  295  TYR295     -0.0009
     56  CD2       11.7720   43.1220   45.1060 C.ar  295  TYR295     -0.0009
     57  CE1       14.2790   44.1070   44.4300 C.ar  295  TYR295      0.0417
     58  CE2       12.5210   43.8120   46.0570 C.ar  295  TYR295      0.0417
     59  CZ        13.7620   44.2960   45.7190 C.ar  295  TYR295      0.1957
     60  OH        14.4800   44.9970   46.6530 O.3   295  TYR295     -0.2866
     61  N          5.4260   54.5960   51.3670 N.3   371  LEU371     -0.1245
     62  CA         6.6610   55.1050   50.7650 C.3   371  LEU371      0.1561
     63  C          6.5540   56.6130   50.6390 C.2   371  LEU371      0.2260
     64  O          5.5050   57.1380   50.2710 O.2   371  LEU371     -0.2867
     65  CB         6.9210   54.4620   49.3840 C.3   371  LEU371      0.0270
     66  CG         7.1340   52.9470   49.3810 C.3   371  LEU371      0.0019
     67  CD1        7.4490   52.4220   47.9540 C.3   371  LEU371      0.0001
     68  CD2        8.2700   52.5900   50.3470 C.3   371  LEU371      0.0001
     69  N          8.5950   55.2320   54.9430 N.3   398  SER398     -0.1217
     70  CA         9.9320   54.8260   54.5510 C.3   398  SER398      0.1889
     71  C         10.5650   55.9500   53.7190 C.2   398  SER398      0.2288
     72  O         10.0150   56.3850   52.6960 O.2   398  SER398     -0.2866
     73  CB         9.9070   53.5110   53.7520 C.3   398  SER398      0.2089
     74  OG        11.2270   53.0190   53.5580 O.3   398  SER398     -0.2183
     75  N         16.1110   51.7540   42.8500 N.3   410  TYR410     -0.1241
     76  CA        14.9150   52.1220   43.6120 C.3   410  TYR410      0.1605
     77  C         13.9210   52.8610   42.7090 C.2   410  TYR410      0.2264
     78  O         12.7200   52.5700   42.7010 O.2   410  TYR410     -0.2867
     79  CB        15.3090   53.0000   44.8120 C.3   410  TYR410      0.0534
     80  CG        14.1740   53.3290   45.7810 C.ar  410  TYR410     -0.0201
     81  CD1       13.9410   52.5480   46.9130 C.ar  410  TYR410     -0.0009
     82  CD2       13.3590   54.4330   45.5730 C.ar  410  TYR410     -0.0009
     83  CE1       12.8970   52.8580   47.8130 C.ar  410  TYR410      0.0417
     84  CE2       12.3180   54.7470   46.4550 C.ar  410  TYR410      0.0417
     85  CZ        12.0950   53.9570   47.5690 C.ar  410  TYR410      0.1957
     86  OH        11.0660   54.2870   48.4230 O.3   410  TYR410     -0.2866
     87  N         12.0690   50.5800   40.3400 N.3   413  ARG413     -0.1231
     88  CA        10.9970   49.8920   41.0530 C.3   413  ARG413      0.1694
     89  C          9.7720   50.7990   41.2810 C.2   413  ARG413      0.2591
     90  O          8.6260   50.3490   41.1770 O.2   413  ARG413     -0.2718
     91  CB        11.5190   49.2810   42.3660 C.3   413  ARG413      0.0321
     92  CG        12.3940   48.0540   42.1140 C.3   413  ARG413      0.0489
     93  CD        12.6360   47.2100   43.3660 C.3   413  ARG413      0.2205
     94  NE        13.3380   47.9700   44.3890 N.pl3 413  ARG413     -0.0865
     95  CZ        14.6610   48.0880   44.4620 C.cat 413  ARG413      0.5346
     96  NH1       15.4440   47.4960   43.5620 N.pl3 413  ARG413      0.1354
     97  NH2       15.1970   48.8010   45.4370 N.pl3 413  ARG413      0.1354
     98  N         10.0100   52.0750   41.5790 N.am  414  ARG414     -0.1980
     99  CA         8.9070   53.0260   41.7360 C.3   414  ARG414      0.1597
    100  C          8.2000   53.3180   40.4060 C.2   414  ARG414      0.2287
    101  O          6.9670   53.4570   40.3660 O.2   414  ARG414     -0.2864
    102  CB         9.3800   54.3280   42.3950 C.3   414  ARG414      0.0334
    103  CG        10.0180   54.1370   43.7640 C.3   414  ARG414      0.0492
    104  CD         8.9930   53.7580   44.8350 C.3   414  ARG414      0.2205
    105  NE         8.6600   52.3290   44.8980 N.pl3 414  ARG414     -0.0865
    106  CZ         9.5250   51.3770   45.2500 C.cat 414  ARG414      0.5346
    107  NH1       10.7890   51.6900   45.5060 N.pl3 414  ARG414      0.1354
    108  NH2        9.1360   50.1100   45.3240 N.pl3 414  ARG414      0.1354
@<TRIPOS>BOND
     1    87    88    1
     2   101   100    2
     3   100    99    1
     4    52    51    2
     5    88    89    1
     6    88    91    1
     7    90    89    2
     8    51    50    1
     9    89    98   am
    10    98    99    1
    11    99   102    1
    12    92    91    1
    13    92    93    1
    14    50    53    1
    15    50    49    1
    16   102   103    1
    17    47    46    2
    18    78    77    2
    19    77    76    1
    20    53    54    1
    21    75    76    1
    22    49    46   am
    23    93    94    1
    24    46    45    1
    25    55    54   ar
    26    55    57   ar
    27    96    95    1
    28    76    79    1
    29   103   104    1
    30    54    56   ar
    31    94    95    2
    32    57    59   ar
    33    95    97    1
    34    45    48    1
    35    45    44    1
    36    79    80    1
    37   104   105    1
    38   105   106    2
    39    56    58   ar
    40   106   108    1
    41   106   107    1
    42    82    80   ar
    43    82    84   ar
    44    59    58   ar
    45    59    60    1
    46    80    81   ar
    47    84    85   ar
    48    81    83   ar
    49    85    83   ar
    50    85    86    1
    51    67    66    1
    52    22    21    1
    53    22    23    1
    54    21    20    1
    55    66    65    1
    56    66    68    1
    57    65    62    1
    58    35    34    2
    59    34    33    1
    60    64    63    2
    61    20    19    1
    62    63    62    1
    63    62    61    1
    64     8     6   ar
    65    19    16    1
    66    33    36    1
    67    33    32    1
    68     7     6   ar
    69     6     5    1
    70     4     3    2
    71    31    29   ar
    72    32    26   am
    73    16    17    1
    74    16    15    1
    75    28    29    1
    76    28    25    1
    77    18    17    2
    78    72    71    2
    79     5     2    1
    80    29    30   ar
    81    26    27    2
    82    26    25    1
    83     3     2    1
    84    42    41    1
    85    74    73    1
    86    25    24    1
    87    71    70    1
    88    73    70    1
    89     2     1    1
    90    41    43    1
    91    41    38    1
    92    70    69    1
    93    40    39    2
    94    39    38    1
    95    14    13    1
    96    38    37    1
    97    12    11    2
    98    13    10    1
    99    11    10    1
   100    10     9    1
