@<TRIPOS>MOLECULE
tmp/3e2tA00.pdb
 147 144 0 0 0
SMALL
GASTEIGER

@<TRIPOS>ATOM
      1  N         -7.9840   26.6030   -9.5320 N.3   132  TYR132     -0.1241
      2  CA        -9.3230   26.1080   -9.9100 C.3   132  TYR132      0.1605
      3  C         -9.2160   25.0060  -10.9620 C.2   132  TYR132      0.2264
      4  O         -8.7990   25.2550  -12.0980 O.2   132  TYR132     -0.2867
      5  CB       -10.1780   27.2600  -10.4570 C.3   132  TYR132      0.0534
      6  CG       -11.6430   26.9290  -10.6370 C.ar  132  TYR132     -0.0201
      7  CD1      -12.5570   27.1150   -9.6010 C.ar  132  TYR132     -0.0009
      8  CD2      -12.1150   26.4280  -11.8440 C.ar  132  TYR132     -0.0009
      9  CE1      -13.9090   26.8210   -9.7570 C.ar  132  TYR132      0.0417
     10  CE2      -13.4670   26.1310  -12.0250 C.ar  132  TYR132      0.0417
     11  CZ       -14.3610   26.3320  -10.9700 C.ar  132  TYR132      0.1957
     12  OH       -15.6970   26.0410  -11.1570 O.3   132  TYR132     -0.2866
     13  N         -5.7360   33.1700    0.6330 N.3   154  ARG154     -0.1245
     14  CA        -6.1290   34.3790   -0.0990 C.3   154  ARG154      0.1563
     15  C         -5.3360   35.6130    0.3450 C.2   154  ARG154      0.2260
     16  O         -4.7430   35.6340    1.4510 O.2   154  ARG154     -0.2867
     17  CB        -7.6260   34.6400    0.1160 C.3   154  ARG154      0.0307
     18  CG        -7.9700   35.0000    1.5880 C.3   154  ARG154      0.0489
     19  CD        -9.4720   34.9170    1.9060 C.3   154  ARG154      0.2205
     20  NE       -10.0560   33.6170    1.5760 N.pl3 154  ARG154     -0.0865
     21  CZ       -11.3450   33.4280    1.2920 C.cat 154  ARG154      0.5346
     22  NH1      -12.2160   34.4450    1.3320 N.pl3 154  ARG154      0.1354
     23  NH2      -11.7720   32.2270    0.9770 N.pl3 154  ARG154      0.1354
     24  N        -13.5940   38.1310    0.6630 N.3   161  TYR161     -0.1227
     25  CA       -13.9170   37.5240   -0.6490 C.3   161  TYR161      0.1736
     26  C        -12.6330   37.3870   -1.4500 C.2   161  TYR161      0.2596
     27  O        -11.7760   38.2850   -1.4240 O.2   161  TYR161     -0.2718
     28  CB       -14.9460   38.3700   -1.4580 C.3   161  TYR161      0.0548
     29  CG       -15.1430   37.8200   -2.8660 C.ar  161  TYR161     -0.0200
     30  CD1      -16.0960   36.8520   -3.1190 C.ar  161  TYR161     -0.0009
     31  CD2      -14.3220   38.2280   -3.9260 C.ar  161  TYR161     -0.0009
     32  CE1      -16.2490   36.2940   -4.3960 C.ar  161  TYR161      0.0417
     33  CE2      -14.4660   37.6770   -5.2100 C.ar  161  TYR161      0.0417
     34  CZ       -15.4320   36.6960   -5.4230 C.ar  161  TYR161      0.1957
     35  OH       -15.5980   36.1160   -6.6650 O.3   161  TYR161     -0.2866
     36  N        -12.4870   36.2650   -2.1600 N.am  162  THR162     -0.1939
     37  CA       -11.3500   36.0810   -3.0590 C.3   162  THR162      0.2013
     38  C        -11.8340   35.4680   -4.3860 C.2   162  THR162      0.2484
     39  O        -12.7610   34.6480   -4.3850 O.2   162  THR162     -0.2729
     40  CB       -10.2350   35.2010   -2.3890 C.3   162  THR162      0.1807
     41  OG1       -9.0980   35.1110   -3.2600 O.3   162  THR162     -0.2208
     42  CG2      -10.7310   33.7890   -2.1010 C.3   162  THR162      0.0379
     43  N        -11.2140   35.8650   -5.5170 N.am  163  PRO163     -0.2715
     44  CA       -11.6890   35.4520   -6.8450 C.3   163  PRO163      0.1536
     45  C        -11.1620   34.1060   -7.4120 C.2   163  PRO163      0.2598
     46  O        -11.4940   33.7280   -8.5410 O.2   163  PRO163     -0.2715
     47  CB       -11.2580   36.6350   -7.7240 C.3   163  PRO163      0.0310
     48  CG        -9.8890   36.9940   -7.1440 C.3   163  PRO163      0.0237
     49  CD       -10.0580   36.7860   -5.6230 C.3   163  PRO163      0.0939
     50  N        -10.3390   33.3890   -6.6530 N.am  164  GLU164     -0.1964
     51  CA       -10.0680   31.9830   -6.9330 C.3   164  GLU164      0.1718
     52  C        -10.1460   31.2080   -5.6000 C.2   164  GLU164      0.2458
     53  O         -9.9490   31.8020   -4.5260 O.2   164  GLU164     -0.2730
     54  CB        -8.7120   31.8020   -7.6210 C.3   164  GLU164      0.0428
     55  CG        -7.5400   32.4440   -6.8790 C.3   164  GLU164      0.1163
     56  CD        -6.2110   32.2210   -7.5820 C.2   164  GLU164      0.3649
     57  OE1       -5.2060   32.7690   -7.1010 O.co2 164  GLU164     -0.2457
     58  OE2       -6.1750   31.5090   -8.6200 O.co2 164  GLU164     -0.2457
     59  N        -10.5080   29.9100   -5.6460 N.am  165  PRO165     -0.2727
     60  CA       -10.5230   29.1630   -4.3680 C.3   165  PRO165      0.1402
     61  C         -9.1410   29.1330   -3.6730 C.2   165  PRO165      0.2269
     62  O         -8.1060   29.0240   -4.3480 O.2   165  PRO165     -0.2865
     63  CB       -10.9550   27.7420   -4.7810 C.3   165  PRO165      0.0296
     64  CG       -10.7390   27.6730   -6.2960 C.3   165  PRO165      0.0237
     65  CD       -10.9750   29.0900   -6.7840 C.3   165  PRO165      0.0939
     66  N        -11.3340   28.2060    1.6170 N.3   169  HIS169     -0.1241
     67  CA       -12.4820   27.6350    0.9200 C.3   169  HIS169      0.1621
     68  C        -12.6260   26.1050    1.0830 C.2   169  HIS169      0.2264
     69  O        -13.7290   25.5930    1.3890 O.2   169  HIS169     -0.2867
     70  CB       -12.4780   28.0190   -0.5750 C.3   169  HIS169      0.0745
     71  CG       -13.5550   27.3340   -1.3600 C.ar  169  HIS169      0.0817
     72  ND1      -14.8910   27.6270   -1.1870 N.ar  169  HIS169     -0.2268
     73  CD2      -13.5010   26.3190   -2.2570 C.ar  169  HIS169      0.1154
     74  CE1      -15.6140   26.8360   -1.9640 C.ar  169  HIS169      0.1986
     75  NE2      -14.7920   26.0410   -2.6320 N.ar  169  HIS169     -0.2212
     76  N        -22.0620   23.1580   -9.5120 N.3   210  PHE210     -0.1241
     77  CA       -21.6330   24.5060   -9.1280 C.3   210  PHE210      0.1605
     78  C        -22.7620   25.2530   -8.4240 C.2   210  PHE210      0.2264
     79  O        -22.5520   25.8480   -7.3680 O.2   210  PHE210     -0.2867
     80  CB       -21.1830   25.2760  -10.3910 C.3   210  PHE210      0.0534
     81  CG       -20.5690   26.6390  -10.1360 C.ar  210  PHE210     -0.0203
     82  CD1      -19.1720   26.7930  -10.0860 C.ar  210  PHE210     -0.0042
     83  CD2      -21.3760   27.7860  -10.0170 C.ar  210  PHE210     -0.0042
     84  CE1      -18.5900   28.0660   -9.9050 C.ar  210  PHE210     -0.0003
     85  CE2      -20.8010   29.0550   -9.8220 C.ar  210  PHE210     -0.0003
     86  CZ       -19.4180   29.1900   -9.7580 C.ar  210  PHE210     -0.0000
     87  N        -21.6200   24.1310   -4.6170 N.3   214  GLU214     -0.1231
     88  CA       -20.7540   25.3320   -4.4480 C.3   214  GLU214      0.1699
     89  C        -21.5430   26.5890   -4.0200 C.2   214  GLU214      0.2592
     90  O        -21.0880   27.3400   -3.1480 O.2   214  GLU214     -0.2718
     91  CB       -19.9020   25.6430   -5.7050 C.3   214  GLU214      0.0402
     92  CG       -18.9900   24.5080   -6.1840 C.3   214  GLU214      0.1161
     93  CD       -17.8040   24.2410   -5.2510 C.2   214  GLU214      0.3649
     94  OE1      -17.2680   23.1120   -5.2970 O.co2 214  GLU214     -0.2457
     95  OE2      -17.4060   25.1370   -4.4640 O.co2 214  GLU214     -0.2457
     96  N        -22.7110   26.8200   -4.6210 N.am  215  PHE215     -0.1976
     97  CA       -23.4750   28.0450   -4.3260 C.3   215  PHE215      0.1639
     98  C        -24.9700   27.8350   -3.9790 C.2   215  PHE215      0.2290
     99  O        -25.7930   28.7440   -4.1550 O.2   215  PHE215     -0.2864
    100  CB       -23.2730   29.0960   -5.4650 C.3   215  PHE215      0.0560
    101  CG       -21.8730   29.6600   -5.4910 C.ar  215  PHE215     -0.0200
    102  CD1      -20.8820   29.0620   -6.2710 C.ar  215  PHE215     -0.0042
    103  CD2      -21.5200   30.7230   -4.6520 C.ar  215  PHE215     -0.0042
    104  CE1      -19.5660   29.5470   -6.2570 C.ar  215  PHE215     -0.0003
    105  CE2      -20.2120   31.2020   -4.6230 C.ar  215  PHE215     -0.0003
    106  CZ       -19.2330   30.6080   -5.4110 C.ar  215  PHE215     -0.0000
    107  N        -18.8880   27.6550   -1.6670 N.3   230  GLY230     -0.1225
    108  CA       -18.4030   28.9660   -2.0740 C.3   230  GLY230      0.1811
    109  C        -19.0160   30.1360   -1.2930 C.2   230  GLY230      0.2280
    110  O        -18.3870   31.1850   -1.1390 O.2   230  GLY230     -0.2866
    111  N        -17.5000   30.0050    2.6010 N.3   233  SER233     -0.1202
    112  CA       -16.1260   30.4960    2.8060 C.3   233  SER233      0.2020
    113  C        -15.9430   32.0160    2.5550 C.2   233  SER233      0.2619
    114  O        -14.8460   32.5450    2.7040 O.2   233  SER233     -0.2717
    115  CB       -15.1410   29.6690    1.9720 C.3   233  SER233      0.2103
    116  OG       -15.3720   29.8330    0.5760 O.3   233  SER233     -0.2182
    117  N        -17.0180   32.7200    2.1970 N.am  234  SER234     -0.1951
    118  CA       -16.9170   34.1470    1.9120 C.3   234  SER234      0.1924
    119  C        -17.7620   34.9820    2.8700 C.2   234  SER234      0.2314
    120  O        -18.9920   34.9260    2.8510 O.2   234  SER234     -0.2863
    121  CB       -17.3610   34.4360    0.4840 C.3   234  SER234      0.2116
    122  OG       -17.3510   35.8250    0.2600 O.3   234  SER234     -0.2180
    123  N        -20.0600   37.3400    0.6700 N.3   237  GLU237     -0.1245
    124  CA       -21.0760   36.7280   -0.1870 C.3   237  GLU237      0.1567
    125  C        -22.1030   35.9400    0.6440 C.2   237  GLU237      0.2260
    126  O        -23.2850   35.8820    0.2920 O.2   237  GLU237     -0.2867
    127  CB       -20.4770   35.8830   -1.3330 C.3   237  GLU237      0.0388
    128  CG       -21.5390   35.6790   -2.4430 C.3   237  GLU237      0.1160
    129  CD       -21.0240   35.1530   -3.7930 C.2   237  GLU237      0.3649
    130  OE1      -19.8280   34.8610   -3.9560 O.co2 237  GLU237     -0.2457
    131  OE2      -21.8550   35.0260   -4.7190 O.co2 237  GLU237     -0.2457
    132  N        -20.0140   31.8550  -12.5480 N.3   262  LEU262     -0.1231
    133  CA       -19.1010   32.9880  -12.3920 C.3   262  LEU262      0.1693
    134  C        -17.9970   32.6870  -11.3600 C.2   262  LEU262      0.2591
    135  O        -18.2900   32.5720  -10.1810 O.2   262  LEU262     -0.2718
    136  CB       -19.8750   34.2560  -11.9960 C.3   262  LEU262      0.0284
    137  CG       -21.0560   34.6190  -12.8980 C.3   262  LEU262      0.0019
    138  CD1      -21.6750   35.9540  -12.4520 C.3   262  LEU262      0.0001
    139  CD2      -20.5750   34.6900  -14.3480 C.3   262  LEU262      0.0001
    140  N        -16.7500   32.5620  -11.8190 N.am  263  ILE263     -0.1980
    141  CA       -15.6210   32.1450  -10.9550 C.3   263  ILE263      0.1595
    142  C        -15.0950   33.3270  -10.0990 C.2   263  ILE263      0.2287
    143  O        -14.7910   33.1700   -8.9120 O.2   263  ILE263     -0.2864
    144  CB       -14.4510   31.5410  -11.8060 C.3   263  ILE263      0.0276
    145  CG1      -14.9340   30.3800  -12.6840 C.3   263  ILE263      0.0022
    146  CG2      -13.2550   31.1230  -10.9220 C.3   263  ILE263      0.0022
    147  CD1      -15.8780   29.4380  -11.9860 C.3   263  ILE263      0.0001
@<TRIPOS>BOND
     1   139   137    1
     2   137   138    1
     3   137   136    1
     4   145   147    1
     5   145   144    1
     6   132   133    1
     7   133   136    1
     8   133   134    1
     9     4     3    2
    10    10     8   ar
    11    10    11   ar
    12     8     6   ar
    13   140   134   am
    14   140   141    1
    15   144   141    1
    16   144   146    1
    17   134   135    2
    18    12    11    1
    19    11     9   ar
    20     3     2    1
    21   141   142    1
    22     6     5    1
    23     6     7   ar
    24     5     2    1
    25    80    81    1
    26    80    77    1
    27    81    82   ar
    28    81    83   ar
    29   142   143    2
    30    82    84   ar
    31    83    85   ar
    32     2     1    1
    33    84    86   ar
    34    85    86   ar
    35     9     7   ar
    36    76    77    1
    37    77    78    1
    38    58    56   ar
    39    46    45    2
    40    78    79    2
    41    47    48    1
    42    47    44    1
    43    54    51    1
    44    54    55    1
    45    56    57   ar
    46    56    55    1
    47    45    44    1
    48    45    50   am
    49    48    49    1
    50    51    50    1
    51    51    52    1
    52    44    43    1
    53    65    64    1
    54    65    59    1
    55    35    34    1
    56    64    63    1
    57   102   104   ar
    58   102   101   ar
    59   104   106   ar
    60    92    91    1
    61    92    93    1
    62    91    88    1
    63    59    52   am
    64    59    60    1
    65    49    43    1
    66    52    53    2
    67    43    38   am
    68   101   100    1
    69   101   103   ar
    70   100    97    1
    71    34    33   ar
    72    34    32   ar
    73   106   105   ar
    74    94    93   ar
    75    93    95   ar
    76    33    31   ar
    77    63    60    1
    78   131   129   ar
    79   103   105   ar
    80    96    97    1
    81    96    89   am
    82    87    88    1
    83    88    89    1
    84    32    30   ar
    85    38    39    2
    86    38    37    1
    87    60    61    1
    88    62    61    2
    89    97    98    1
    90    99    98    2
    91    89    90    2
    92   130   129   ar
    93    31    29   ar
    94   129   128    1
    95    41    40    1
    96    30    29   ar
    97    37    40    1
    98    37    36    1
    99    29    28    1
   100    75    73   ar
   101    75    74   ar
   102   128   127    1
   103    40    42    1
   104    73    71   ar
   105    36    26   am
   106   108   107    1
   107   108   109    1
   108    74    72   ar
   109    28    25    1
   110    26    27    2
   111    26    25    1
   112    71    72   ar
   113    71    70    1
   114   127   124    1
   115   109   110    2
   116    25    24    1
   117    70    67    1
   118   124   125    1
   119   124   123    1
   120    14    17    1
   121    14    15    1
   122    14    13    1
   123    17    18    1
   124   122   121    1
   125   126   125    2
   126    15    16    2
   127   121   118    1
   128   116   115    1
   129    67    68    1
   130    67    66    1
   131    23    21    1
   132    68    69    2
   133    21    22    1
   134    21    20    2
   135    20    19    1
   136    18    19    1
   137   118   117    1
   138   118   119    1
   139   115   112    1
   140   117   113   am
   141   113   114    2
   142   113   112    1
   143   111   112    1
   144   120   119    2
