@<TRIPOS>MOLECULE
tmp/3e2tA01.pdb
 121 116 0 0 0
SMALL
GASTEIGER

@<TRIPOS>ATOM
      1  N         -7.3930   26.5670  -14.0320 N.3    20  LEU20      -0.1245
      2  CA        -7.6490   27.8870  -14.5910 C.3    20  LEU20       0.1561
      3  C         -6.8330   28.9270  -13.8240 C.2    20  LEU20       0.2260
      4  O         -6.8720   28.9620  -12.5940 O.2    20  LEU20      -0.2867
      5  CB        -9.1440   28.2130  -14.5110 C.3    20  LEU20       0.0270
      6  CG       -10.1280   27.4350  -15.4000 C.3    20  LEU20       0.0019
      7  CD1       -9.7360   27.5440  -16.8560 C.3    20  LEU20       0.0001
      8  CD2      -10.2690   25.9730  -14.9960 C.3    20  LEU20       0.0001
      9  N         -7.9840   26.6030   -9.5320 N.3   132  TYR132     -0.1227
     10  CA        -9.3230   26.1080   -9.9100 C.3   132  TYR132      0.1736
     11  C         -9.2160   25.0060  -10.9620 C.2   132  TYR132      0.2595
     12  O         -8.7990   25.2550  -12.0980 O.2   132  TYR132     -0.2718
     13  CB       -10.1780   27.2600  -10.4570 C.3   132  TYR132      0.0548
     14  CG       -11.6430   26.9290  -10.6370 C.ar  132  TYR132     -0.0200
     15  CD1      -12.5570   27.1150   -9.6010 C.ar  132  TYR132     -0.0009
     16  CD2      -12.1150   26.4280  -11.8440 C.ar  132  TYR132     -0.0009
     17  CE1      -13.9090   26.8210   -9.7570 C.ar  132  TYR132      0.0417
     18  CE2      -13.4670   26.1310  -12.0250 C.ar  132  TYR132      0.0417
     19  CZ       -14.3610   26.3320  -10.9700 C.ar  132  TYR132      0.1957
     20  OH       -15.6970   26.0410  -11.1570 O.3   132  TYR132     -0.2866
     21  N         -9.6140   23.7950  -10.5920 N.am  133  LEU133     -0.1980
     22  CA        -9.4280   22.6360  -11.4620 C.3   133  LEU133      0.1596
     23  C        -10.5250   22.5180  -12.5330 C.2   133  LEU133      0.2287
     24  O        -11.7080   22.7840  -12.2740 O.2   133  LEU133     -0.2864
     25  CB        -9.3550   21.3530  -10.6050 C.3   133  LEU133      0.0297
     26  CG        -8.9010   20.0320  -11.2600 C.3   133  LEU133      0.0022
     27  CD1       -7.5430   20.1510  -11.8810 C.3   133  LEU133      0.0001
     28  CD2       -8.9110   18.8970  -10.2430 C.3   133  LEU133      0.0001
     29  N        -13.4420   21.3250  -14.4630 N.3   135  PRO135     -0.2116
     30  CA       -14.6040   20.6290  -13.8640 C.3   135  PRO135      0.1372
     31  C        -14.6410   19.1200  -14.1370 C.2   135  PRO135      0.2244
     32  O        -14.9490   18.3280  -13.2340 O.2   135  PRO135     -0.2868
     33  CB       -15.8010   21.3220  -14.5250 C.3   135  PRO135      0.0268
     34  CG       -15.2990   22.7130  -14.8510 C.3   135  PRO135      0.0207
     35  CD       -13.8400   22.5010  -15.2590 C.3   135  PRO135      0.0892
     36  N        -12.1830   17.5630  -11.7480 N.3   138  PHE138     -0.1227
     37  CA       -12.6280   17.6790  -10.3590 C.3   138  PHE138      0.1736
     38  C        -13.6900   16.6310  -10.0290 C.2   138  PHE138      0.2595
     39  O        -13.5920   15.9490   -9.0150 O.2   138  PHE138     -0.2718
     40  CB       -13.1480   19.0850  -10.0390 C.3   138  PHE138      0.0547
     41  CG       -13.3730   19.3060   -8.5710 C.ar  138  PHE138     -0.0202
     42  CD1      -12.3060   19.6230   -7.7310 C.ar  138  PHE138     -0.0042
     43  CD2      -14.6520   19.1400   -8.0120 C.ar  138  PHE138     -0.0042
     44  CE1      -12.5010   19.7910   -6.3420 C.ar  138  PHE138     -0.0003
     45  CE2      -14.8630   19.3240   -6.6300 C.ar  138  PHE138     -0.0003
     46  CZ       -13.7550   19.6490   -5.7930 C.ar  138  PHE138     -0.0000
     47  N        -14.7070   16.5040  -10.8870 N.am  139  LEU139     -0.1980
     48  CA       -15.7440   15.4540  -10.7210 C.3   139  LEU139      0.1596
     49  C        -15.1620   14.0360  -10.8120 C.2   139  LEU139      0.2287
     50  O        -15.5280   13.1470  -10.0310 O.2   139  LEU139     -0.2864
     51  CB       -16.8600   15.6140  -11.7510 C.3   139  LEU139      0.0297
     52  CG       -17.7140   16.8920  -11.6410 C.3   139  LEU139      0.0022
     53  CD1      -18.7470   16.9680  -12.7750 C.3   139  LEU139      0.0001
     54  CD2      -18.3800   16.9540  -10.2850 C.3   139  LEU139      0.0001
     55  N        -20.4870   19.3140  -18.9530 N.3   203  GLN203     -0.1245
     56  CA       -20.6980   20.7500  -18.7710 C.3   203  GLN203      0.1566
     57  C        -22.0370   21.0030  -18.0610 C.2   203  GLN203      0.2260
     58  O        -22.1360   21.8270  -17.1520 O.2   203  GLN203     -0.2867
     59  CB       -20.6410   21.4790  -20.1250 C.3   203  GLN203      0.0367
     60  CG       -21.2610   22.8890  -20.1340 C.3   203  GLN203      0.0905
     61  CD       -22.7470   22.8820  -20.5520 C.2   203  GLN203      0.2608
     62  OE1      -23.1250   22.2510  -21.5580 O.2   203  GLN203     -0.2717
     63  NE2      -23.5890   23.5840  -19.7840 N.am  203  GLN203     -0.0878
     64  N        -21.6790   19.5540  -14.3440 N.3   206  ALA206     -0.1231
     65  CA       -20.7910   20.4470  -13.5980 C.3   206  ALA206      0.1694
     66  C        -21.4270   21.7980  -13.2300 C.2   206  ALA206      0.2592
     67  O        -21.1840   22.3260  -12.1440 O.2   206  ALA206     -0.2718
     68  CB       -19.4830   20.6620  -14.3760 C.3   206  ALA206      0.0304
     69  N        -22.2220   22.3610  -14.1410 N.am  207  THR207     -0.1953
     70  CA       -22.9600   23.6020  -13.8740 C.3   207  THR207      0.1897
     71  C        -23.9780   23.4100  -12.7590 C.2   207  THR207      0.2313
     72  O        -24.0920   24.2520  -11.8750 O.2   207  THR207     -0.2863
     73  CB       -23.6510   24.1490  -15.1460 C.3   207  THR207      0.1794
     74  OG1      -22.6500   24.5100  -16.1040 O.3   207  THR207     -0.2208
     75  CG2      -24.4700   25.4040  -14.8410 C.3   207  THR207      0.0378
     76  N        -23.8180   20.9900  -10.3780 N.3   209  TYR209     -0.1227
     77  CA       -22.9230   20.8700   -9.2160 C.3   209  TYR209      0.1736
     78  C        -22.4920   22.2380   -8.6420 C.2   209  TYR209      0.2595
     79  O        -22.4930   22.4290   -7.4360 O.2   209  TYR209     -0.2718
     80  CB       -21.6790   20.0120   -9.5620 C.3   209  TYR209      0.0548
     81  CG       -20.7490   19.7280   -8.3780 C.ar  209  TYR209     -0.0200
     82  CD1      -20.8680   18.5510   -7.6310 C.ar  209  TYR209     -0.0009
     83  CD2      -19.7450   20.6410   -8.0160 C.ar  209  TYR209     -0.0009
     84  CE1      -20.0110   18.2890   -6.5570 C.ar  209  TYR209      0.0417
     85  CE2      -18.9170   20.4080   -6.9430 C.ar  209  TYR209      0.0417
     86  CZ       -19.0510   19.2220   -6.2110 C.ar  209  TYR209      0.1957
     87  OH       -18.2140   19.0050   -5.1310 O.3   209  TYR209     -0.2866
     88  N        -22.0620   23.1580   -9.5120 N.am  210  PHE210     -0.1976
     89  CA       -21.6330   24.5060   -9.1280 C.3   210  PHE210      0.1639
     90  C        -22.7620   25.2530   -8.4240 C.2   210  PHE210      0.2290
     91  O        -22.5520   25.8480   -7.3680 O.2   210  PHE210     -0.2864
     92  CB       -21.1830   25.2760  -10.3910 C.3   210  PHE210      0.0560
     93  CG       -20.5690   26.6390  -10.1360 C.ar  210  PHE210     -0.0200
     94  CD1      -19.1720   26.7930  -10.0860 C.ar  210  PHE210     -0.0042
     95  CD2      -21.3760   27.7860  -10.0170 C.ar  210  PHE210     -0.0042
     96  CE1      -18.5900   28.0660   -9.9050 C.ar  210  PHE210     -0.0003
     97  CE2      -20.8010   29.0550   -9.8220 C.ar  210  PHE210     -0.0003
     98  CZ       -19.4180   29.1900   -9.7580 C.ar  210  PHE210     -0.0000
     99  N        -21.6200   24.1310   -4.6170 N.3   214  GLU214     -0.1245
    100  CA       -20.7540   25.3320   -4.4480 C.3   214  GLU214      0.1567
    101  C        -21.5430   26.5890   -4.0200 C.2   214  GLU214      0.2260
    102  O        -21.0880   27.3400   -3.1480 O.2   214  GLU214     -0.2867
    103  CB       -19.9020   25.6430   -5.7050 C.3   214  GLU214      0.0388
    104  CG       -18.9900   24.5080   -6.1840 C.3   214  GLU214      0.1160
    105  CD       -17.8040   24.2410   -5.2510 C.2   214  GLU214      0.3649
    106  OE1      -17.2680   23.1120   -5.2970 O.co2 214  GLU214     -0.2457
    107  OE2      -17.4060   25.1370   -4.4640 O.co2 214  GLU214     -0.2457
    108  N        -21.4150   29.9110  -14.9380 N.3   261  CYS261     -0.1235
    109  CA       -20.7850   29.8010  -13.6220 C.3   261  CYS261      0.1677
    110  C        -19.7660   30.9080  -13.4480 C.2   261  CYS261      0.2270
    111  O        -18.7340   30.8830  -14.1050 O.2   261  CYS261     -0.2867
    112  CB       -20.0700   28.4550  -13.4760 C.3   261  CYS261      0.0956
    113  SG       -21.1060   27.0040  -13.6430 S.3   261  CYS261     -0.0801
    114  N        -16.7500   32.5620  -11.8190 N.3   263  ILE263     -0.1245
    115  CA       -15.6210   32.1450  -10.9550 C.3   263  ILE263      0.1561
    116  C        -15.0950   33.3270  -10.0990 C.2   263  ILE263      0.2260
    117  O        -14.7910   33.1700   -8.9120 O.2   263  ILE263     -0.2867
    118  CB       -14.4510   31.5410  -11.8060 C.3   263  ILE263      0.0252
    119  CG1      -14.9340   30.3800  -12.6840 C.3   263  ILE263      0.0019
    120  CG2      -13.2550   31.1230  -10.9220 C.3   263  ILE263      0.0019
    121  CD1      -15.8780   29.4380  -11.9860 C.3   263  ILE263      0.0001
@<TRIPOS>BOND
     1    62    61    2
     2    61    60    1
     3    61    63   am
     4    60    59    1
     5    59    56    1
     6    55    56    1
     7    56    57    1
     8    57    58    2
     9     7     6    1
    10    74    73    1
    11     6     8    1
    12     6     5    1
    13    35    34    1
    14    35    29    1
    15    73    75    1
    16    73    70    1
    17   108   109    1
    18    34    33    1
    19     2     5    1
    20     2     1    1
    21     2     3    1
    22    33    30    1
    23    29    30    1
    24    68    65    1
    25    64    65    1
    26    69    70    1
    27    69    66   am
    28    31    30    1
    29    31    32    2
    30   111   110    2
    31    70    71    1
    32     3     4    2
    33   113   112    1
    34   109   112    1
    35   109   110    1
    36    65    66    1
    37    66    67    2
    38    53    52    1
    39    71    72    2
    40   119   121    1
    41   119   118    1
    42    23    24    2
    43    23    22    1
    44    12    11    2
    45    18    16   ar
    46    18    19   ar
    47    27    26    1
    48    16    14   ar
    49   114   115    1
    50   118   115    1
    51   118   120    1
    52    51    52    1
    53    51    48    1
    54    36    37    1
    55    52    54    1
    56    22    25    1
    57    22    21    1
    58    26    25    1
    59    26    28    1
    60    20    19    1
    61    19    17   ar
    62    11    21   am
    63    11    10    1
    64   115   116    1
    65    47    48    1
    66    47    38   am
    67    49    48    1
    68    49    50    2
    69    14    13    1
    70    14    15   ar
    71    13    10    1
    72    92    93    1
    73    92    89    1
    74    76    77    1
    75    37    40    1
    76    37    38    1
    77    93    94   ar
    78    93    95   ar
    79   116   117    2
    80    94    96   ar
    81    40    41    1
    82    38    39    2
    83    95    97   ar
    84    10     9    1
    85    96    98   ar
    86    97    98   ar
    87    17    15   ar
    88    80    77    1
    89    80    81    1
    90    88    89    1
    91    88    78   am
    92    77    78    1
    93    89    90    1
    94    78    79    2
    95    41    43   ar
    96    41    42   ar
    97    90    91    2
    98    81    83   ar
    99    81    82   ar
   100    83    85   ar
   101    43    45   ar
   102    42    44   ar
   103    82    84   ar
   104    85    86   ar
   105    45    46   ar
   106    84    86   ar
   107    44    46   ar
   108    86    87    1
   109   104   103    1
   110   104   105    1
   111   103   100    1
   112   106   105   ar
   113   105   107   ar
   114    99   100    1
   115   100   101    1
   116   101   102    2
