@<TRIPOS>MOLECULE
tmp/3e2yA01.pdb
 150 143 0 0 0
SMALL
GASTEIGER

@<TRIPOS>ATOM
      1  N         17.5970  -11.3000  -12.7330 N.3    93  GLY93      -0.1210
      2  CA        16.9820  -11.0680  -14.0160 C.3    93  GLY93       0.1956
      3  C         15.4850  -11.3230  -14.0420 C.2    93  GLY93       0.2612
      4  O         14.8770  -11.8600  -13.0910 O.2    93  GLY93      -0.2717
      5  N         14.8840  -10.9160  -15.1590 N.am   94  ALA94      -0.1965
      6  CA        13.5950  -11.4380  -15.5400 C.3    94  ALA94       0.1728
      7  C         13.5370  -13.0020  -15.6340 C.2    94  ALA94       0.2616
      8  O         12.4650  -13.5700  -15.3930 O.2    94  ALA94      -0.2715
      9  CB        13.0800  -10.7510  -16.8800 C.3    94  ALA94       0.0334
     10  N         14.6350  -13.6820  -15.9930 N.am   95  TYR95      -0.1974
     11  CA        14.7040  -15.1560  -15.9570 C.3    95  TYR95       0.1639
     12  C         14.3310  -15.6660  -14.5900 C.2    95  TYR95       0.2290
     13  O         13.4400  -16.5390  -14.4690 O.2    95  TYR95      -0.2864
     14  CB        16.1360  -15.7010  -16.2240 C.3    95  TYR95       0.0560
     15  CG        16.3690  -16.2870  -17.6140 C.ar   95  TYR95      -0.0198
     16  CD1       16.1320  -17.6390  -17.8980 C.ar   95  TYR95      -0.0009
     17  CD2       16.8720  -15.4690  -18.6360 C.ar   95  TYR95      -0.0009
     18  CE1       16.3950  -18.1750  -19.1970 C.ar   95  TYR95       0.0417
     19  CE2       17.1320  -15.9620  -19.9040 C.ar   95  TYR95       0.0417
     20  CZ        16.8680  -17.2940  -20.1980 C.ar   95  TYR95       0.1957
     21  OH        17.1400  -17.6740  -21.4960 O.3    95  TYR95      -0.2866
     22  N         10.6550  -15.1570  -13.7400 N.3    98  LEU98      -0.1245
     23  CA         9.9200  -16.2020  -14.3980 C.3    98  LEU98       0.1561
     24  C         10.1000  -17.4740  -13.6130 C.2    98  LEU98       0.2260
     25  O          9.1290  -18.1660  -13.3050 O.2    98  LEU98      -0.2867
     26  CB        10.4510  -16.3780  -15.8340 C.3    98  LEU98       0.0270
     27  CG        10.0820  -15.2920  -16.8480 C.3    98  LEU98       0.0019
     28  CD1       11.0170  -15.2520  -18.1530 C.3    98  LEU98       0.0001
     29  CD2        8.5290  -15.3030  -17.1820 C.3    98  LEU98       0.0001
     30  N          9.4650  -16.5610  -26.0240 N.3   119  TYR119     -0.1241
     31  CA        10.8250  -16.5260  -25.4410 C.3   119  TYR119      0.1605
     32  C         11.1880  -17.9420  -24.9700 C.2   119  TYR119      0.2264
     33  O         10.3580  -18.6380  -24.3470 O.2   119  TYR119     -0.2867
     34  CB        10.9990  -15.4510  -24.3450 C.3   119  TYR119      0.0534
     35  CG        12.4570  -15.3740  -23.9910 C.ar  119  TYR119     -0.0201
     36  CD1       13.3720  -14.8990  -24.9290 C.ar  119  TYR119     -0.0009
     37  CD2       12.9390  -15.8950  -22.7800 C.ar  119  TYR119     -0.0009
     38  CE1       14.7290  -14.8840  -24.6520 C.ar  119  TYR119      0.0417
     39  CE2       14.2920  -15.8740  -22.4820 C.ar  119  TYR119      0.0417
     40  CZ        15.1980  -15.3730  -23.4260 C.ar  119  TYR119      0.1957
     41  OH        16.5820  -15.3790  -23.2060 O.3   119  TYR119     -0.2866
     42  N          3.7750  -12.1710  -23.1310 N.3   174  ASN174     -0.1240
     43  CA         5.0510  -11.4290  -23.3620 C.3   174  ASN174      0.1653
     44  C          4.7020  -10.2560  -24.2480 C.2   174  ASN174      0.2266
     45  O          4.4700  -10.4360  -25.4190 O.2   174  ASN174     -0.2867
     46  CB         6.1110  -12.3410  -24.0060 C.3   174  ASN174      0.1155
     47  CG         7.4650  -11.6740  -24.2400 C.2   174  ASN174      0.2627
     48  OD1        8.1000  -11.9840  -25.2210 O.2   174  ASN174     -0.2716
     49  ND2        7.9220  -10.8000  -23.3560 N.am  174  ASN174     -0.0877
     50  N          8.8750  -10.7720  -27.7030 N.3   178  ASN178     -0.1240
     51  CA        10.1090  -11.2550  -28.2980 C.3   178  ASN178      0.1653
     52  C          9.8140  -12.6980  -28.8170 C.2   178  ASN178      0.2266
     53  O          9.3950  -13.5520  -28.0390 O.2   178  ASN178     -0.2867
     54  CB        11.2360  -11.1980  -27.2300 C.3   178  ASN178      0.1155
     55  CG        12.5050  -11.8550  -27.6790 C.2   178  ASN178      0.2627
     56  OD1       12.6830  -12.1710  -28.8770 O.2   178  ASN178     -0.2716
     57  ND2       13.4070  -12.0850  -26.7380 N.am  178  ASN178     -0.0877
     58  N          5.3710  -11.0680  -18.9210 N.3   206  ASP206     -0.1239
     59  CA         6.7570  -10.7160  -19.1170 C.3   206  ASP206      0.1674
     60  C          6.8260   -9.3850  -19.8810 C.2   206  ASP206      0.2266
     61  O          6.6240   -9.3470  -21.0930 O.2   206  ASP206     -0.2867
     62  CB         7.4300  -11.8200  -19.8980 C.3   206  ASP206      0.1410
     63  CG         8.9310  -11.5760  -20.1480 C.2   206  ASP206      0.3668
     64  OD1        9.4330  -10.4530  -19.9180 O.co2 206  ASP206     -0.2456
     65  OD2        9.6350  -12.5380  -20.5620 O.co2 206  ASP206     -0.2456
     66  N          9.4970   -6.9870  -19.7980 N.3   208  VAL208     -0.1231
     67  CA        10.8520   -6.4290  -19.8150 C.3   208  VAL208      0.1692
     68  C         11.0930   -5.3050  -20.8060 C.2   208  VAL208      0.2592
     69  O         11.8750   -4.3920  -20.4930 O.2   208  VAL208     -0.2718
     70  CB        11.9520   -7.5160  -19.9930 C.3   208  VAL208      0.0266
     71  CG1       11.7830   -8.5760  -18.9010 C.3   208  VAL208      0.0020
     72  CG2       11.8890   -8.1660  -21.3670 C.3   208  VAL208      0.0020
     73  N         10.4330   -5.3810  -21.9660 N.am  209  TYR209     -0.1976
     74  CA        10.5730   -4.4050  -23.0750 C.3   209  TYR209      0.1639
     75  C          9.5470   -3.2820  -23.0360 C.2   209  TYR209      0.2290
     76  O          9.3870   -2.5950  -24.0420 O.2   209  TYR209     -0.2864
     77  CB        10.4950   -5.0730  -24.4580 C.3   209  TYR209      0.0560
     78  CG        11.5490   -6.1070  -24.6230 C.ar  209  TYR209     -0.0198
     79  CD1       12.9050   -5.7550  -24.5860 C.ar  209  TYR209     -0.0009
     80  CD2       11.2110   -7.4600  -24.7840 C.ar  209  TYR209     -0.0009
     81  CE1       13.8830   -6.6970  -24.7230 C.ar  209  TYR209      0.0417
     82  CE2       12.1960   -8.4290  -24.9040 C.ar  209  TYR209      0.0417
     83  CZ        13.5370   -8.0320  -24.8730 C.ar  209  TYR209      0.1957
     84  OH        14.5350   -8.9730  -24.9610 O.3   209  TYR209     -0.2866
     85  N         12.8400   -5.8120  -15.8940 N.3   237  SER237     -0.1217
     86  CA        14.2670   -6.1450  -15.9290 C.3   237  SER237      0.1889
     87  C         15.1550   -4.8870  -16.0480 C.2   237  SER237      0.2288
     88  O         14.9010   -4.0340  -16.9000 O.2   237  SER237     -0.2866
     89  CB        14.5530   -7.0070  -17.1460 C.3   237  SER237      0.2089
     90  OG        15.9060   -7.3140  -17.1680 O.3   237  SER237     -0.2183
     91  N         18.3350   -4.9810  -17.0420 N.3   239  GLY239     -0.1210
     92  CA        19.0260   -5.1790  -18.3170 C.3   239  GLY239      0.1956
     93  C         18.3670   -4.4840  -19.4870 C.2   239  GLY239      0.2611
     94  O         19.0400   -3.8780  -20.3300 O.2   239  GLY239     -0.2717
     95  N         17.0420   -4.5760  -19.5340 N.am  240  LYS240     -0.1979
     96  CA        16.2610   -3.9810  -20.6080 C.3   240  LYS240      0.1596
     97  C         16.0390   -2.4940  -20.3680 C.2   240  LYS240      0.2287
     98  O         16.1950   -1.6830  -21.2810 O.2   240  LYS240     -0.2864
     99  CB        14.9160   -4.6970  -20.7520 C.3   240  LYS240      0.0298
    100  CG        14.8680   -5.7070  -21.8870 C.3   240  LYS240      0.0038
    101  CD        16.0350   -6.6790  -21.8110 C.3   240  LYS240      0.0206
    102  CE        15.7240   -7.8420  -20.8840 C.3   240  LYS240      0.1093
    103  NZ        16.7170   -8.9430  -21.0230 N.3   240  LYS240     -0.1314
    104  N         22.4890   -5.4690  -19.6050 N.3   245  THR245     -0.1218
    105  CA        22.0910   -6.9000  -19.6050 C.3   245  THR245      0.1862
    106  C         22.8940   -7.7270  -18.5930 C.2   245  THR245      0.2287
    107  O         22.3760   -8.7050  -18.0240 O.2   245  THR245     -0.2866
    108  CB        22.1080   -7.5210  -21.0030 C.3   245  THR245      0.1770
    109  OG1       23.4160   -7.3980  -21.5640 O.3   245  THR245     -0.2211
    110  CG2       21.0800   -6.8310  -21.9390 C.3   245  THR245      0.0375
    111  N         21.8590   -8.3630  -14.4660 N.3   248  LYS248     -0.1231
    112  CA        20.9880   -9.4930  -14.1630 C.3   248  LYS248      0.1693
    113  C         20.1460   -9.2680  -12.9090 C.2   248  LYS248      0.2591
    114  O         20.3290   -9.9820  -11.9100 O.2   248  LYS248     -0.2718
    115  CB        21.7800  -10.8160  -14.0780 C.3   248  LYS248      0.0285
    116  CG        22.2640  -11.3580  -15.4450 C.3   248  LYS248      0.0035
    117  CD        21.0720  -11.9080  -16.3180 C.3   248  LYS248      0.0206
    118  CE        20.3580  -13.0500  -15.6430 C.3   248  LYS248      0.1093
    119  NZ        19.3690  -13.6290  -16.5780 N.3   248  LYS248     -0.1314
    120  N         19.2550   -8.2600  -12.9850 N.am  249  LEU249     -0.1980
    121  CA        18.2820   -7.8990  -11.9430 C.3   249  LEU249      0.1596
    122  C         16.9280   -7.6750  -12.6170 C.2   249  LEU249      0.2287
    123  O         16.8480   -6.9190  -13.5840 O.2   249  LEU249     -0.2864
    124  CB        18.7100   -6.6260  -11.2070 C.3   249  LEU249      0.0297
    125  CG        19.9540   -6.6480  -10.3250 C.3   249  LEU249      0.0022
    126  CD1       20.2400   -5.2070   -9.8020 C.3   249  LEU249      0.0001
    127  CD2       19.8120   -7.6880   -9.1280 C.3   249  LEU249      0.0001
    128  N         13.5980   -4.4940  -29.5230 N.3   331  TYR331     -0.1227
    129  CA        14.7400   -4.1900  -30.3430 C.3   331  TYR331      0.1736
    130  C         15.1410   -5.3670  -31.2290 C.2   331  TYR331      0.2595
    131  O         16.2970   -5.5510  -31.5660 O.2   331  TYR331     -0.2718
    132  CB        15.9060   -3.6280  -29.4960 C.3   331  TYR331      0.0548
    133  CG        16.3320   -4.4060  -28.2450 C.ar  331  TYR331     -0.0200
    134  CD1       16.5070   -3.7060  -27.0560 C.ar  331  TYR331     -0.0009
    135  CD2       16.5840   -5.7970  -28.2440 C.ar  331  TYR331     -0.0009
    136  CE1       16.9370   -4.2890  -25.9340 C.ar  331  TYR331      0.0417
    137  CE2       17.0840   -6.4400  -27.0440 C.ar  331  TYR331      0.0417
    138  CZ        17.2320   -5.6360  -25.9010 C.ar  331  TYR331      0.1957
    139  OH        17.7160   -6.0750  -24.6800 O.3   331  TYR331     -0.2866
    140  N         14.1520   -6.1630  -31.6120 N.am  332  PHE332     -0.1976
    141  CA        14.3670   -7.2430  -32.6050 C.3   332  PHE332      0.1639
    142  C         13.4860   -7.0140  -33.8120 C.2   332  PHE332      0.2290
    143  O         12.3570   -6.5400  -33.6810 O.2   332  PHE332     -0.2864
    144  CB        14.0760   -8.6550  -32.0160 C.3   332  PHE332      0.0560
    145  CG        14.9310   -8.9860  -30.8310 C.ar  332  PHE332     -0.0200
    146  CD1       16.2990   -9.1430  -30.9720 C.ar  332  PHE332     -0.0042
    147  CD2       14.3790   -9.0730  -29.5380 C.ar  332  PHE332     -0.0042
    148  CE1       17.0700   -9.4300  -29.8540 C.ar  332  PHE332     -0.0003
    149  CE2       15.1730   -9.3310  -28.4540 C.ar  332  PHE332     -0.0003
    150  CZ        16.5080   -9.5350  -28.6280 C.ar  332  PHE332     -0.0000
@<TRIPOS>BOND
     1   142   143    2
     2   142   141    1
     3   141   144    1
     4   141   140    1
     5   144   145    1
     6   140   130   am
     7   131   130    2
     8   130   129    1
     9   146   145   ar
    10   146   148   ar
    11   145   147   ar
    12   129   128    1
    13   129   132    1
    14   148   150   ar
    15   147   149   ar
    16   132   133    1
    17    56    55    2
    18    52    51    1
    19    52    53    2
    20   150   149   ar
    21    51    50    1
    22    51    54    1
    23   133   135   ar
    24   133   134   ar
    25   135   137   ar
    26    55    54    1
    27    55    57   am
    28   134   136   ar
    29   137   138   ar
    30    30    31    1
    31   136   138   ar
    32   138   139    1
    33    31    32    1
    34    31    34    1
    35    45    44    2
    36    48    47    2
    37    32    33    2
    38    84    83    1
    39    36    38   ar
    40    36    35   ar
    41    82    83   ar
    42    82    80   ar
    43    83    81   ar
    44    80    78   ar
    45    81    79   ar
    46    38    40   ar
    47    78    79   ar
    48    78    77    1
    49    77    74    1
    50    34    35    1
    51    44    43    1
    52    47    46    1
    53    47    49   am
    54    76    75    2
    55    46    43    1
    56    35    37   ar
    57    40    41    1
    58    40    39   ar
    59    43    42    1
    60    74    75    1
    61    74    73    1
    62    37    39   ar
    63    73    68   am
    64   110   108    1
    65   100   101    1
    66   100    99    1
    67   101   102    1
    68   109   108    1
    69    21    20    1
    70    72    70    1
    71    98    97    2
    72    61    60    2
    73   103   102    1
    74   108   105    1
    75    68    69    2
    76    68    67    1
    77    99    96    1
    78    96    97    1
    79    96    95    1
    80    65    63   ar
    81    94    93    2
    82    20    19   ar
    83    20    18   ar
    84    63    64   ar
    85    63    62    1
    86    70    67    1
    87    70    71    1
    88    19    17   ar
    89    62    59    1
    90    60    59    1
    91    67    66    1
    92   105   104    1
    93   105   106    1
    94    95    93   am
    95    93    92    1
    96    18    16   ar
    97    59    58    1
    98    17    15   ar
    99   106   107    2
   100    92    91    1
   101    28    27    1
   102    16    15   ar
   103    15    14    1
   104    29    27    1
   105    90    89    1
   106    89    86    1
   107    88    87    2
   108     9     6    1
   109    27    26    1
   110   119   118    1
   111   117   118    1
   112   117   116    1
   113    14    11    1
   114    87    86    1
   115    10    11    1
   116    10     7   am
   117    11    12    1
   118    86    85    1
   119    26    23    1
   120     7     6    1
   121     7     8    2
   122     6     5    1
   123   116   115    1
   124     5     3   am
   125    12    13    2
   126   111   112    1
   127    23    22    1
   128    23    24    1
   129   112   115    1
   130   112   113    1
   131     3     2    1
   132     3     4    2
   133     2     1    1
   134    24    25    2
   135   123   122    2
   136   120   113   am
   137   120   121    1
   138   113   114    2
   139   122   121    1
   140   121   124    1
   141   124   125    1
   142   125   126    1
   143   125   127    1
