@<TRIPOS>MOLECULE
tmp/3e2yA00.pdb
 114 112 0 0 0
SMALL
GASTEIGER

@<TRIPOS>ATOM
      1  N         20.5810  -21.1040  -26.8560 N.3    13  TRP13      -0.1241
      2  CA        21.7000  -20.1820  -26.6370 C.3    13  TRP13       0.1605
      3  C         23.0770  -20.8400  -26.4630 C.2    13  TRP13       0.2264
      4  O         24.0770  -20.3650  -27.0170 O.2    13  TRP13      -0.2867
      5  CB        21.3650  -19.1960  -25.5170 C.3    13  TRP13       0.0550
      6  CG        20.0120  -18.5490  -25.7590 C.ar   13  TRP13       0.0003
      7  CD1       18.8750  -18.7420  -25.0330 C.ar   13  TRP13       0.0946
      8  CD2       19.6530  -17.6330  -26.8300 C.ar   13  TRP13       0.0152
      9  NE1       17.8580  -17.9990  -25.5510 N.ar   13  TRP13      -0.2442
     10  CE2       18.2860  -17.3180  -26.6560 C.ar   13  TRP13       0.0810
     11  CE3       20.3640  -17.0250  -27.9000 C.ar   13  TRP13       0.0012
     12  CZ2       17.6000  -16.4430  -27.5230 C.ar   13  TRP13       0.0191
     13  CZ3       19.6730  -16.1600  -28.7680 C.ar   13  TRP13       0.0001
     14  CH2       18.3160  -15.8880  -28.5770 C.ar   13  TRP13       0.0015
     15  N         22.1820  -12.4310  -30.9510 N.3    30  GLN30      -0.1231
     16  CA        21.8470  -12.2960  -29.4970 C.3    30  GLN30       0.1698
     17  C         21.5780  -10.8220  -29.1030 C.2    30  GLN30       0.2592
     18  O         22.1220   -9.9040  -29.7610 O.2    30  GLN30      -0.2718
     19  CB        22.9420  -12.8690  -28.5780 C.3    30  GLN30       0.0381
     20  CG        23.0900  -14.3580  -28.6500 C.3    30  GLN30       0.0905
     21  CD        23.9620  -14.8340  -29.8360 C.2    30  GLN30       0.2608
     22  OE1       24.4440  -14.0370  -30.6650 O.2    30  GLN30      -0.2717
     23  NE2       24.1520  -16.1420  -29.9180 N.am   30  GLN30      -0.0878
     24  N         20.7280  -10.6330  -28.0710 N.am   31  GLY31      -0.1957
     25  CA        20.3540   -9.3170  -27.5410 C.3    31  GLY31       0.1869
     26  C         21.4380   -8.6780  -26.6730 C.2    31  GLY31       0.2309
     27  O         21.2300   -8.4010  -25.4660 O.2    31  GLY31      -0.2863
     28  N         14.6350  -13.6820  -15.9930 N.3    95  TYR95      -0.1241
     29  CA        14.7040  -15.1560  -15.9570 C.3    95  TYR95       0.1605
     30  C         14.3310  -15.6660  -14.5900 C.2    95  TYR95       0.2264
     31  O         13.4400  -16.5390  -14.4690 O.2    95  TYR95      -0.2867
     32  CB        16.1360  -15.7010  -16.2240 C.3    95  TYR95       0.0534
     33  CG        16.3690  -16.2870  -17.6140 C.ar   95  TYR95      -0.0201
     34  CD1       16.1320  -17.6390  -17.8980 C.ar   95  TYR95      -0.0009
     35  CD2       16.8720  -15.4690  -18.6360 C.ar   95  TYR95      -0.0009
     36  CE1       16.3950  -18.1750  -19.1970 C.ar   95  TYR95       0.0417
     37  CE2       17.1320  -15.9620  -19.9040 C.ar   95  TYR95       0.0417
     38  CZ        16.8680  -17.2940  -20.1980 C.ar   95  TYR95       0.1957
     39  OH        17.1400  -17.6740  -21.4960 O.3    95  TYR95      -0.2866
     40  N          9.4650  -16.5610  -26.0240 N.3   119  TYR119     -0.1241
     41  CA        10.8250  -16.5260  -25.4410 C.3   119  TYR119      0.1605
     42  C         11.1880  -17.9420  -24.9700 C.2   119  TYR119      0.2264
     43  O         10.3580  -18.6380  -24.3470 O.2   119  TYR119     -0.2867
     44  CB        10.9990  -15.4510  -24.3450 C.3   119  TYR119      0.0534
     45  CG        12.4570  -15.3740  -23.9910 C.ar  119  TYR119     -0.0201
     46  CD1       13.3720  -14.8990  -24.9290 C.ar  119  TYR119     -0.0009
     47  CD2       12.9390  -15.8950  -22.7800 C.ar  119  TYR119     -0.0009
     48  CE1       14.7290  -14.8840  -24.6520 C.ar  119  TYR119      0.0417
     49  CE2       14.2920  -15.8740  -22.4820 C.ar  119  TYR119      0.0417
     50  CZ        15.1980  -15.3730  -23.4260 C.ar  119  TYR119      0.1957
     51  OH        16.5820  -15.3790  -23.2060 O.3   119  TYR119     -0.2866
     52  N          8.8750  -10.7720  -27.7030 N.3   178  ASN178     -0.1240
     53  CA        10.1090  -11.2550  -28.2980 C.3   178  ASN178      0.1653
     54  C          9.8140  -12.6980  -28.8170 C.2   178  ASN178      0.2266
     55  O          9.3950  -13.5520  -28.0390 O.2   178  ASN178     -0.2867
     56  CB        11.2360  -11.1980  -27.2300 C.3   178  ASN178      0.1155
     57  CG        12.5050  -11.8550  -27.6790 C.2   178  ASN178      0.2627
     58  OD1       12.6830  -12.1710  -28.8770 O.2   178  ASN178     -0.2716
     59  ND2       13.4070  -12.0850  -26.7380 N.am  178  ASN178     -0.0877
     60  N         10.4330   -5.3810  -21.9660 N.3   209  TYR209     -0.1241
     61  CA        10.5730   -4.4050  -23.0750 C.3   209  TYR209      0.1605
     62  C          9.5470   -3.2820  -23.0360 C.2   209  TYR209      0.2264
     63  O          9.3870   -2.5950  -24.0420 O.2   209  TYR209     -0.2867
     64  CB        10.4950   -5.0730  -24.4580 C.3   209  TYR209      0.0534
     65  CG        11.5490   -6.1070  -24.6230 C.ar  209  TYR209     -0.0201
     66  CD1       12.9050   -5.7550  -24.5860 C.ar  209  TYR209     -0.0009
     67  CD2       11.2110   -7.4600  -24.7840 C.ar  209  TYR209     -0.0009
     68  CE1       13.8830   -6.6970  -24.7230 C.ar  209  TYR209      0.0417
     69  CE2       12.1960   -8.4290  -24.9040 C.ar  209  TYR209      0.0417
     70  CZ        13.5370   -8.0320  -24.8730 C.ar  209  TYR209      0.1957
     71  OH        14.5350   -8.9730  -24.9610 O.3   209  TYR209     -0.2866
     72  N         17.0420   -4.5760  -19.5340 N.3   240  LYS240     -0.1245
     73  CA        16.2610   -3.9810  -20.6080 C.3   240  LYS240      0.1561
     74  C         16.0390   -2.4940  -20.3680 C.2   240  LYS240      0.2260
     75  O         16.1950   -1.6830  -21.2810 O.2   240  LYS240     -0.2867
     76  CB        14.9160   -4.6970  -20.7520 C.3   240  LYS240      0.0271
     77  CG        14.8680   -5.7070  -21.8870 C.3   240  LYS240      0.0035
     78  CD        16.0350   -6.6790  -21.8110 C.3   240  LYS240      0.0206
     79  CE        15.7240   -7.8420  -20.8840 C.3   240  LYS240      0.1093
     80  NZ        16.7170   -8.9430  -21.0230 N.3   240  LYS240     -0.1314
     81  N         13.5980   -4.4940  -29.5230 N.3   331  TYR331     -0.1227
     82  CA        14.7400   -4.1900  -30.3430 C.3   331  TYR331      0.1736
     83  C         15.1410   -5.3670  -31.2290 C.2   331  TYR331      0.2595
     84  O         16.2970   -5.5510  -31.5660 O.2   331  TYR331     -0.2718
     85  CB        15.9060   -3.6280  -29.4960 C.3   331  TYR331      0.0548
     86  CG        16.3320   -4.4060  -28.2450 C.ar  331  TYR331     -0.0200
     87  CD1       16.5070   -3.7060  -27.0560 C.ar  331  TYR331     -0.0009
     88  CD2       16.5840   -5.7970  -28.2440 C.ar  331  TYR331     -0.0009
     89  CE1       16.9370   -4.2890  -25.9340 C.ar  331  TYR331      0.0417
     90  CE2       17.0840   -6.4400  -27.0440 C.ar  331  TYR331      0.0417
     91  CZ        17.2320   -5.6360  -25.9010 C.ar  331  TYR331      0.1957
     92  OH        17.7160   -6.0750  -24.6800 O.3   331  TYR331     -0.2866
     93  N         14.1520   -6.1630  -31.6120 N.am  332  PHE332     -0.1976
     94  CA        14.3670   -7.2430  -32.6050 C.3   332  PHE332      0.1639
     95  C         13.4860   -7.0140  -33.8120 C.2   332  PHE332      0.2290
     96  O         12.3570   -6.5400  -33.6810 O.2   332  PHE332     -0.2864
     97  CB        14.0760   -8.6550  -32.0160 C.3   332  PHE332      0.0560
     98  CG        14.9310   -8.9860  -30.8310 C.ar  332  PHE332     -0.0200
     99  CD1       16.2990   -9.1430  -30.9720 C.ar  332  PHE332     -0.0042
    100  CD2       14.3790   -9.0730  -29.5380 C.ar  332  PHE332     -0.0042
    101  CE1       17.0700   -9.4300  -29.8540 C.ar  332  PHE332     -0.0003
    102  CE2       15.1730   -9.3310  -28.4540 C.ar  332  PHE332     -0.0003
    103  CZ        16.5080   -9.5350  -28.6280 C.ar  332  PHE332     -0.0000
    104  N         15.4500  -13.6070  -37.0270 N.3   389  ARG389     -0.1245
    105  CA        15.3590  -12.4510  -36.1180 C.3   389  ARG389      0.1563
    106  C         16.7070  -11.6940  -36.0310 C.2   389  ARG389      0.2260
    107  O         17.7560  -12.3180  -35.8520 O.2   389  ARG389     -0.2867
    108  CB        14.8470  -12.8850  -34.7420 C.3   389  ARG389      0.0307
    109  CG        14.5530  -11.7490  -33.7960 C.3   389  ARG389      0.0489
    110  CD        14.6700  -12.2040  -32.3390 C.3   389  ARG389      0.2205
    111  NE        16.0350  -12.3720  -31.9410 N.pl3 389  ARG389     -0.0865
    112  CZ        16.4540  -12.6820  -30.7090 C.cat 389  ARG389      0.5346
    113  NH1       15.5820  -12.8710  -29.7030 N.pl3 389  ARG389      0.1354
    114  NH2       17.7690  -12.8070  -30.4850 N.pl3 389  ARG389      0.1354
@<TRIPOS>BOND
     1   104   105    1
     2   105   106    1
     3   105   108    1
     4   106   107    2
     5   108   109    1
     6    95    96    2
     7    95    94    1
     8   109   110    1
     9    94    97    1
    10    94    93    1
    11   110   111    1
    12    97    98    1
    13   111   112    2
    14    93    83   am
    15    84    83    2
    16    83    82    1
    17    99    98   ar
    18    99   101   ar
    19    15    16    1
    20    98   100   ar
    21   112   114    1
    22   112   113    1
    23    22    21    2
    24    82    81    1
    25    82    85    1
    26    23    21   am
    27   101   103   ar
    28    21    20    1
    29    18    17    2
    30   100   102   ar
    31    16    17    1
    32    16    19    1
    33    85    86    1
    34    17    24   am
    35    58    57    2
    36    54    53    1
    37    54    55    2
    38    13    14   ar
    39    13    11   ar
    40    20    19    1
    41   103   102   ar
    42    14    12   ar
    43    53    52    1
    44    53    56    1
    45    86    88   ar
    46    86    87   ar
    47    88    90   ar
    48    24    25    1
    49    11     8   ar
    50    57    56    1
    51    57    59   am
    52    25    26    1
    53    12    10   ar
    54    87    89   ar
    55    90    91   ar
    56     4     3    2
    57     1     2    1
    58     8    10   ar
    59     8     6   ar
    60    26    27    2
    61    10     9   ar
    62     2     3    1
    63     2     5    1
    64    40    41    1
    65    89    91   ar
    66    91    92    1
    67     6     5    1
    68     6     7   ar
    69     9     7   ar
    70    41    42    1
    71    41    44    1
    72    42    43    2
    73    71    70    1
    74    46    48   ar
    75    46    45   ar
    76    69    70   ar
    77    69    67   ar
    78    70    68   ar
    79    67    65   ar
    80    68    66   ar
    81    48    50   ar
    82    65    66   ar
    83    65    64    1
    84    64    61    1
    85    44    45    1
    86    63    62    2
    87    45    47   ar
    88    50    51    1
    89    50    49   ar
    90    61    62    1
    91    61    60    1
    92    47    49   ar
    93    77    78    1
    94    77    76    1
    95    78    79    1
    96    39    38    1
    97    75    74    2
    98    80    79    1
    99    76    73    1
   100    73    74    1
   101    73    72    1
   102    38    37   ar
   103    38    36   ar
   104    37    35   ar
   105    36    34   ar
   106    35    33   ar
   107    34    33   ar
   108    33    32    1
   109    32    29    1
   110    28    29    1
   111    29    30    1
   112    30    31    2
