@<TRIPOS>MOLECULE
tmp/3e2zA00.pdb
 131 129 0 0 0
SMALL
GASTEIGER

@<TRIPOS>ATOM
      1  N         26.1720  -19.3450  -25.0100 N.3    11  ASN11      -0.1240
      2  CA        26.4840  -20.7490  -24.8030 C.3    11  ASN11       0.1653
      3  C         25.9010  -21.4880  -26.0120 C.2    11  ASN11       0.2266
      4  O         24.6960  -21.3110  -26.3710 O.2    11  ASN11      -0.2867
      5  CB        25.8060  -21.2580  -23.5370 C.3    11  ASN11       0.1155
      6  CG        26.1290  -22.7270  -23.2400 C.2    11  ASN11       0.2627
      7  OD1       26.9560  -23.0240  -22.3590 O.2    11  ASN11      -0.2716
      8  ND2       25.4970  -23.6350  -23.9510 N.am   11  ASN11      -0.0877
      9  N         25.1250  -24.6160  -26.9120 N.3    13  TRP13      -0.1241
     10  CA        24.0270  -25.5070  -26.6140 C.3    13  TRP13       0.1605
     11  C         22.6620  -24.7810  -26.4050 C.2    13  TRP13       0.2264
     12  O         21.6160  -25.2910  -26.8190 O.2    13  TRP13      -0.2867
     13  CB        24.4230  -26.4370  -25.4360 C.3    13  TRP13       0.0550
     14  CG        25.7170  -27.1220  -25.6870 C.ar   13  TRP13       0.0003
     15  CD1       26.8770  -26.9350  -25.0090 C.ar   13  TRP13       0.0946
     16  CD2       26.0100  -28.0650  -26.7450 C.ar   13  TRP13       0.0152
     17  NE1       27.8780  -27.7090  -25.5750 N.ar   13  TRP13      -0.2442
     18  CE2       27.3570  -28.4100  -26.6320 C.ar   13  TRP13       0.0810
     19  CE3       25.2520  -28.6310  -27.7950 C.ar   13  TRP13       0.0012
     20  CZ2       27.9660  -29.3060  -27.5120 C.ar   13  TRP13       0.0191
     21  CZ3       25.8480  -29.5310  -28.6610 C.ar   13  TRP13       0.0001
     22  CH2       27.1880  -29.8580  -28.5220 C.ar   13  TRP13       0.0015
     23  N         23.1960  -33.5740  -30.8790 N.3    30  GLN30      -0.1231
     24  CA        23.4990  -33.5450  -29.4480 C.3    30  GLN30       0.1698
     25  C         24.0910  -34.8940  -29.0960 C.2    30  GLN30       0.2593
     26  O         23.9000  -35.8890  -29.8600 O.2    30  GLN30      -0.2718
     27  CB        22.2700  -33.1510  -28.6110 C.3    30  GLN30       0.0381
     28  CG        22.0430  -31.6400  -28.5780 C.3    30  GLN30       0.0905
     29  CD        21.6720  -31.0000  -29.9610 C.2    30  GLN30       0.2608
     30  OE1       21.5010  -31.6870  -30.9830 O.2    30  GLN30      -0.2717
     31  NE2       21.5590  -29.6730  -29.9800 N.am   30  GLN30      -0.0878
     32  N         24.8890  -34.9190  -28.0380 N.am   31  GLY31      -0.1942
     33  CA        25.4910  -36.1540  -27.5910 C.3    31  GLY31       0.2014
     34  C         24.4930  -36.7960  -26.6400 C.2    31  GLY31       0.2638
     35  O         24.7910  -37.0410  -25.4770 O.2    31  GLY31      -0.2714
     36  N         23.2960  -37.0320  -27.1840 N.am   32  PHE32      -0.1973
     37  CA        22.1210  -37.5840  -26.5230 C.3    32  PHE32       0.1639
     38  C         22.0150  -39.0130  -27.0950 C.2    32  PHE32       0.2290
     39  O         21.5720  -39.2280  -28.2400 O.2    32  PHE32      -0.2864
     40  CB        20.8880  -36.6900  -26.8210 C.3    32  PHE32       0.0560
     41  CG        19.5700  -37.2750  -26.3640 C.ar   32  PHE32      -0.0200
     42  CD1       18.8980  -38.2600  -27.1260 C.ar   32  PHE32      -0.0042
     43  CD2       18.9420  -36.8060  -25.1820 C.ar   32  PHE32      -0.0042
     44  CE1       17.6420  -38.7940  -26.6670 C.ar   32  PHE32      -0.0003
     45  CE2       17.7130  -37.3190  -24.7520 C.ar   32  PHE32      -0.0003
     46  CZ        17.0640  -38.3000  -25.4810 C.ar   32  PHE32      -0.0000
     47  N         31.0020  -31.8680  -15.8500 N.3    95  TYR95      -0.1241
     48  CA        30.9800  -30.4300  -15.8760 C.3    95  TYR95       0.1605
     49  C         31.4350  -29.9540  -14.5050 C.2    95  TYR95       0.2264
     50  O         32.4100  -29.1300  -14.3820 O.2    95  TYR95      -0.2867
     51  CB        29.5740  -29.8830  -16.1410 C.3    95  TYR95       0.0534
     52  CG        29.2930  -29.3530  -17.5300 C.ar   95  TYR95      -0.0201
     53  CD1       29.2660  -27.9390  -17.8090 C.ar   95  TYR95      -0.0009
     54  CD2       29.0100  -30.2440  -18.5810 C.ar   95  TYR95      -0.0009
     55  CE1       28.9340  -27.4480  -19.1160 C.ar   95  TYR95       0.0417
     56  CE2       28.7120  -29.8090  -19.8760 C.ar   95  TYR95       0.0417
     57  CZ        28.6320  -28.4230  -20.1560 C.ar   95  TYR95       0.1957
     58  OH        28.3120  -28.0720  -21.5020 O.3    95  TYR95      -0.2866
     59  N         36.4080  -29.0380  -25.8850 N.3   119  TYR119     -0.1241
     60  CA        35.0180  -29.0150  -25.3250 C.3   119  TYR119      0.1605
     61  C         34.6550  -27.5960  -24.8880 C.2   119  TYR119      0.2264
     62  O         35.4350  -26.9480  -24.1940 O.2   119  TYR119     -0.2867
     63  CB        34.8120  -29.9440  -24.1770 C.3   119  TYR119      0.0534
     64  CG        33.3300  -30.0880  -23.9160 C.ar  119  TYR119     -0.0201
     65  CD1       32.4800  -30.6060  -24.8900 C.ar  119  TYR119     -0.0009
     66  CD2       32.7790  -29.7320  -22.6740 C.ar  119  TYR119     -0.0009
     67  CE1       31.1000  -30.7010  -24.6250 C.ar  119  TYR119      0.0417
     68  CE2       31.4370  -29.8310  -22.4060 C.ar  119  TYR119      0.0417
     69  CZ        30.6140  -30.2900  -23.3540 C.ar  119  TYR119      0.1957
     70  OH        29.3010  -30.3620  -23.0730 O.3   119  TYR119     -0.2866
     71  N         36.7850  -34.8530  -27.8700 N.3   178  ASN178     -0.1240
     72  CA        35.5370  -34.4310  -28.3810 C.3   178  ASN178      0.1653
     73  C         35.8770  -33.0480  -28.9280 C.2   178  ASN178      0.2266
     74  O         36.2910  -32.1740  -28.1580 O.2   178  ASN178     -0.2867
     75  CB        34.4430  -34.4740  -27.2690 C.3   178  ASN178      0.1155
     76  CG        33.1590  -33.7790  -27.6940 C.2   178  ASN178      0.2627
     77  OD1       32.9670  -33.4660  -28.8970 O.2   178  ASN178     -0.2716
     78  ND2       32.2720  -33.4930  -26.7240 N.am  178  ASN178     -0.0877
     79  N         35.3480  -40.3020  -21.9180 N.3   209  TYR209     -0.1241
     80  CA        35.1940  -41.3130  -22.9310 C.3   209  TYR209      0.1605
     81  C         36.2540  -42.4140  -22.7970 C.2   209  TYR209      0.2264
     82  O         36.3640  -43.2390  -23.7300 O.2   209  TYR209     -0.2867
     83  CB        35.2410  -40.6860  -24.3190 C.3   209  TYR209      0.0534
     84  CG        34.1430  -39.6620  -24.4840 C.ar  209  TYR209     -0.0201
     85  CD1       32.8140  -40.0300  -24.3840 C.ar  209  TYR209     -0.0009
     86  CD2       34.4260  -38.3480  -24.6920 C.ar  209  TYR209     -0.0009
     87  CE1       31.8060  -39.1260  -24.5650 C.ar  209  TYR209      0.0417
     88  CE2       33.4160  -37.4060  -24.8270 C.ar  209  TYR209      0.0417
     89  CZ        32.1170  -37.8100  -24.7790 C.ar  209  TYR209      0.1957
     90  OH        31.1000  -36.9080  -24.8950 O.3   209  TYR209     -0.2866
     91  N         23.0950  -40.4290  -19.3770 N.3   244  THR244     -0.1218
     92  CA        23.6320  -39.0330  -19.4030 C.3   244  THR244      0.1862
     93  C         22.8000  -38.2050  -18.4770 C.2   244  THR244      0.2287
     94  O         23.3000  -37.2120  -17.9650 O.2   244  THR244     -0.2866
     95  CB        23.6810  -38.3170  -20.8060 C.3   244  THR244      0.1770
     96  OG1       22.3460  -37.9920  -21.2340 O.3   244  THR244     -0.2211
     97  CG2       24.3860  -39.1000  -21.8190 C.3   244  THR244      0.0375
     98  N         32.2160  -41.0920  -29.4050 N.3   330  TYR330     -0.1227
     99  CA        31.1510  -41.4300  -30.3400 C.3   330  TYR330      0.1736
    100  C         30.7000  -40.2790  -31.1770 C.2   330  TYR330      0.2595
    101  O         29.5470  -40.1790  -31.5500 O.2   330  TYR330     -0.2718
    102  CB        29.9770  -42.1110  -29.6640 C.3   330  TYR330      0.0548
    103  CG        29.5070  -41.4540  -28.3940 C.ar  330  TYR330     -0.0200
    104  CD1       29.2720  -42.2000  -27.2680 C.ar  330  TYR330     -0.0009
    105  CD2       29.3140  -40.0930  -28.3230 C.ar  330  TYR330     -0.0009
    106  CE1       28.8430  -41.6350  -26.1340 C.ar  330  TYR330      0.0417
    107  CE2       28.8820  -39.5070  -27.1480 C.ar  330  TYR330      0.0417
    108  CZ        28.6480  -40.3060  -26.0720 C.ar  330  TYR330      0.1957
    109  OH        28.2230  -39.7660  -24.9020 O.3   330  TYR330     -0.2866
    110  N         31.6500  -39.4300  -31.5150 N.am  331  PHE331     -0.1976
    111  CA        31.3960  -38.4300  -32.5350 C.3   331  PHE331      0.1639
    112  C         32.2310  -38.7090  -33.7860 C.2   331  PHE331      0.2290
    113  O         33.4070  -39.1650  -33.6870 O.2   331  PHE331     -0.2864
    114  CB        31.5370  -36.9990  -32.0070 C.3   331  PHE331      0.0560
    115  CG        30.7040  -36.7300  -30.7800 C.ar  331  PHE331     -0.0200
    116  CD1       29.3170  -36.6240  -30.8700 C.ar  331  PHE331     -0.0042
    117  CD2       31.3210  -36.6090  -29.5100 C.ar  331  PHE331     -0.0042
    118  CE1       28.5360  -36.3630  -29.7330 C.ar  331  PHE331     -0.0003
    119  CE2       30.5660  -36.3650  -28.3720 C.ar  331  PHE331     -0.0003
    120  CZ        29.1730  -36.2580  -28.4850 C.ar  331  PHE331     -0.0000
    121  N         30.1210  -32.1820  -37.1550 N.3   388  ARG388     -0.1245
    122  CA        30.3330  -33.3190  -36.2390 C.3   388  ARG388      0.1563
    123  C         28.9980  -33.9740  -36.1520 C.2   388  ARG388      0.2260
    124  O         27.9840  -33.2720  -36.1640 O.2   388  ARG388     -0.2867
    125  CB        30.8140  -32.8320  -34.8630 C.3   388  ARG388      0.0307
    126  CG        31.0740  -33.9440  -33.8320 C.3   388  ARG388      0.0489
    127  CD        30.9470  -33.4450  -32.4810 C.3   388  ARG388      0.2205
    128  NE        29.5800  -33.4860  -31.9420 N.pl3 388  ARG388     -0.0865
    129  CZ        29.2560  -33.1270  -30.6840 C.cat 388  ARG388      0.5346
    130  NH1       30.1640  -32.6670  -29.8500 N.pl3 388  ARG388      0.1354
    131  NH2       28.0010  -33.1610  -30.2820 N.pl3 388  ARG388      0.1354
@<TRIPOS>BOND
     1   121   122    1
     2   122   123    1
     3   122   125    1
     4   124   123    2
     5   125   126    1
     6   126   127    1
     7   112   113    2
     8   112   111    1
     9   111   114    1
    10   111   110    1
    11   127   128    1
    12   114   115    1
    13   128   129    2
    14   101   100    2
    15   110   100   am
    16   100    99    1
    17    30    29    2
    18    23    24    1
    19   116   115   ar
    20   116   118   ar
    21   115   117   ar
    22   129   131    1
    23   129   130    1
    24    99   102    1
    25    99    98    1
    26    31    29   am
    27    29    28    1
    28    26    25    2
    29   118   120   ar
    30   102   103    1
    31   117   119   ar
    32    24    25    1
    33    24    27    1
    34    25    32   am
    35    73    72    1
    36    73    74    2
    37    77    76    2
    38    21    22   ar
    39    21    19   ar
    40    27    28    1
    41    22    20   ar
    42   120   119   ar
    43   103   105   ar
    44   103   104   ar
    45    72    71    1
    46    72    75    1
    47   105   107   ar
    48    39    38    2
    49    32    33    1
    50    19    16   ar
    51    76    75    1
    52    76    78   am
    53    33    34    1
    54    20    18   ar
    55   104   106   ar
    56    36    34   am
    57    36    37    1
    58   107   108   ar
    59    42    44   ar
    60    42    41   ar
    61    38    37    1
    62     9    10    1
    63    40    37    1
    64    40    41    1
    65    12    11    2
    66    16    18   ar
    67    16    14   ar
    68    44    46   ar
    69    34    35    2
    70    18    17   ar
    71    10    11    1
    72    10    13    1
    73     4     3    2
    74    41    43   ar
    75   106   108   ar
    76   108   109    1
    77     3     2    1
    78    59    60    1
    79    14    13    1
    80    14    15   ar
    81    17    15   ar
    82    46    45   ar
    83    60    61    1
    84    60    63    1
    85    43    45   ar
    86     1     2    1
    87    90    89    1
    88    65    67   ar
    89    65    64   ar
    90    61    62    2
    91    88    89   ar
    92    88    86   ar
    93     2     5    1
    94    89    87   ar
    95    86    84   ar
    96    67    69   ar
    97    87    85   ar
    98    84    85   ar
    99    84    83    1
   100    83    80    1
   101    63    64    1
   102     8     6   am
   103    64    66   ar
   104    82    81    2
   105     5     6    1
   106    69    70    1
   107    69    68   ar
   108     6     7    2
   109    80    81    1
   110    80    79    1
   111    66    68   ar
   112    97    95    1
   113    58    57    1
   114    96    95    1
   115    95    92    1
   116    57    56   ar
   117    57    55   ar
   118    56    54   ar
   119    92    91    1
   120    92    93    1
   121    55    53   ar
   122    54    52   ar
   123    93    94    2
   124    53    52   ar
   125    52    51    1
   126    51    48    1
   127    48    47    1
   128    48    49    1
   129    49    50    2
