@<TRIPOS>MOLECULE
tmp/3e30B01.pdb
 200 199 0 0 0
SMALL
GASTEIGER

@<TRIPOS>ATOM
      1  N        -75.3640   -7.9100    3.1020 N.3    77  TYR77      -0.1241
      2  CA       -75.8420   -9.1450    2.4980 C.3    77  TYR77       0.1605
      3  C        -76.1270   -9.0190    0.9970 C.2    77  TYR77       0.2264
      4  O        -76.8380   -9.8390    0.4170 O.2    77  TYR77      -0.2867
      5  CB       -77.0490   -9.6870    3.2770 C.3    77  TYR77       0.0534
      6  CG       -76.6200  -10.3800    4.5620 C.ar   77  TYR77      -0.0201
      7  CD1      -76.3570   -9.6560    5.7270 C.ar   77  TYR77      -0.0009
      8  CD2      -76.4500  -11.7610    4.6010 C.ar   77  TYR77      -0.0009
      9  CE1      -75.9400  -10.2980    6.8960 C.ar   77  TYR77       0.0417
     10  CE2      -76.0420  -12.4060    5.7580 C.ar   77  TYR77       0.0417
     11  CZ       -75.7850  -11.6780    6.8990 C.ar   77  TYR77       0.1957
     12  OH       -75.3760  -12.3510    8.0310 O.3    77  TYR77      -0.2866
     13  N        -75.3970  -11.9590   -1.1420 N.3    80  LEU80      -0.1245
     14  CA       -76.3290  -13.0820   -1.0260 C.3    80  LEU80       0.1561
     15  C        -77.6640  -12.7950   -1.7230 C.2    80  LEU80       0.2260
     16  O        -78.6450  -13.5170   -1.5330 O.2    80  LEU80      -0.2867
     17  CB       -76.5230  -13.4940    0.4410 C.3    80  LEU80       0.0270
     18  CG       -75.2800  -14.1870    1.0400 C.3    80  LEU80       0.0019
     19  CD1      -75.2370  -14.1470    2.5640 C.3    80  LEU80       0.0001
     20  CD2      -75.1340  -15.6320    0.5270 C.3    80  LEU80       0.0001
     21  N        -78.4120  -13.5140   -4.5550 N.3    82  ALA82      -0.1231
     22  CA       -78.7860  -14.6200   -5.4270 C.3    82  ALA82       0.1694
     23  C        -78.9470  -15.9170   -4.6390 C.2    82  ALA82       0.2592
     24  O        -78.9200  -17.0130   -5.2090 O.2    82  ALA82      -0.2718
     25  CB       -77.7870  -14.7850   -6.5710 C.3    82  ALA82       0.0304
     26  N        -79.1360  -15.7740   -3.3300 N.am   83  SER83      -0.1952
     27  CA       -79.2160  -16.9150   -2.4370 C.3    83  SER83       0.1924
     28  C        -80.2930  -16.7330   -1.3810 C.2    83  SER83       0.2314
     29  O        -80.0780  -17.0380   -0.2220 O.2    83  SER83      -0.2863
     30  CB       -77.8680  -17.1050   -1.7390 C.3    83  SER83       0.2116
     31  OG       -76.8180  -17.1040   -2.6900 O.3    83  SER83      -0.2180
     32  N        -81.7700  -19.6820    0.6310 N.3    86  TRP86      -0.1241
     33  CA       -80.8200  -20.1620    1.6230 C.3    86  TRP86       0.1605
     34  C        -81.0200  -19.3880    2.9120 C.2    86  TRP86       0.2264
     35  O        -80.9680  -19.9590    3.9980 O.2    86  TRP86      -0.2867
     36  CB       -79.3770  -20.0050    1.1510 C.3    86  TRP86       0.0550
     37  CG       -78.8510  -21.1200    0.2980 C.ar   86  TRP86       0.0003
     38  CD1      -78.5040  -21.0430   -1.0200 C.ar   86  TRP86       0.0946
     39  CD2      -78.5810  -22.4730    0.7030 C.ar   86  TRP86       0.0152
     40  NE1      -78.0410  -22.2580   -1.4610 N.ar   86  TRP86      -0.2442
     41  CE2      -78.0770  -23.1540   -0.4230 C.ar   86  TRP86       0.0810
     42  CE3      -78.7180  -23.1760    1.9060 C.ar   86  TRP86       0.0012
     43  CZ2      -77.7090  -24.5080   -0.3830 C.ar   86  TRP86       0.0191
     44  CZ3      -78.3430  -24.5360    1.9380 C.ar   86  TRP86       0.0001
     45  CH2      -77.8470  -25.1730    0.8050 C.ar   86  TRP86       0.0015
     46  N        -81.7400  -21.1060    6.3840 N.3    90  TRP90      -0.1241
     47  CA       -80.8170  -20.9770    7.5190 C.3    90  TRP90       0.1605
     48  C        -81.5220  -20.4290    8.7530 C.2    90  TRP90       0.2264
     49  O        -81.3590  -20.9580    9.8590 O.2    90  TRP90      -0.2867
     50  CB       -79.5940  -20.1140    7.1850 C.3    90  TRP90       0.0550
     51  CG       -78.6880  -20.7120    6.1480 C.ar   90  TRP90       0.0003
     52  CD1      -78.3900  -22.0330    5.9860 C.ar   90  TRP90       0.0946
     53  CD2      -77.9540  -20.0060    5.1380 C.ar   90  TRP90       0.0152
     54  NE1      -77.5260  -22.1940    4.9300 N.ar   90  TRP90      -0.2442
     55  CE2      -77.2410  -20.9670    4.3930 C.ar   90  TRP90       0.0810
     56  CE3      -77.8380  -18.6530    4.7860 C.ar   90  TRP90       0.0012
     57  CZ2      -76.4220  -20.6250    3.3150 C.ar   90  TRP90       0.0191
     58  CZ3      -77.0190  -18.3130    3.7180 C.ar   90  TRP90       0.0001
     59  CH2      -76.3200  -19.2990    2.9940 C.ar   90  TRP90       0.0015
     60  N        -81.9210  -23.1360   -9.9870 N.3   133  HIS133     -0.1241
     61  CA       -80.6050  -23.6480   -9.6240 C.3   133  HIS133      0.1621
     62  C        -80.8140  -24.6640   -8.4940 C.2   133  HIS133      0.2264
     63  O        -81.6340  -24.4340   -7.5970 O.2   133  HIS133     -0.2867
     64  CB       -79.7380  -22.4720   -9.1500 C.3   133  HIS133      0.0745
     65  CG       -78.3080  -22.8230   -8.8640 C.ar  133  HIS133      0.0817
     66  ND1      -77.9320  -23.6130   -7.7960 N.ar  133  HIS133     -0.2268
     67  CD2      -77.1590  -22.4520   -9.4820 C.ar  133  HIS133      0.1154
     68  CE1      -76.6160  -23.7360   -7.7850 C.ar  133  HIS133      0.1986
     69  NE2      -76.1230  -23.0420   -8.7970 N.ar  133  HIS133     -0.2212
     70  N        -79.1490  -25.6730   -5.8280 N.3   135  ALA135     -0.1231
     71  CA       -78.8620  -25.2970   -4.4520 C.3   135  ALA135      0.1679
     72  C        -80.0020  -24.4830   -3.7910 C.2   135  ALA135      0.2434
     73  O        -80.4900  -24.8570   -2.7130 O.2   135  ALA135     -0.2733
     74  CB       -77.5210  -24.5890   -4.3610 C.3   135  ALA135      0.0304
     75  N        -80.4380  -23.3740   -4.4260 N.am  136  PRO136     -0.2729
     76  CA       -81.6160  -22.6960   -3.8710 C.3   136  PRO136      0.1401
     77  C        -82.8830  -23.5500   -3.9500 C.2   136  PRO136      0.2269
     78  O        -83.8150  -23.3360   -3.1720 O.2   136  PRO136     -0.2865
     79  CB       -81.7580  -21.4270   -4.7340 C.3   136  PRO136      0.0296
     80  CG       -80.9020  -21.6480   -5.9280 C.3   136  PRO136      0.0237
     81  CD       -79.7960  -22.5780   -5.4810 C.3   136  PRO136      0.0939
     82  N        -71.9910  -25.9730  -13.5030 N.3   182  GLU182     -0.1245
     83  CA       -70.9750  -26.9450  -13.0870 C.3   182  GLU182      0.1567
     84  C        -71.5240  -28.2400  -12.4460 C.2   182  GLU182      0.2260
     85  O        -72.5870  -28.2470  -11.8220 O.2   182  GLU182     -0.2867
     86  CB       -69.9090  -26.2770  -12.1860 C.3   182  GLU182      0.0388
     87  CG       -70.3890  -25.8120  -10.8000 C.3   182  GLU182      0.1160
     88  CD       -71.2280  -24.5250  -10.8370 C.2   182  GLU182      0.3649
     89  OE1      -71.0740  -23.7080  -11.7780 O.co2 182  GLU182     -0.2457
     90  OE2      -72.0370  -24.3220   -9.9020 O.co2 182  GLU182     -0.2457
     91  N        -72.2830  -32.0140   -4.7340 N.3   186  ARG186     -0.1245
     92  CA       -73.3600  -31.2950   -4.0710 C.3   186  ARG186      0.1563
     93  C        -74.6720  -31.4860   -4.8220 C.2   186  ARG186      0.2260
     94  O        -75.7390  -31.5520   -4.2190 O.2   186  ARG186     -0.2867
     95  CB       -73.0480  -29.7940   -3.9800 C.3   186  ARG186      0.0307
     96  CG       -71.9610  -29.3860   -2.9900 C.3   186  ARG186      0.0489
     97  CD       -71.6090  -27.9060   -3.1900 C.3   186  ARG186      0.2205
     98  NE       -71.2490  -27.6390   -4.5820 N.pl3 186  ARG186     -0.0865
     99  CZ       -71.4740  -26.4980   -5.2290 C.cat 186  ARG186      0.5346
    100  NH1      -72.0670  -25.4740   -4.6190 N.pl3 186  ARG186      0.1354
    101  NH2      -71.1110  -26.3800   -6.4980 N.pl3 186  ARG186      0.1354
    102  N        -63.0170  -33.5250    1.2600 N.3   232  HIS232     -0.1241
    103  CA       -63.5100  -32.3620    2.0040 C.3   232  HIS232      0.1621
    104  C        -64.8050  -32.6570    2.7560 C.2   232  HIS232      0.2264
    105  O        -65.7060  -33.3220    2.2370 O.2   232  HIS232     -0.2867
    106  CB       -63.7370  -31.1670    1.0630 C.3   232  HIS232      0.0745
    107  CG       -63.7950  -29.8450    1.7700 C.ar  232  HIS232      0.0817
    108  ND1      -64.9180  -29.4050    2.4420 N.ar  232  HIS232     -0.2268
    109  CD2      -62.8640  -28.8700    1.9160 C.ar  232  HIS232      0.1154
    110  CE1      -64.6740  -28.2210    2.9740 C.ar  232  HIS232      0.1986
    111  NE2      -63.4350  -27.8750    2.6730 N.ar  232  HIS232     -0.2212
    112  N        -63.2260  -24.7930   12.0800 N.3   281  ASP281     -0.1239
    113  CA       -64.3050  -23.9090   11.6660 C.3   281  ASP281      0.1674
    114  C        -65.6610  -24.4120   12.1920 C.2   281  ASP281      0.2266
    115  O        -66.0550  -25.5630   11.9700 O.2   281  ASP281     -0.2867
    116  CB       -64.3280  -23.8020   10.1400 C.3   281  ASP281      0.1410
    117  CG       -65.4620  -22.9140    9.6170 C.2   281  ASP281      0.3668
    118  OD1      -66.4450  -22.6310   10.3450 O.co2 281  ASP281     -0.2456
    119  OD2      -65.3750  -22.5020    8.4440 O.co2 281  ASP281     -0.2456
    120  N        -68.6910  -24.2500   11.2800 N.3   283  CYS283     -0.1221
    121  CA       -69.7280  -24.8310   10.4120 C.3   283  CYS283      0.1808
    122  C        -69.5350  -26.3400   10.1880 C.2   283  CYS283      0.2601
    123  O        -70.4860  -27.0500    9.8760 O.2   283  CYS283     -0.2717
    124  CB       -69.8630  -24.0840    9.0760 C.3   283  CYS283      0.0970
    125  SG       -68.3790  -24.0750    8.0310 S.3   283  CYS283     -0.0800
    126  N        -68.3080  -26.8230   10.3560 N.am  284  TYR284     -0.1976
    127  CA       -68.0250  -28.2430   10.1740 C.3   284  TYR284      0.1639
    128  C        -68.5360  -29.0710   11.3450 C.2   284  TYR284      0.2290
    129  O        -68.5280  -30.3000   11.2920 O.2   284  TYR284     -0.2864
    130  CB       -66.5330  -28.4900    9.9680 C.3   284  TYR284      0.0560
    131  CG       -65.9920  -27.8340    8.7180 C.ar  284  TYR284     -0.0198
    132  CD1      -64.8660  -27.0230    8.7660 C.ar  284  TYR284     -0.0009
    133  CD2      -66.6210  -28.0160    7.4880 C.ar  284  TYR284     -0.0009
    134  CE1      -64.3810  -26.4140    7.6220 C.ar  284  TYR284      0.0417
    135  CE2      -66.1420  -27.4090    6.3400 C.ar  284  TYR284      0.0417
    136  CZ       -65.0250  -26.6100    6.4150 C.ar  284  TYR284      0.1957
    137  OH       -64.5390  -26.0090    5.2810 O.3   284  TYR284     -0.2866
    138  N        -71.2700  -30.4100    8.9320 N.3   287  TRP287     -0.1241
    139  CA       -70.8400  -31.1940    7.7780 C.3   287  TRP287      0.1605
    140  C        -69.9410  -32.3850    8.1680 C.2   287  TRP287      0.2264
    141  O        -70.0890  -33.4750    7.6220 O.2   287  TRP287     -0.2867
    142  CB       -70.1410  -30.3280    6.7240 C.3   287  TRP287      0.0550
    143  CG       -70.8700  -29.0720    6.2990 C.ar  287  TRP287      0.0003
    144  CD1      -70.4780  -27.7850    6.5340 C.ar  287  TRP287      0.0946
    145  CD2      -72.0900  -28.9820    5.5410 C.ar  287  TRP287      0.0152
    146  NE1      -71.3740  -26.8990    5.9830 N.ar  287  TRP287     -0.2442
    147  CE2      -72.3740  -27.6030    5.3680 C.ar  287  TRP287      0.0810
    148  CE3      -72.9700  -29.9240    5.0010 C.ar  287  TRP287      0.0012
    149  CZ2      -73.5040  -27.1460    4.6790 C.ar  287  TRP287      0.0191
    150  CZ3      -74.0930  -29.4710    4.3130 C.ar  287  TRP287      0.0001
    151  CH2      -74.3490  -28.0920    4.1590 C.ar  287  TRP287      0.0015
    152  N        -67.6010  -18.6760   12.7140 N.3   336  ASP336     -0.1239
    153  CA       -66.5410  -19.5950   12.2880 C.3   336  ASP336      0.1674
    154  C        -65.5560  -19.8620   13.4290 C.2   336  ASP336      0.2266
    155  O        -65.4580  -20.9830   13.9060 O.2   336  ASP336     -0.2867
    156  CB       -65.8910  -19.0050   11.0120 C.3   336  ASP336      0.1410
    157  CG       -64.5360  -19.6140   10.6420 C.2   336  ASP336      0.3668
    158  OD1      -63.9580  -20.4620   11.3530 O.co2 336  ASP336     -0.2456
    159  OD2      -64.0190  -19.1910    9.5860 O.co2 336  ASP336     -0.2456
    160  N        -72.8150  -14.4300   11.2860 N.3   343  ASP343     -0.1225
    161  CA       -73.5770  -14.4980   10.0510 C.3   343  ASP343      0.1805
    162  C        -74.5820  -15.6400   10.1500 C.2   343  ASP343      0.2598
    163  O        -74.4650  -16.5060   11.0240 O.2   343  ASP343     -0.2718
    164  CB       -72.6430  -14.6560    8.8460 C.3   343  ASP343      0.1424
    165  CG       -71.8900  -15.9780    8.8540 C.2   343  ASP343      0.3668
    166  OD1      -72.5450  -17.0340    8.7600 O.co2 343  ASP343     -0.2456
    167  OD2      -70.6430  -15.9640    8.9380 O.co2 343  ASP343     -0.2456
    168  N        -75.5810  -15.6380    9.2780 N.am  344  PHE344     -0.1962
    169  CA       -76.6750  -16.5890    9.4160 C.3   344  PHE344      0.1771
    170  C        -76.3010  -18.0340    9.0670 C.2   344  PHE344      0.2620
    171  O        -76.8770  -18.9740    9.6120 O.2   344  PHE344     -0.2715
    172  CB       -77.8990  -16.1130    8.6350 C.3   344  PHE344      0.0574
    173  CG       -78.4860  -14.8370    9.1710 C.ar  344  PHE344     -0.0200
    174  CD1      -78.3230  -13.6450    8.4920 C.ar  344  PHE344     -0.0042
    175  CD2      -79.1750  -14.8320   10.3750 C.ar  344  PHE344     -0.0042
    176  CE1      -78.8550  -12.4730    8.9870 C.ar  344  PHE344     -0.0003
    177  CE2      -79.7070  -13.6510   10.8860 C.ar  344  PHE344     -0.0003
    178  CZ       -79.5410  -12.4710   10.1910 C.ar  344  PHE344     -0.0000
    179  N        -75.3300  -18.2010    8.1700 N.am  345  TYR345     -0.1960
    180  CA       -74.8080  -19.5140    7.8170 C.3   345  TYR345      0.1771
    181  C        -74.2020  -20.2130    9.0370 C.2   345  TYR345      0.2619
    182  O        -74.5210  -21.3680    9.3230 O.2   345  TYR345     -0.2715
    183  CB       -73.7700  -19.3620    6.7050 C.3   345  TYR345      0.0574
    184  CG       -73.1030  -20.6400    6.2400 C.ar  345  TYR345     -0.0198
    185  CD1      -73.6740  -21.4270    5.2380 C.ar  345  TYR345     -0.0009
    186  CD2      -71.8900  -21.0500    6.7780 C.ar  345  TYR345     -0.0009
    187  CE1      -73.0550  -22.5920    4.8010 C.ar  345  TYR345      0.0417
    188  CE2      -71.2690  -22.2140    6.3400 C.ar  345  TYR345      0.0417
    189  CZ       -71.8600  -22.9740    5.3530 C.ar  345  TYR345      0.1957
    190  OH       -71.2510  -24.1270    4.9230 O.3   345  TYR345     -0.2866
    191  N        -73.3350  -19.5290    9.7730 N.am  346  HIS346     -0.1973
    192  CA       -72.7290  -20.1830   10.9280 C.3   346  HIS346      0.1656
    193  C        -73.6990  -20.3500   12.0860 C.2   346  HIS346      0.2291
    194  O        -73.5480  -21.2570   12.9070 O.2   346  HIS346     -0.2864
    195  CB       -71.4590  -19.4790   11.3730 C.3   346  HIS346      0.0771
    196  CG       -70.3100  -19.7020   10.4500 C.ar  346  HIS346      0.0820
    197  ND1      -70.0800  -18.9070    9.3480 N.ar  346  HIS346     -0.2267
    198  CD2      -69.3360  -20.6420   10.4480 C.ar  346  HIS346      0.1154
    199  CE1      -69.0030  -19.3390    8.7160 C.ar  346  HIS346      0.1986
    200  NE2      -68.5350  -20.3930    9.3600 N.ar  346  HIS346     -0.2212
@<TRIPOS>BOND
     1    82    83    1
     2    83    84    1
     3    83    86    1
     4    84    85    2
     5    86    87    1
     6    89    88   ar
     7    88    87    1
     8    88    90   ar
     9    60    61    1
    10    61    64    1
    11    61    62    1
    12    67    65   ar
    13    67    69   ar
    14    64    65    1
    15    65    66   ar
    16    69    68   ar
    17    62    63    2
    18    66    68   ar
    19    25    22    1
    20   101    99    1
    21    80    81    1
    22    80    79    1
    23    70    71    1
    24    81    75    1
    25    22    23    1
    26    22    21    1
    27    99   100    1
    28    99    98    2
    29    24    23    2
    30    93    94    2
    31    93    92    1
    32    91    92    1
    33    79    76    1
    34    23    26   am
    35    98    97    1
    36    71    74    1
    37    71    72    1
    38    75    76    1
    39    75    72   am
    40    92    95    1
    41    95    96    1
    42    77    76    1
    43    77    78    2
    44    72    73    2
    45    26    27    1
    46    97    96    1
    47    31    30    1
    48    27    30    1
    49    27    28    1
    50    15    16    2
    51    15    14    1
    52    40    38   ar
    53    40    41   ar
    54    28    29    2
    55    13    14    1
    56    14    17    1
    57    38    37   ar
    58    41    43   ar
    59    41    39   ar
    60    43    45   ar
    61    37    39   ar
    62    37    36    1
    63     4     3    2
    64    17    18    1
    65    20    18    1
    66    32    33    1
    67    39    42   ar
    68    45    44   ar
    69     3     2    1
    70    18    19    1
    71   106   107    1
    72   106   103    1
    73    36    33    1
    74   102   103    1
    75    33    34    1
    76   107   109   ar
    77   107   108   ar
    78    42    44   ar
    79   109   111   ar
    80   103   104    1
    81   105   104    2
    82   108   110   ar
    83     2     1    1
    84     2     5    1
    85   111   110   ar
    86    34    35    2
    87    59    57   ar
    88    59    58   ar
    89     5     6    1
    90    57    55   ar
    91    58    56   ar
    92   151   150   ar
    93   151   149   ar
    94   150   148   ar
    95    55    54   ar
    96    55    53   ar
    97     6     8   ar
    98     6     7   ar
    99     8    10   ar
   100   149   147   ar
   101    56    53   ar
   102   187   185   ar
   103   187   189   ar
   104   190   189    1
   105    54    52   ar
   106   148   145   ar
   107    53    51   ar
   108   185   184   ar
   109   137   136    1
   110   189   188   ar
   111   147   145   ar
   112   147   146   ar
   113   145   143   ar
   114     7     9   ar
   115    10    11   ar
   116   146   144   ar
   117    52    51   ar
   118    51    50    1
   119   184   183    1
   120   184   186   ar
   121   143   144   ar
   122   143   142    1
   123   135   136   ar
   124   135   133   ar
   125   188   186   ar
   126    46    47    1
   127   136   134   ar
   128   183   180    1
   129   142   139    1
   130     9    11   ar
   131    11    12    1
   132    50    47    1
   133   133   131   ar
   134    47    48    1
   135   141   140    2
   136   134   132   ar
   137   139   140    1
   138   139   138    1
   139   180   179    1
   140   180   181    1
   141   125   124    1
   142   179   170   am
   143   119   117   ar
   144   174   176   ar
   145   174   173   ar
   146   172   173    1
   147   172   169    1
   148   199   197   ar
   149   199   200   ar
   150   131   132   ar
   151   131   130    1
   152    48    49    2
   153   166   165   ar
   154   164   165    1
   155   164   161    1
   156   165   167   ar
   157   176   178   ar
   158   181   182    2
   159   181   191   am
   160   170   169    1
   161   170   171    2
   162   124   121    1
   163   173   175   ar
   164   168   169    1
   165   168   162   am
   166   197   196   ar
   167   200   198   ar
   168   159   157   ar
   169   117   116    1
   170   117   118   ar
   171   191   192    1
   172   123   122    2
   173   130   127    1
   174   161   162    1
   175   161   160    1
   176   116   113    1
   177   162   163    2
   178   127   126    1
   179   127   128    1
   180   122   126   am
   181   122   121    1
   182   178   177   ar
   183   175   177   ar
   184   121   120    1
   185   198   196   ar
   186   196   195    1
   187   157   156    1
   188   157   158   ar
   189   192   195    1
   190   192   193    1
   191   156   153    1
   192   129   128    2
   193   113   112    1
   194   113   114    1
   195   115   114    2
   196   193   194    2
   197   153   152    1
   198   153   154    1
   199   154   155    2
