@<TRIPOS>MOLECULE
tmp/3e32B01.pdb
 169 168 0 0 0
SMALL
GASTEIGER

@<TRIPOS>ATOM
      1  N         44.6920  -61.2440    4.0850 N.3    77  TYR77      -0.1241
      2  CA        45.9980  -61.0040    3.4900 C.3    77  TYR77       0.1605
      3  C         46.0310  -61.3240    1.9960 C.2    77  TYR77       0.2264
      4  O         47.1000  -61.4710    1.4040 O.2    77  TYR77      -0.2867
      5  CB        47.0830  -61.7660    4.2600 C.3    77  TYR77       0.0534
      6  CG        47.4530  -61.0820    5.5590 C.ar   77  TYR77      -0.0201
      7  CD1       46.6850  -61.2500    6.7060 C.ar   77  TYR77      -0.0009
      8  CD2       48.5610  -60.2460    5.6310 C.ar   77  TYR77      -0.0009
      9  CE1       47.0190  -60.6100    7.8910 C.ar   77  TYR77       0.0417
     10  CE2       48.9030  -59.6040    6.8070 C.ar   77  TYR77       0.0417
     11  CZ        48.1320  -59.7860    7.9330 C.ar   77  TYR77       0.1957
     12  OH        48.4790  -59.1420    9.1010 O.3    77  TYR77      -0.2866
     13  N         48.0470  -59.1410   -0.1380 N.3    80  LEU80      -0.1245
     14  CA        49.4950  -59.3180   -0.0540 C.3    80  LEU80       0.1561
     15  C         49.9520  -60.6250   -0.7060 C.2    80  LEU80       0.2260
     16  O         51.0440  -61.1250   -0.4310 O.2    80  LEU80      -0.2867
     17  CB        49.9690  -59.2320    1.4020 C.3    80  LEU80       0.0270
     18  CG        49.9810  -57.8190    2.0030 C.3    80  LEU80       0.0019
     19  CD1       50.1200  -57.8530    3.5170 C.3    80  LEU80       0.0001
     20  CD2       51.0810  -56.9600    1.3740 C.3    80  LEU80       0.0001
     21  N         53.3640  -60.4850   -2.2090 N.3    83  SER83      -0.1217
     22  CA        54.4520  -60.0770   -1.3230 C.3    83  SER83       0.1889
     23  C         54.7210  -61.1210   -0.2490 C.2    83  SER83       0.2288
     24  O         54.9400  -60.7830    0.9060 O.2    83  SER83      -0.2866
     25  CB        54.1260  -58.7420   -0.6450 C.3    83  SER83       0.2089
     26  OG        53.8490  -57.7340   -1.5980 O.3    83  SER83      -0.2183
     27  N         57.9610  -61.0960    1.6920 N.3    86  TRP86      -0.1241
     28  CA        57.9520  -60.0370    2.6980 C.3    86  TRP86       0.1605
     29  C         57.3930  -60.5940    3.9960 C.2    86  TRP86       0.2264
     30  O         57.9200  -60.3360    5.0760 O.2    86  TRP86      -0.2867
     31  CB        57.1050  -58.8430    2.2540 C.3    86  TRP86       0.0550
     32  CG        57.8090  -57.8270    1.3970 C.ar   86  TRP86       0.0003
     33  CD1       57.6030  -57.5950    0.0700 C.ar   86  TRP86       0.0946
     34  CD2       58.8110  -56.8880    1.8160 C.ar   86  TRP86       0.0152
     35  NE1       58.4170  -56.5780   -0.3660 N.ar   86  TRP86      -0.2442
     36  CE2       59.1690  -56.1280    0.6860 C.ar   86  TRP86       0.0810
     37  CE3       59.4440  -56.6220    3.0350 C.ar   86  TRP86       0.0012
     38  CZ2       60.1310  -55.1170    0.7380 C.ar   86  TRP86       0.0191
     39  CZ3       60.4010  -55.6150    3.0830 C.ar   86  TRP86       0.0001
     40  CH2       60.7330  -54.8770    1.9420 C.ar   86  TRP86       0.0015
     41  N         59.2120  -60.3580    7.5000 N.3    90  TRP90      -0.1241
     42  CA        58.6560  -59.6460    8.6530 C.3    90  TRP90       0.1605
     43  C         58.5110  -60.5540    9.8710 C.2    90  TRP90       0.2264
     44  O         58.8340  -60.1580   10.9930 O.2    90  TRP90      -0.2867
     45  CB        57.3060  -58.9920    8.3250 C.3    90  TRP90       0.0550
     46  CG        57.3770  -57.9120    7.2820 C.ar   90  TRP90       0.0003
     47  CD1       58.3810  -57.0000    7.1080 C.ar   90  TRP90       0.0946
     48  CD2       56.3910  -57.6170    6.2830 C.ar   90  TRP90       0.0152
     49  NE1       58.0870  -56.1690    6.0550 N.ar   90  TRP90      -0.2442
     50  CE2       56.8710  -56.5260    5.5310 C.ar   90  TRP90       0.0810
     51  CE3       55.1530  -58.1750    5.9480 C.ar   90  TRP90       0.0012
     52  CZ2       56.1570  -55.9810    4.4630 C.ar   90  TRP90       0.0191
     53  CZ3       54.4430  -57.6310    4.8900 C.ar   90  TRP90       0.0001
     54  CH2       54.9480  -56.5460    4.1600 C.ar   90  TRP90       0.0015
     55  N         61.6920  -55.7900   -4.7440 N.3   135  ALA135     -0.1245
     56  CA        61.2410  -55.7290   -3.3590 C.3   135  ALA135      0.1562
     57  C         61.1620  -57.1200   -2.7100 C.2   135  ALA135      0.2260
     58  O         61.7980  -57.3600   -1.6820 O.2   135  ALA135     -0.2867
     59  CB        59.9200  -54.9690   -3.2440 C.3   135  ALA135      0.0290
     60  N         63.8640  -46.7510   -3.6750 N.3   186  ARG186     -0.1245
     61  CA        63.7750  -48.0520   -3.0260 C.3   186  ARG186      0.1563
     62  C         64.5480  -49.1070   -3.8090 C.2   186  ARG186      0.2260
     63  O         65.1850  -49.9800   -3.2230 O.2   186  ARG186     -0.2867
     64  CB        62.3180  -48.4960   -2.8780 C.3   186  ARG186      0.0307
     65  CG        61.4840  -47.6630   -1.9210 C.3   186  ARG186      0.0489
     66  CD        60.0150  -48.0170   -2.0760 C.3   186  ARG186      0.2205
     67  NE        59.6350  -48.0530   -3.4840 N.pl3 186  ARG186     -0.0865
     68  CZ        58.5630  -48.6780   -3.9550 C.cat 186  ARG186      0.5346
     69  NH1       57.7570  -49.3260   -3.1250 N.pl3 186  ARG186      0.1354
     70  NH2       58.3010  -48.6620   -5.2550 N.pl3 186  ARG186      0.1354
     71  N         60.6530  -37.8230    2.2500 N.3   232  HIS232     -0.1241
     72  CA        59.9000  -38.8330    3.0010 C.3   232  HIS232      0.1621
     73  C         60.8110  -39.8230    3.7200 C.2   232  HIS232      0.2264
     74  O         61.8060  -40.2860    3.1620 O.2   232  HIS232     -0.2867
     75  CB        58.9510  -39.6000    2.0730 C.3   232  HIS232      0.0745
     76  CG        57.8540  -40.3250    2.7930 C.ar  232  HIS232      0.0817
     77  ND1       58.0540  -41.5220    3.4470 N.ar  232  HIS232     -0.2268
     78  CD2       56.5460  -40.0180    2.9630 C.ar  232  HIS232      0.1154
     79  CE1       56.9170  -41.9210    3.9890 C.ar  232  HIS232      0.1986
     80  NE2       55.9870  -41.0260    3.7120 N.ar  232  HIS232     -0.2212
     81  N         53.2000  -42.4290   13.0610 N.3   281  ASP281     -0.1239
     82  CA        52.9750  -43.8190   12.6690 C.3   281  ASP281      0.1674
     83  C         54.0950  -44.7060   13.2150 C.2   281  ASP281      0.2266
     84  O         55.2770  -44.4220   13.0250 O.2   281  ASP281     -0.2867
     85  CB        52.8980  -43.9370   11.1440 C.3   281  ASP281      0.1410
     86  CG        52.6870  -45.3750   10.6610 C.2   281  ASP281      0.3668
     87  OD1       52.9070  -46.3380   11.4290 O.co2 281  ASP281     -0.2456
     88  OD2       52.3040  -45.5490    9.4870 O.co2 281  ASP281     -0.2456
     89  N         55.5100  -47.4340   12.2920 N.3   283  CYS283     -0.1221
     90  CA        56.5360  -48.0090   11.4150 C.3   283  CYS283      0.1808
     91  C         57.7240  -47.0670   11.2090 C.2   283  CYS283      0.2601
     92  O         58.8330  -47.5120   10.9290 O.2   283  CYS283     -0.2717
     93  CB        55.9590  -48.4810   10.0710 C.3   283  CYS283      0.0970
     94  SG        55.2370  -47.2000    9.0200 S.3   283  CYS283     -0.0800
     95  N         57.4950  -45.7680   11.3600 N.am  284  TYR284     -0.1976
     96  CA        58.5750  -44.8010   11.2100 C.3   284  TYR284      0.1639
     97  C         59.5470  -44.8650   12.3840 C.2   284  TYR284      0.2290
     98  O         60.6140  -44.2530   12.3500 O.2   284  TYR284     -0.2864
     99  CB        58.0250  -43.3860   11.0320 C.3   284  TYR284      0.0560
    100  CG        57.1990  -43.2240    9.7770 C.ar  284  TYR284     -0.0198
    101  CD1       55.9350  -42.6510    9.8190 C.ar  284  TYR284     -0.0009
    102  CD2       57.6780  -43.6650    8.5510 C.ar  284  TYR284     -0.0009
    103  CE1       55.1760  -42.5110    8.6700 C.ar  284  TYR284      0.0417
    104  CE2       56.9310  -43.5290    7.4000 C.ar  284  TYR284      0.0417
    105  CZ        55.6800  -42.9520    7.4630 C.ar  284  TYR284      0.1957
    106  OH        54.9380  -42.8190    6.3160 O.3   284  TYR284     -0.2866
    107  N         62.0310  -46.5900   10.0050 N.3   287  TRP287     -0.1241
    108  CA        62.4410  -45.8410    8.8180 C.3   287  TRP287      0.1605
    109  C         63.0790  -44.4940    9.1790 C.2   287  TRP287      0.2264
    110  O         64.1060  -44.1220    8.6200 O.2   287  TRP287     -0.2867
    111  CB        61.2750  -45.6290    7.8450 C.3   287  TRP287      0.0550
    112  CG        60.5440  -46.8770    7.4030 C.ar  287  TRP287      0.0003
    113  CD1       59.2330  -47.1760    7.6360 C.ar  287  TRP287      0.0946
    114  CD2       61.0700  -47.9720    6.6300 C.ar  287  TRP287      0.0152
    115  NE1       58.9100  -48.3870    7.0700 N.ar  287  TRP287     -0.2442
    116  CE2       60.0180  -48.8970    6.4460 C.ar  287  TRP287      0.0810
    117  CE3       62.3250  -48.2610    6.0840 C.ar  287  TRP287      0.0012
    118  CZ2       60.1820  -50.0920    5.7420 C.ar  287  TRP287      0.0191
    119  CZ3       62.4890  -49.4490    5.3830 C.ar  287  TRP287      0.0001
    120  CH2       61.4210  -50.3500    5.2180 C.ar  287  TRP287      0.0015
    121  N         50.0630  -49.3280   13.7410 N.3   336  ASP336     -0.1239
    122  CA        50.3160  -47.9560   13.3030 C.3   336  ASP336      0.1674
    123  C         50.0910  -46.9480   14.4330 C.2   336  ASP336      0.2266
    124  O         51.0360  -46.3290   14.9140 O.2   336  ASP336     -0.2867
    125  CB        49.4110  -47.6660   12.0920 C.3   336  ASP336      0.1410
    126  CG        49.4350  -46.2110   11.6370 C.2   336  ASP336      0.3668
    127  OD1       49.8890  -45.3180   12.3820 O.co2 336  ASP336     -0.2456
    128  OD2       48.9640  -45.9600   10.5090 O.co2 336  ASP336     -0.2456
    129  N         49.0770  -55.8660   12.2650 N.3   343  ASP343     -0.1225
    130  CA        49.5170  -56.5400   11.0550 C.3   343  ASP343      0.1805
    131  C         51.0020  -56.8680   11.1770 C.2   343  ASP343      0.2598
    132  O         51.6960  -56.3340   12.0440 O.2   343  ASP343     -0.2718
    133  CB        49.2260  -55.6810    9.8210 C.3   343  ASP343      0.1424
    134  CG        49.9840  -54.3650    9.8290 C.2   343  ASP343      0.3668
    135  OD1       51.2280  -54.3990    9.7910 O.co2 343  ASP343     -0.2456
    136  OD2       49.3390  -53.2980    9.8600 O.co2 343  ASP343     -0.2456
    137  N         51.4910  -57.7580   10.3260 N.am  344  PHE344     -0.1962
    138  CA        52.8580  -58.2450   10.4710 C.3   344  PHE344      0.1771
    139  C         53.9190  -57.2180   10.0710 C.2   344  PHE344      0.2620
    140  O         55.0500  -57.2700   10.5500 O.2   344  PHE344     -0.2715
    141  CB        53.0350  -59.5660    9.7210 C.3   344  PHE344      0.0574
    142  CG        52.1670  -60.6720   10.2510 C.ar  344  PHE344     -0.0200
    143  CD1       51.0360  -61.0750    9.5640 C.ar  344  PHE344     -0.0042
    144  CD2       52.4700  -61.2900   11.4560 C.ar  344  PHE344     -0.0042
    145  CE1       50.2320  -62.0840   10.0590 C.ar  344  PHE344     -0.0003
    146  CE2       51.6680  -62.3020   11.9570 C.ar  344  PHE344     -0.0003
    147  CZ        50.5460  -62.6980   11.2580 C.ar  344  PHE344     -0.0000
    148  N         53.5450  -56.2830    9.2040 N.am  345  TYR345     -0.1960
    149  CA        54.4310  -55.2010    8.8020 C.3   345  TYR345      0.1771
    150  C         54.7510  -54.2960    9.9930 C.2   345  TYR345      0.2619
    151  O         55.9140  -54.0200   10.2770 O.2   345  TYR345     -0.2715
    152  CB        53.7830  -54.4070    7.6630 C.3   345  TYR345      0.0574
    153  CG        54.4750  -53.1200    7.2670 C.ar  345  TYR345     -0.0198
    154  CD1       55.3890  -53.0910    6.2200 C.ar  345  TYR345     -0.0009
    155  CD2       54.1880  -51.9260    7.9180 C.ar  345  TYR345     -0.0009
    156  CE1       56.0140  -51.9100    5.8480 C.ar  345  TYR345      0.0417
    157  CE2       54.8060  -50.7460    7.5540 C.ar  345  TYR345      0.0417
    158  CZ        55.7150  -50.7440    6.5190 C.ar  345  TYR345      0.1957
    159  OH        56.3260  -49.5670    6.1570 O.3   345  TYR345     -0.2866
    160  N         53.7180  -53.8410   10.6950 N.am  346  HIS346     -0.1973
    161  CA        53.9270  -52.9530   11.8310 C.3   346  HIS346      0.1656
    162  C         54.5240  -53.6790   13.0290 C.2   346  HIS346      0.2291
    163  O         55.1560  -53.0640   13.8850 O.2   346  HIS346     -0.2864
    164  CB        52.6300  -52.2410   12.2170 C.3   346  HIS346      0.0771
    165  CG        52.2530  -51.1420   11.2770 C.ar  346  HIS346      0.0820
    166  ND1       51.4310  -51.3440   10.1890 N.ar  346  HIS346     -0.2267
    167  CD2       52.6060  -49.8360   11.2450 C.ar  346  HIS346      0.1154
    168  CE1       51.2840  -50.2060    9.5350 C.ar  346  HIS346      0.1986
    169  NE2       51.9870  -49.2750   10.1550 N.ar  346  HIS346     -0.2212
@<TRIPOS>BOND
     1    70    68    1
     2    55    56    1
     3    68    67    2
     4    68    69    1
     5    62    63    2
     6    62    61    1
     7    60    61    1
     8    67    66    1
     9    56    59    1
    10    56    57    1
    11    61    64    1
    12    64    65    1
    13    57    58    2
    14    21    22    1
    15    66    65    1
    16    26    25    1
    17    22    25    1
    18    22    23    1
    19    15    16    2
    20    15    14    1
    21    35    33   ar
    22    35    36   ar
    23    23    24    2
    24    13    14    1
    25    14    17    1
    26    33    32   ar
    27    36    38   ar
    28    36    34   ar
    29    38    40   ar
    30    20    18    1
    31    32    34   ar
    32    32    31    1
    33    17    18    1
    34     4     3    2
    35    27    28    1
    36    34    37   ar
    37    40    39   ar
    38     3     2    1
    39    18    19    1
    40    75    76    1
    41    75    72    1
    42    71    72    1
    43    31    28    1
    44    28    29    1
    45    76    78   ar
    46    76    77   ar
    47    78    80   ar
    48    72    73    1
    49    37    39   ar
    50    74    73    2
    51    77    79   ar
    52     2     1    1
    53     2     5    1
    54    80    79   ar
    55    29    30    2
    56    54    52   ar
    57    54    53   ar
    58     5     6    1
    59    52    50   ar
    60    53    51   ar
    61   120   119   ar
    62   120   118   ar
    63   119   117   ar
    64    50    49   ar
    65    50    48   ar
    66     6     8   ar
    67     6     7   ar
    68     8    10   ar
    69   118   116   ar
    70   156   154   ar
    71   156   158   ar
    72    51    48   ar
    73    49    47   ar
    74   117   114   ar
    75   159   158    1
    76   154   153   ar
    77    48    46   ar
    78   106   105    1
    79   116   114   ar
    80   116   115   ar
    81   158   157   ar
    82   114   112   ar
    83     7     9   ar
    84    10    11   ar
    85   115   113   ar
    86    47    46   ar
    87   153   152    1
    88   153   155   ar
    89    46    45    1
    90   104   105   ar
    91   104   102   ar
    92   112   113   ar
    93   112   111    1
    94   105   103   ar
    95    41    42    1
    96   157   155   ar
    97   152   149    1
    98   111   108    1
    99     9    11   ar
   100    11    12    1
   101    45    42    1
   102   102   100   ar
   103   110   109    2
   104    42    43    1
   105   103   101   ar
   106   149   148    1
   107   149   150    1
   108   108   109    1
   109   108   107    1
   110    94    93    1
   111   148   139   am
   112    88    86   ar
   113   168   169   ar
   114   168   166   ar
   115   143   145   ar
   116   143   142   ar
   117   141   142    1
   118   141   138    1
   119   100   101   ar
   120   100    99    1
   121   135   134   ar
   122   133   134    1
   123   133   130    1
   124   134   136   ar
   125    43    44    2
   126   150   151    2
   127   150   160   am
   128   145   147   ar
   129   139   138    1
   130   139   140    2
   131    93    90    1
   132   169   167   ar
   133   166   165   ar
   134   142   144   ar
   135   137   138    1
   136   137   131   am
   137   128   126   ar
   138    86    85    1
   139    86    87   ar
   140   160   161    1
   141    92    91    2
   142    99    96    1
   143   130   131    1
   144   130   129    1
   145    85    82    1
   146   131   132    2
   147    91    95   am
   148    91    90    1
   149    96    95    1
   150    96    97    1
   151   167   165   ar
   152   147   146   ar
   153   165   164    1
   154    90    89    1
   155   144   146   ar
   156   126   125    1
   157   126   127   ar
   158   161   164    1
   159   161   162    1
   160   125   122    1
   161    98    97    2
   162    82    81    1
   163    82    83    1
   164    84    83    2
   165   162   163    2
   166   122   121    1
   167   122   123    1
   168   123   124    2
