@<TRIPOS>MOLECULE
tmp/3e33B00.pdb
 178 173 0 0 0
SMALL
GASTEIGER

@<TRIPOS>ATOM
      1  N        -80.8120  -19.3090    0.3060 N.3    86  TRP86      -0.1241
      2  CA       -79.9080  -19.8120    1.3350 C.3    86  TRP86       0.1605
      3  C        -80.0860  -19.0240    2.6210 C.2    86  TRP86       0.2264
      4  O        -80.0660  -19.5860    3.7080 O.2    86  TRP86      -0.2867
      5  CB       -78.4600  -19.6520    0.9080 C.3    86  TRP86       0.0550
      6  CG       -77.9270  -20.7290    0.0160 C.ar   86  TRP86       0.0003
      7  CD1      -77.5950  -20.6130   -1.2960 C.ar   86  TRP86       0.0946
      8  CD2      -77.5960  -22.0750    0.4030 C.ar   86  TRP86       0.0152
      9  NE1      -77.0930  -21.8190   -1.7630 N.ar   86  TRP86      -0.2442
     10  CE2      -77.0810  -22.7240   -0.7350 C.ar   86  TRP86       0.0810
     11  CE3      -77.6920  -22.7870    1.5980 C.ar   86  TRP86       0.0012
     12  CZ2      -76.6560  -24.0680   -0.7130 C.ar   86  TRP86       0.0191
     13  CZ3      -77.2670  -24.1320    1.6260 C.ar   86  TRP86       0.0001
     14  CH2      -76.7630  -24.7490    0.4740 C.ar   86  TRP86       0.0015
     15  N        -78.1380  -25.0340   -6.0400 N.3   135  ALA135     -0.1245
     16  CA       -77.8630  -24.6560   -4.6520 C.3   135  ALA135      0.1562
     17  C        -79.0400  -23.8960   -3.9990 C.2   135  ALA135      0.2260
     18  O        -79.5580  -24.3130   -2.9430 O.2   135  ALA135     -0.2867
     19  CB       -76.5200  -23.8920   -4.5240 C.3   135  ALA135      0.0290
     20  N        -81.9630  -26.3910   -3.5910 N.3   138  TYR138     -0.1241
     21  CA       -81.8050  -27.1290   -2.3300 C.3   138  TYR138      0.1605
     22  C        -82.2250  -26.2970   -1.1060 C.2   138  TYR138      0.2264
     23  O        -82.9880  -26.7570   -0.2410 O.2   138  TYR138     -0.2867
     24  CB       -80.3510  -27.5720   -2.1870 C.3   138  TYR138      0.0534
     25  CG       -79.9470  -28.0090   -0.8020 C.ar  138  TYR138     -0.0201
     26  CD1      -80.2000  -29.3000   -0.3560 C.ar  138  TYR138     -0.0009
     27  CD2      -79.3070  -27.1260    0.0700 C.ar  138  TYR138     -0.0009
     28  CE1      -79.8390  -29.7060    0.9100 C.ar  138  TYR138      0.0417
     29  CE2      -78.9300  -27.5230    1.3410 C.ar  138  TYR138      0.0417
     30  CZ       -79.2010  -28.8200    1.7530 C.ar  138  TYR138      0.1957
     31  OH       -78.8300  -29.2320    3.0080 O.3   138  TYR138     -0.2866
     32  N        -74.4470  -27.7440  -11.9710 N.3   177  MET177     -0.1245
     33  CA       -75.0830  -26.9600  -10.9010 C.3   177  MET177      0.1570
     34  C        -76.2230  -26.1340  -11.4780 C.2   177  MET177      0.2261
     35  O        -77.1780  -25.8220  -10.7860 O.2   177  MET177     -0.2867
     36  CB       -74.0890  -26.0070  -10.2180 C.3   177  MET177      0.0387
     37  CG       -73.0910  -26.6550   -9.2560 C.3   177  MET177      0.0595
     38  SD       -73.8480  -27.6490   -7.9460 S.3   177  MET177     -0.1393
     39  CE       -74.8520  -26.4580   -7.0930 C.3   177  MET177      0.0692
     40  N        -71.3650  -31.3000   -5.0570 N.3   186  ARG186     -0.1245
     41  CA       -72.4640  -30.5500   -4.4560 C.3   186  ARG186      0.1563
     42  C        -73.7630  -30.7750   -5.2310 C.2   186  ARG186      0.2260
     43  O        -74.8370  -30.8530   -4.6310 O.2   186  ARG186     -0.2867
     44  CB       -72.1760  -29.0330   -4.4530 C.3   186  ARG186      0.0307
     45  CG       -71.0950  -28.5720   -3.4950 C.3   186  ARG186      0.0489
     46  CD       -70.7800  -27.0570   -3.7740 C.3   186  ARG186      0.2205
     47  NE       -70.4360  -26.8340   -5.1740 N.pl3 186  ARG186     -0.0865
     48  CZ       -70.6630  -25.7140   -5.8660 C.cat 186  ARG186      0.5346
     49  NH1      -71.2350  -24.6620   -5.2990 N.pl3 186  ARG186      0.1354
     50  NH2      -70.3190  -25.6450   -7.1410 N.pl3 186  ARG186      0.1354
     51  N        -75.6390  -34.0150   -4.4400 N.3   189  TYR189     -0.1227
     52  CA       -76.3430  -33.8860   -3.1720 C.3   189  TYR189      0.1736
     53  C        -77.5790  -32.9910   -3.2700 C.2   189  TYR189      0.2595
     54  O        -78.6490  -33.3520   -2.7750 O.2   189  TYR189     -0.2718
     55  CB       -75.4070  -33.4140   -2.0440 C.3   189  TYR189      0.0548
     56  CG       -76.1360  -33.0540   -0.7700 C.ar  189  TYR189     -0.0200
     57  CD1      -76.7740  -34.0280   -0.0040 C.ar  189  TYR189     -0.0009
     58  CD2      -76.1920  -31.7380   -0.3260 C.ar  189  TYR189     -0.0009
     59  CE1      -77.4560  -33.7000    1.1500 C.ar  189  TYR189      0.0417
     60  CE2      -76.8680  -31.3950    0.8450 C.ar  189  TYR189      0.0417
     61  CZ       -77.4860  -32.3760    1.5840 C.ar  189  TYR189      0.1957
     62  OH       -78.1600  -32.0420    2.7410 O.3   189  TYR189     -0.2866
     63  N        -77.4450  -31.8200   -3.8920 N.am  190  CYS190     -0.1970
     64  CA       -78.5890  -30.9130   -4.0290 C.3   190  CYS190      0.1712
     65  C        -79.7510  -31.6040   -4.7580 C.2   190  CYS190      0.2296
     66  O        -80.9090  -31.5070   -4.3330 O.2   190  CYS190     -0.2864
     67  CB       -78.1870  -29.6340   -4.7960 C.3   190  CYS190      0.0983
     68  SG       -77.1170  -28.5520   -3.8190 S.3   190  CYS190     -0.0798
     69  N        -62.1720  -32.9590    0.8630 N.3   232  HIS232     -0.1241
     70  CA       -62.6380  -31.7780    1.6000 C.3   232  HIS232      0.1621
     71  C        -63.9380  -32.0820    2.3230 C.2   232  HIS232      0.2264
     72  O        -64.8320  -32.7280    1.7820 O.2   232  HIS232     -0.2867
     73  CB       -62.8630  -30.5990    0.6410 C.3   232  HIS232      0.0745
     74  CG       -62.9700  -29.2790    1.3420 C.ar  232  HIS232      0.0817
     75  ND1      -64.1180  -28.8820    1.9970 N.ar  232  HIS232     -0.2268
     76  CD2      -62.0590  -28.3000    1.5460 C.ar  232  HIS232      0.1154
     77  CE1      -63.9200  -27.6930    2.5480 C.ar  232  HIS232      0.1986
     78  NE2      -62.6820  -27.3130    2.2830 N.ar  232  HIS232     -0.2212
     79  N        -66.6530  -30.3890    2.9280 N.3   234  GLY234     -0.1210
     80  CA       -67.9280  -30.0080    2.3170 C.3   234  GLY234      0.1956
     81  C        -68.3650  -31.0030    1.2540 C.2   234  GLY234      0.2611
     82  O        -69.5190  -31.4190    1.2000 O.2   234  GLY234     -0.2717
     83  N        -67.4200  -31.3890    0.4070 N.am  235  TYR235     -0.1976
     84  CA       -67.7020  -32.3280   -0.6620 C.3   235  TYR235      0.1639
     85  C        -67.9120  -33.7390   -0.1010 C.2   235  TYR235      0.2290
     86  O        -68.6630  -34.5310   -0.6630 O.2   235  TYR235     -0.2864
     87  CB       -66.5430  -32.3270   -1.6670 C.3   235  TYR235      0.0560
     88  CG       -66.4200  -31.0260   -2.4450 C.ar  235  TYR235     -0.0198
     89  CD1      -65.2100  -30.3320   -2.5200 C.ar  235  TYR235     -0.0009
     90  CD2      -67.5200  -30.4990   -3.1180 C.ar  235  TYR235     -0.0009
     91  CE1      -65.1120  -29.1530   -3.2560 C.ar  235  TYR235      0.0417
     92  CE2      -67.4230  -29.3110   -3.8340 C.ar  235  TYR235      0.0417
     93  CZ       -66.2180  -28.6530   -3.8990 C.ar  235  TYR235      0.1957
     94  OH       -66.1320  -27.4800   -4.6450 O.3   235  TYR235     -0.2866
     95  N        -71.4210  -33.8610    1.1510 N.3   238  CYS238     -0.1235
     96  CA       -72.3410  -33.9410    0.0090 C.3   238  CYS238      0.1677
     97  C        -72.3140  -35.3690   -0.5970 C.2   238  CYS238      0.2270
     98  O        -73.3510  -35.9160   -0.9490 O.2   238  CYS238     -0.2867
     99  CB       -71.9300  -32.9500   -1.0840 C.3   238  CYS238      0.0956
    100  SG       -72.3620  -31.1980   -0.6520 S.3   238  CYS238     -0.0801
    101  N        -61.3500  -28.3580    7.3970 N.3   274  GLY274     -0.1210
    102  CA       -62.0370  -28.8460    6.1900 C.3   274  GLY274      0.1956
    103  C        -61.1820  -29.8290    5.3930 C.2   274  GLY274      0.2611
    104  O        -61.7010  -30.6450    4.6390 O.2   274  GLY274     -0.2717
    105  N        -59.8700  -29.7410    5.5570 N.am  275  ARG275     -0.1979
    106  CA       -58.9440  -30.6550    4.8860 C.3   275  ARG275      0.1597
    107  C        -57.6640  -30.7080    5.6770 C.2   275  ARG275      0.2287
    108  O        -57.3970  -29.8250    6.4930 O.2   275  ARG275     -0.2864
    109  CB       -58.6610  -30.2390    3.4400 C.3   275  ARG275      0.0334
    110  CG       -58.6990  -28.7260    3.1850 C.3   275  ARG275      0.0492
    111  CD       -58.4370  -28.3860    1.6950 C.3   275  ARG275      0.2205
    112  NE       -58.7240  -26.9680    1.4430 N.pl3 275  ARG275     -0.0865
    113  CZ       -58.1510  -26.2400    0.4930 C.cat 275  ARG275      0.5346
    114  NH1      -57.2530  -26.7850   -0.3280 N.pl3 275  ARG275      0.1354
    115  NH2      -58.4670  -24.9510    0.3730 N.pl3 275  ARG275      0.1354
    116  N        -55.0500  -27.6730    7.1010 N.3   278  LYS278     -0.1231
    117  CA       -55.6140  -26.3190    7.0680 C.3   278  LYS278      0.1693
    118  C        -56.2400  -25.9700    8.4260 C.2   278  LYS278      0.2591
    119  O        -56.0450  -26.6830    9.4220 O.2   278  LYS278     -0.2718
    120  CB       -56.5640  -26.1200    5.8790 C.3   278  LYS278      0.0285
    121  CG       -55.8400  -26.2510    4.5130 C.3   278  LYS278      0.0035
    122  CD       -56.4900  -25.3670    3.4300 C.3   278  LYS278      0.0206
    123  CE       -56.1210  -23.9040    3.6020 C.3   278  LYS278      0.1093
    124  NZ       -57.0840  -23.0390    2.8500 N.3   278  LYS278     -0.1314
    125  N        -56.9750  -24.8680    8.4850 N.am  279  LEU279     -0.1980
    126  CA       -57.3750  -24.3300    9.7870 C.3   279  LEU279      0.1596
    127  C        -58.7600  -24.7370   10.2410 C.2   279  LEU279      0.2287
    128  O        -59.6400  -24.9940    9.4160 O.2   279  LEU279     -0.2864
    129  CB       -57.2650  -22.7950    9.7820 C.3   279  LEU279      0.0297
    130  CG       -55.9100  -22.2400    9.3250 C.3   279  LEU279      0.0022
    131  CD1      -55.9850  -20.7050    9.1300 C.3   279  LEU279      0.0001
    132  CD2      -54.7950  -22.5970   10.3190 C.3   279  LEU279      0.0001
    133  N        -62.5200  -24.3400   11.5520 N.3   281  ASP281     -0.1239
    134  CA       -63.6070  -23.4500   11.1530 C.3   281  ASP281      0.1674
    135  C        -64.9190  -24.0150   11.7000 C.2   281  ASP281      0.2266
    136  O        -65.2650  -25.1990   11.4820 O.2   281  ASP281     -0.2867
    137  CB       -63.6630  -23.3150    9.6310 C.3   281  ASP281      0.1410
    138  CG       -64.8360  -22.4480    9.1420 C.2   281  ASP281      0.3668
    139  OD1      -65.7980  -22.1630    9.8960 O.co2 281  ASP281     -0.2456
    140  OD2      -64.8180  -22.1020    7.9590 O.co2 281  ASP281     -0.2456
    141  N        -67.4920  -26.3630    9.8860 N.3   284  TYR284     -0.1241
    142  CA       -67.1940  -27.8140    9.7260 C.3   284  TYR284      0.1605
    143  C        -67.7330  -28.6220   10.9070 C.2   284  TYR284      0.2264
    144  O        -67.6990  -29.8580   10.8960 O.2   284  TYR284     -0.2867
    145  CB       -65.6970  -28.0550    9.5460 C.3   284  TYR284      0.0534
    146  CG       -65.1710  -27.4090    8.2830 C.ar  284  TYR284     -0.0201
    147  CD1      -64.0620  -26.5820    8.3090 C.ar  284  TYR284     -0.0009
    148  CD2      -65.7950  -27.6410    7.0590 C.ar  284  TYR284     -0.0009
    149  CE1      -63.6050  -25.9670    7.1500 C.ar  284  TYR284      0.0417
    150  CE2      -65.3360  -27.0360    5.8860 C.ar  284  TYR284      0.0417
    151  CZ       -64.2430  -26.2030    5.9450 C.ar  284  TYR284      0.1957
    152  OH       -63.7690  -25.6130    4.7880 O.3   284  TYR284     -0.2866
    153  N        -70.4340  -29.8230    8.5140 N.3   287  TRP287     -0.1241
    154  CA       -69.9720  -30.6040    7.3450 C.3   287  TRP287      0.1605
    155  C        -69.1120  -31.8260    7.6860 C.2   287  TRP287      0.2264
    156  O        -69.2330  -32.8680    7.0350 O.2   287  TRP287     -0.2867
    157  CB       -69.2110  -29.7270    6.3540 C.3   287  TRP287      0.0550
    158  CG       -69.9670  -28.4790    5.9200 C.ar  287  TRP287      0.0003
    159  CD1      -69.5850  -27.1850    6.1410 C.ar  287  TRP287      0.0946
    160  CD2      -71.2120  -28.4220    5.2070 C.ar  287  TRP287      0.0152
    161  NE1      -70.5120  -26.3230    5.5990 N.ar  287  TRP287     -0.2442
    162  CE2      -71.5170  -27.0490    5.0130 C.ar  287  TRP287      0.0810
    163  CE3      -72.0880  -29.3900    4.6940 C.ar  287  TRP287      0.0012
    164  CZ2      -72.6680  -26.6180    4.3460 C.ar  287  TRP287      0.0191
    165  CZ3      -73.2390  -28.9670    4.0250 C.ar  287  TRP287      0.0001
    166  CH2      -73.5180  -27.5750    3.8520 C.ar  287  TRP287      0.0015
    167  N        -74.6420  -17.8490    7.7550 N.3   345  TYR345     -0.1241
    168  CA       -74.1310  -19.1660    7.3650 C.3   345  TYR345      0.1605
    169  C        -73.4710  -19.8450    8.5690 C.2   345  TYR345      0.2264
    170  O        -73.8030  -20.9850    8.8900 O.2   345  TYR345     -0.2867
    171  CB       -73.1520  -18.9990    6.2200 C.3   345  TYR345      0.0534
    172  CG       -72.2940  -20.2260    5.9140 C.ar  345  TYR345     -0.0201
    173  CD1      -72.6940  -21.1490    4.9590 C.ar  345  TYR345     -0.0009
    174  CD2      -71.0750  -20.4290    6.5610 C.ar  345  TYR345     -0.0009
    175  CE1      -71.8970  -22.2840    4.6720 C.ar  345  TYR345      0.0417
    176  CE2      -70.2980  -21.5410    6.2970 C.ar  345  TYR345      0.0417
    177  CZ       -70.7150  -22.4580    5.3510 C.ar  345  TYR345      0.1957
    178  OH       -69.9030  -23.5370    5.0890 O.3   345  TYR345     -0.2866
@<TRIPOS>BOND
     1    32    33    1
     2    34    33    1
     3    34    35    2
     4    33    36    1
     5    36    37    1
     6    37    38    1
     7    38    39    1
     8    50    48    1
     9    15    16    1
    10    48    49    1
    11    48    47    2
    12    42    43    2
    13    42    41    1
    14    47    46    1
    15    40    41    1
    16    67    64    1
    17    67    68    1
    18    65    66    2
    19    65    64    1
    20    16    19    1
    21    16    17    1
    22    94    93    1
    23    41    44    1
    24    44    45    1
    25    51    52    1
    26    64    63    1
    27    17    18    2
    28    93    92   ar
    29    93    91   ar
    30    63    53   am
    31    92    90   ar
    32    46    45    1
    33    20    21    1
    34    53    52    1
    35    53    54    2
    36    91    89   ar
    37    52    55    1
    38    90    88   ar
    39    89    88   ar
    40    88    87    1
    41    21    24    1
    42    21    22    1
    43    24    25    1
    44    55    56    1
    45     9     7   ar
    46     9    10   ar
    47    87    84    1
    48     7     6   ar
    49    22    23    2
    50    99   100    1
    51    99    96    1
    52    98    97    2
    53    25    26   ar
    54    25    27   ar
    55    56    58   ar
    56    56    57   ar
    57    10    12   ar
    58    10     8   ar
    59    12    14   ar
    60    86    85    2
    61    84    85    1
    62    84    83    1
    63    97    96    1
    64    26    28   ar
    65   114   113    1
    66    58    60   ar
    67    57    59   ar
    68    96    95    1
    69     6     8   ar
    70     6     5    1
    71    27    29   ar
    72     1     2    1
    73   115   113    1
    74     8    11   ar
    75    83    81   am
    76    14    13   ar
    77   113   112    2
    78    73    74    1
    79    73    70    1
    80    60    61   ar
    81    69    70    1
    82     5     2    1
    83    28    30   ar
    84    59    61   ar
    85    82    81    2
    86    81    80    1
    87     2     3    1
    88    29    30   ar
    89    74    76   ar
    90    74    75   ar
    91   112   111    1
    92    76    78   ar
    93    61    62    1
    94    11    13   ar
    95    70    71    1
    96   111   110    1
    97    30    31    1
    98    72    71    2
    99    75    77   ar
   100    78    77   ar
   101    80    79    1
   102     3     4    2
   103   124   123    1
   104   110   109    1
   105   122   123    1
   106   122   121    1
   107   109   106    1
   108   166   165   ar
   109   166   164   ar
   110   165   163   ar
   111   164   162   ar
   112   121   120    1
   113   104   103    2
   114   175   173   ar
   115   175   177   ar
   116   163   160   ar
   117   152   151    1
   118   106   105    1
   119   106   107    1
   120   173   172   ar
   121   162   160   ar
   122   162   161   ar
   123   178   177    1
   124   160   158   ar
   125   177   176   ar
   126   103   105   am
   127   103   102    1
   128   161   159   ar
   129   107   108    2
   130   120   117    1
   131   150   151   ar
   132   150   148   ar
   133   172   171    1
   134   172   174   ar
   135   158   159   ar
   136   158   157    1
   137   151   149   ar
   138   102   101    1
   139   171   168    1
   140   176   174   ar
   141   157   154    1
   142   156   155    2
   143   148   146   ar
   144   117   116    1
   145   117   118    1
   146   149   147   ar
   147   154   155    1
   148   154   153    1
   149   168   167    1
   150   168   169    1
   151   140   138   ar
   152   146   147   ar
   153   146   145    1
   154   118   125   am
   155   118   119    2
   156   125   126    1
   157   169   170    2
   158   131   130    1
   159   138   137    1
   160   138   139   ar
   161   130   129    1
   162   130   132    1
   163   128   127    2
   164   145   142    1
   165   137   134    1
   166   142   141    1
   167   142   143    1
   168   129   126    1
   169   126   127    1
   170   144   143    2
   171   134   133    1
   172   134   135    1
   173   136   135    2
