@<TRIPOS>MOLECULE
tmp/3e33B01.pdb
 178 176 0 0 0
SMALL
GASTEIGER

@<TRIPOS>ATOM
      1  N        -74.4490   -7.9080    2.8100 N.3    77  TYR77      -0.1241
      2  CA       -74.9900   -9.0920    2.1560 C.3    77  TYR77       0.1605
      3  C        -75.1990   -8.9440    0.6490 C.2    77  TYR77       0.2264
      4  O        -75.7830   -9.8080    0.0270 O.2    77  TYR77      -0.2867
      5  CB       -76.2610   -9.5820    2.8850 C.3    77  TYR77       0.0534
      6  CG       -75.8540  -10.2820    4.1710 C.ar   77  TYR77      -0.0201
      7  CD1      -75.5770   -9.5510    5.3310 C.ar   77  TYR77      -0.0009
      8  CD2      -75.6520  -11.6640    4.1980 C.ar   77  TYR77      -0.0009
      9  CE1      -75.1310  -10.1810    6.5000 C.ar   77  TYR77       0.0417
     10  CE2      -75.2250  -12.3070    5.3600 C.ar   77  TYR77       0.0417
     11  CZ       -74.9580  -11.5630    6.5000 C.ar   77  TYR77       0.1957
     12  OH       -74.5250  -12.2160    7.6330 O.3    77  TYR77      -0.2866
     13  N        -74.2550  -11.8220   -1.4280 N.3    80  LEU80      -0.1245
     14  CA       -75.1490  -12.9820   -1.3540 C.3    80  LEU80       0.1561
     15  C        -76.4920  -12.7120   -2.0230 C.2    80  LEU80       0.2260
     16  O        -77.4690  -13.4290   -1.8050 O.2    80  LEU80      -0.2867
     17  CB       -75.3260  -13.4700    0.0970 C.3    80  LEU80       0.0270
     18  CG       -74.0620  -14.1640    0.6260 C.3    80  LEU80       0.0019
     19  CD1      -74.0650  -14.3200    2.1360 C.3    80  LEU80       0.0001
     20  CD2      -73.8810  -15.5540   -0.0670 C.3    80  LEU80       0.0001
     21  N        -78.0420  -15.6260   -3.5820 N.3    83  SER83      -0.1217
     22  CA       -78.2100  -16.7430   -2.6430 C.3    83  SER83       0.1889
     23  C        -79.2980  -16.4350   -1.6350 C.2    83  SER83       0.2288
     24  O        -79.1900  -16.8040   -0.4800 O.2    83  SER83      -0.2866
     25  CB       -76.9000  -17.0190   -1.8870 C.3    83  SER83       0.2089
     26  OG       -75.9130  -17.5940   -2.7390 O.3    83  SER83      -0.2183
     27  N        -80.8120  -19.3090    0.3060 N.3    86  TRP86      -0.1241
     28  CA       -79.9080  -19.8120    1.3350 C.3    86  TRP86       0.1605
     29  C        -80.0860  -19.0240    2.6210 C.2    86  TRP86       0.2264
     30  O        -80.0660  -19.5860    3.7080 O.2    86  TRP86      -0.2867
     31  CB       -78.4600  -19.6520    0.9080 C.3    86  TRP86       0.0550
     32  CG       -77.9270  -20.7290    0.0160 C.ar   86  TRP86       0.0003
     33  CD1      -77.5950  -20.6130   -1.2960 C.ar   86  TRP86       0.0946
     34  CD2      -77.5960  -22.0750    0.4030 C.ar   86  TRP86       0.0152
     35  NE1      -77.0930  -21.8190   -1.7630 N.ar   86  TRP86      -0.2442
     36  CE2      -77.0810  -22.7240   -0.7350 C.ar   86  TRP86       0.0810
     37  CE3      -77.6920  -22.7870    1.5980 C.ar   86  TRP86       0.0012
     38  CZ2      -76.6560  -24.0680   -0.7130 C.ar   86  TRP86       0.0191
     39  CZ3      -77.2670  -24.1320    1.6260 C.ar   86  TRP86       0.0001
     40  CH2      -76.7630  -24.7490    0.4740 C.ar   86  TRP86       0.0015
     41  N        -80.8770  -20.7080    6.0880 N.3    90  TRP90      -0.1241
     42  CA       -79.9640  -20.6280    7.2260 C.3    90  TRP90       0.1605
     43  C        -80.6770  -20.0480    8.4530 C.2    90  TRP90       0.2264
     44  O        -80.4990  -20.5300    9.5660 O.2    90  TRP90      -0.2867
     45  CB       -78.7410  -19.7690    6.9300 C.3    90  TRP90       0.0550
     46  CG       -77.8370  -20.3750    5.9060 C.ar   90  TRP90       0.0003
     47  CD1      -77.6130  -21.7120    5.6930 C.ar   90  TRP90       0.0946
     48  CD2      -77.0610  -19.6730    4.9380 C.ar   90  TRP90       0.0152
     49  NE1      -76.7400  -21.8780    4.6440 N.ar   90  TRP90      -0.2442
     50  CE2      -76.3900  -20.6440    4.1580 C.ar   90  TRP90       0.0810
     51  CE3      -76.8720  -18.3160    4.6440 C.ar   90  TRP90       0.0012
     52  CZ2      -75.5430  -20.2990    3.1120 C.ar   90  TRP90       0.0191
     53  CZ3      -76.0280  -17.9730    3.6010 C.ar   90  TRP90       0.0001
     54  CH2      -75.3730  -18.9650    2.8470 C.ar   90  TRP90       0.0015
     55  N        -78.1380  -25.0340   -6.0400 N.3   135  ALA135     -0.1245
     56  CA       -77.8630  -24.6560   -4.6520 C.3   135  ALA135      0.1562
     57  C        -79.0400  -23.8960   -3.9990 C.2   135  ALA135      0.2260
     58  O        -79.5580  -24.3130   -2.9430 O.2   135  ALA135     -0.2867
     59  CB       -76.5200  -23.8920   -4.5240 C.3   135  ALA135      0.0290
     60  N        -71.3650  -31.3000   -5.0570 N.3   186  ARG186     -0.1245
     61  CA       -72.4640  -30.5500   -4.4560 C.3   186  ARG186      0.1563
     62  C        -73.7630  -30.7750   -5.2310 C.2   186  ARG186      0.2260
     63  O        -74.8370  -30.8530   -4.6310 O.2   186  ARG186     -0.2867
     64  CB       -72.1760  -29.0330   -4.4530 C.3   186  ARG186      0.0307
     65  CG       -71.0950  -28.5720   -3.4950 C.3   186  ARG186      0.0489
     66  CD       -70.7800  -27.0570   -3.7740 C.3   186  ARG186      0.2205
     67  NE       -70.4360  -26.8340   -5.1740 N.pl3 186  ARG186     -0.0865
     68  CZ       -70.6630  -25.7140   -5.8660 C.cat 186  ARG186      0.5346
     69  NH1      -71.2350  -24.6620   -5.2990 N.pl3 186  ARG186      0.1354
     70  NH2      -70.3190  -25.6450   -7.1410 N.pl3 186  ARG186      0.1354
     71  N        -62.1720  -32.9590    0.8630 N.3   232  HIS232     -0.1241
     72  CA       -62.6380  -31.7780    1.6000 C.3   232  HIS232      0.1621
     73  C        -63.9380  -32.0820    2.3230 C.2   232  HIS232      0.2264
     74  O        -64.8320  -32.7280    1.7820 O.2   232  HIS232     -0.2867
     75  CB       -62.8630  -30.5990    0.6410 C.3   232  HIS232      0.0745
     76  CG       -62.9700  -29.2790    1.3420 C.ar  232  HIS232      0.0817
     77  ND1      -64.1180  -28.8820    1.9970 N.ar  232  HIS232     -0.2268
     78  CD2      -62.0590  -28.3000    1.5460 C.ar  232  HIS232      0.1154
     79  CE1      -63.9200  -27.6930    2.5480 C.ar  232  HIS232      0.1986
     80  NE2      -62.6820  -27.3130    2.2830 N.ar  232  HIS232     -0.2212
     81  N        -62.5200  -24.3400   11.5520 N.3   281  ASP281     -0.1239
     82  CA       -63.6070  -23.4500   11.1530 C.3   281  ASP281      0.1674
     83  C        -64.9190  -24.0150   11.7000 C.2   281  ASP281      0.2266
     84  O        -65.2650  -25.1990   11.4820 O.2   281  ASP281     -0.2867
     85  CB       -63.6630  -23.3150    9.6310 C.3   281  ASP281      0.1410
     86  CG       -64.8360  -22.4480    9.1420 C.2   281  ASP281      0.3668
     87  OD1      -65.7980  -22.1630    9.8960 O.co2 281  ASP281     -0.2456
     88  OD2      -64.8180  -22.1020    7.9590 O.co2 281  ASP281     -0.2456
     89  N        -67.9670  -23.8190   10.8250 N.3   283  CYS283     -0.1221
     90  CA       -68.9890  -24.4170    9.9370 C.3   283  CYS283      0.1808
     91  C        -68.7260  -25.9250    9.6900 C.2   283  CYS283      0.2601
     92  O        -69.6440  -26.6750    9.3590 O.2   283  CYS283     -0.2717
     93  CB       -69.1310  -23.6760    8.6050 C.3   283  CYS283      0.0970
     94  SG       -67.7070  -23.7910    7.4950 S.3   283  CYS283     -0.0800
     95  N        -67.4920  -26.3630    9.8860 N.am  284  TYR284     -0.1976
     96  CA       -67.1940  -27.8140    9.7260 C.3   284  TYR284      0.1639
     97  C        -67.7330  -28.6220   10.9070 C.2   284  TYR284      0.2290
     98  O        -67.6990  -29.8580   10.8960 O.2   284  TYR284     -0.2864
     99  CB       -65.6970  -28.0550    9.5460 C.3   284  TYR284      0.0560
    100  CG       -65.1710  -27.4090    8.2830 C.ar  284  TYR284     -0.0198
    101  CD1      -64.0620  -26.5820    8.3090 C.ar  284  TYR284     -0.0009
    102  CD2      -65.7950  -27.6410    7.0590 C.ar  284  TYR284     -0.0009
    103  CE1      -63.6050  -25.9670    7.1500 C.ar  284  TYR284      0.0417
    104  CE2      -65.3360  -27.0360    5.8860 C.ar  284  TYR284      0.0417
    105  CZ       -64.2430  -26.2030    5.9450 C.ar  284  TYR284      0.1957
    106  OH       -63.7690  -25.6130    4.7880 O.3   284  TYR284     -0.2866
    107  N        -70.4340  -29.8230    8.5140 N.3   287  TRP287     -0.1241
    108  CA       -69.9720  -30.6040    7.3450 C.3   287  TRP287      0.1605
    109  C        -69.1120  -31.8260    7.6860 C.2   287  TRP287      0.2264
    110  O        -69.2330  -32.8680    7.0350 O.2   287  TRP287     -0.2867
    111  CB       -69.2110  -29.7270    6.3540 C.3   287  TRP287      0.0550
    112  CG       -69.9670  -28.4790    5.9200 C.ar  287  TRP287      0.0003
    113  CD1      -69.5850  -27.1850    6.1410 C.ar  287  TRP287      0.0946
    114  CD2      -71.2120  -28.4220    5.2070 C.ar  287  TRP287      0.0152
    115  NE1      -70.5120  -26.3230    5.5990 N.ar  287  TRP287     -0.2442
    116  CE2      -71.5170  -27.0490    5.0130 C.ar  287  TRP287      0.0810
    117  CE3      -72.0880  -29.3900    4.6940 C.ar  287  TRP287      0.0012
    118  CZ2      -72.6680  -26.6180    4.3460 C.ar  287  TRP287      0.0191
    119  CZ3      -73.2390  -28.9670    4.0250 C.ar  287  TRP287      0.0001
    120  CH2      -73.5180  -27.5750    3.8520 C.ar  287  TRP287      0.0015
    121  N        -66.8400  -18.3400   12.2790 N.3   336  ASP336     -0.1239
    122  CA       -65.8600  -19.3060   11.8050 C.3   336  ASP336      0.1674
    123  C        -64.8270  -19.5850   12.8970 C.2   336  ASP336      0.2266
    124  O        -64.6730  -20.7280   13.3400 O.2   336  ASP336     -0.2867
    125  CB       -65.2770  -18.7120   10.5060 C.3   336  ASP336      0.1410
    126  CG       -63.9370  -19.2800   10.0890 C.2   336  ASP336      0.3668
    127  OD1      -63.3220  -20.1300   10.7750 O.co2 336  ASP336     -0.2456
    128  OD2      -63.4780  -18.8050    9.0230 O.co2 336  ASP336     -0.2456
    129  N        -63.0360  -13.4490   13.4520 N.3   340  LYS340     -0.1245
    130  CA       -63.8390  -13.3510   12.2330 C.3   340  LYS340      0.1561
    131  C        -65.1740  -12.7220   12.5650 C.2   340  LYS340      0.2260
    132  O        -65.5700  -12.6710   13.7210 O.2   340  LYS340     -0.2867
    133  CB       -64.0720  -14.7470   11.6210 C.3   340  LYS340      0.0271
    134  CG       -62.8060  -15.4300   11.1490 C.3   340  LYS340      0.0035
    135  CD       -62.1350  -14.6340   10.0250 C.3   340  LYS340      0.0206
    136  CE       -60.8050  -15.2480    9.6020 C.3   340  LYS340      0.1093
    137  NZ       -61.0250  -16.5490    8.9170 N.3   340  LYS340     -0.1314
    138  N        -71.9880  -14.2240   10.8300 N.3   343  ASP343     -0.1225
    139  CA       -72.7610  -14.2530    9.5930 C.3   343  ASP343      0.1805
    140  C        -73.7880  -15.3710    9.7010 C.2   343  ASP343      0.2598
    141  O        -73.6670  -16.2370   10.5800 O.2   343  ASP343     -0.2718
    142  CB       -71.8310  -14.3900    8.3800 C.3   343  ASP343      0.1424
    143  CG       -71.1040  -15.7400    8.3440 C.2   343  ASP343      0.3668
    144  OD1      -71.8150  -16.7420    8.3080 O.co2 343  ASP343     -0.2456
    145  OD2      -69.8540  -15.7750    8.3320 O.co2 343  ASP343     -0.2456
    146  N        -74.8120  -15.3560    8.8540 N.am  344  PHE344     -0.1962
    147  CA       -75.9290  -16.2700    9.0490 C.3   344  PHE344      0.1771
    148  C        -75.5570  -17.7200    8.6940 C.2   344  PHE344      0.2620
    149  O        -76.0860  -18.6790    9.2650 O.2   344  PHE344     -0.2715
    150  CB       -77.1430  -15.7890    8.2570 C.3   344  PHE344      0.0574
    151  CG       -77.6890  -14.4830    8.7940 C.ar  344  PHE344     -0.0200
    152  CD1      -77.4910  -13.3020    8.1090 C.ar  344  PHE344     -0.0042
    153  CD2      -78.3320  -14.4550   10.0260 C.ar  344  PHE344     -0.0042
    154  CE1      -77.9620  -12.0950    8.6380 C.ar  344  PHE344     -0.0003
    155  CE2      -78.7980  -13.2540   10.5600 C.ar  344  PHE344     -0.0003
    156  CZ       -78.6100  -12.0820    9.8530 C.ar  344  PHE344     -0.0000
    157  N        -74.6420  -17.8490    7.7550 N.am  345  TYR345     -0.1960
    158  CA       -74.1310  -19.1660    7.3650 C.3   345  TYR345      0.1771
    159  C        -73.4710  -19.8450    8.5690 C.2   345  TYR345      0.2619
    160  O        -73.8030  -20.9850    8.8900 O.2   345  TYR345     -0.2715
    161  CB       -73.1520  -18.9990    6.2200 C.3   345  TYR345      0.0574
    162  CG       -72.2940  -20.2260    5.9140 C.ar  345  TYR345     -0.0198
    163  CD1      -72.6940  -21.1490    4.9590 C.ar  345  TYR345     -0.0009
    164  CD2      -71.0750  -20.4290    6.5610 C.ar  345  TYR345     -0.0009
    165  CE1      -71.8970  -22.2840    4.6720 C.ar  345  TYR345      0.0417
    166  CE2      -70.2980  -21.5410    6.2970 C.ar  345  TYR345      0.0417
    167  CZ       -70.7150  -22.4580    5.3510 C.ar  345  TYR345      0.1957
    168  OH       -69.9030  -23.5370    5.0890 O.3   345  TYR345     -0.2866
    169  N        -72.5380  -19.1710    9.2460 N.am  346  HIS346     -0.1973
    170  CA       -71.9210  -19.7940   10.4130 C.3   346  HIS346      0.1656
    171  C        -72.8720  -19.9810   11.5800 C.2   346  HIS346      0.2291
    172  O        -72.7260  -20.9180   12.3620 O.2   346  HIS346     -0.2864
    173  CB       -70.6420  -19.0680   10.8320 C.3   346  HIS346      0.0771
    174  CG       -69.5240  -19.3110    9.8830 C.ar  346  HIS346      0.0820
    175  ND1      -69.2440  -18.4670    8.8300 N.ar  346  HIS346     -0.2267
    176  CD2      -68.6880  -20.3690    9.7590 C.ar  346  HIS346      0.1154
    177  CE1      -68.2490  -18.9820    8.1170 C.ar  346  HIS346      0.1986
    178  NE2      -67.8870  -20.1270    8.6730 N.ar  346  HIS346     -0.2212
@<TRIPOS>BOND
     1    70    68    1
     2    55    56    1
     3    68    69    1
     4    68    67    2
     5    62    63    2
     6    62    61    1
     7    67    66    1
     8    60    61    1
     9    56    59    1
    10    56    57    1
    11    61    64    1
    12    64    65    1
    13    57    58    2
    14    66    65    1
    15    21    22    1
    16    26    25    1
    17    22    25    1
    18    22    23    1
    19    15    16    2
    20    15    14    1
    21    35    33   ar
    22    35    36   ar
    23    23    24    2
    24    13    14    1
    25    14    17    1
    26    33    32   ar
    27    36    38   ar
    28    36    34   ar
    29    38    40   ar
    30    20    18    1
    31    32    34   ar
    32    32    31    1
    33     4     3    2
    34    17    18    1
    35    27    28    1
    36    34    37   ar
    37    40    39   ar
    38    18    19    1
    39    75    76    1
    40    75    72    1
    41     3     2    1
    42    71    72    1
    43    31    28    1
    44    28    29    1
    45    76    78   ar
    46    76    77   ar
    47    78    80   ar
    48    37    39   ar
    49    72    73    1
    50    74    73    2
    51    77    79   ar
    52     2     1    1
    53     2     5    1
    54    80    79   ar
    55    29    30    2
    56    54    52   ar
    57    54    53   ar
    58     5     6    1
    59    52    50   ar
    60    53    51   ar
    61   120   119   ar
    62   120   118   ar
    63   119   117   ar
    64    50    49   ar
    65    50    48   ar
    66     6     8   ar
    67     6     7   ar
    68     8    10   ar
    69   118   116   ar
    70    51    48   ar
    71    49    47   ar
    72   165   163   ar
    73   165   167   ar
    74   117   114   ar
    75   106   105    1
    76    48    46   ar
    77   163   162   ar
    78   116   114   ar
    79   116   115   ar
    80   168   167    1
    81   114   112   ar
    82     7     9   ar
    83   167   166   ar
    84    10    11   ar
    85   115   113   ar
    86    47    46   ar
    87   104   105   ar
    88   104   102   ar
    89    46    45    1
    90   162   161    1
    91   162   164   ar
    92   112   113   ar
    93   112   111    1
    94   105   103   ar
    95    41    42    1
    96   161   158    1
    97   166   164   ar
    98   111   108    1
    99    11     9   ar
   100    11    12    1
   101    45    42    1
   102   110   109    2
   103   102   100   ar
   104   103   101   ar
   105    42    43    1
   106   108   109    1
   107   108   107    1
   108   158   157    1
   109   158   159    1
   110    94    93    1
   111   157   148   am
   112    88    86   ar
   113   152   154   ar
   114   152   151   ar
   115   177   178   ar
   116   177   175   ar
   117   150   151    1
   118   150   147    1
   119   100   101   ar
   120   100    99    1
   121   144   143   ar
   122   145   143   ar
   123   143   142    1
   124   142   139    1
   125    43    44    2
   126   159   160    2
   127   159   169   am
   128    93    90    1
   129   154   156   ar
   130   178   176   ar
   131   148   147    1
   132   148   149    2
   133   151   153   ar
   134   175   174   ar
   135   146   147    1
   136   146   140   am
   137   137   136    1
   138   128   126   ar
   139    86    85    1
   140    86    87   ar
   141   169   170    1
   142    92    91    2
   143    99    96    1
   144   139   140    1
   145   139   138    1
   146   136   135    1
   147    85    82    1
   148    91    95   am
   149    91    90    1
   150   140   141    2
   151    96    95    1
   152    96    97    1
   153   176   174   ar
   154   156   155   ar
   155   174   173    1
   156    90    89    1
   157   135   134    1
   158   153   155   ar
   159   126   125    1
   160   126   127   ar
   161   170   173    1
   162   170   171    1
   163   125   122    1
   164    98    97    2
   165   134   133    1
   166    82    81    1
   167    82    83    1
   168    84    83    2
   169   171   172    2
   170   133   130    1
   171   122   121    1
   172   122   123    1
   173   130   131    1
   174   130   129    1
   175   131   132    2
   176   123   124    2
