@<TRIPOS>MOLECULE
tmp/3e34B01.pdb
 216 214 0 0 0
SMALL
GASTEIGER

@<TRIPOS>ATOM
      1  N         96.0880    7.8410   30.5090 N.3    77  TYR77      -0.1241
      2  CA        95.5450    9.0470   31.1200 C.3    77  TYR77       0.1605
      3  C         95.3270    8.9330   32.6330 C.2    77  TYR77       0.2264
      4  O         94.7170    9.8080   33.2500 O.2    77  TYR77      -0.2867
      5  CB        94.2780    9.5030   30.3630 C.3    77  TYR77       0.0534
      6  CG        94.6910   10.1630   29.0570 C.ar   77  TYR77      -0.0201
      7  CD1       94.9350    9.4100   27.9110 C.ar   77  TYR77      -0.0009
      8  CD2       94.9310   11.5350   29.0010 C.ar   77  TYR77      -0.0009
      9  CE1       95.3680   10.0260   26.7150 C.ar   77  TYR77       0.0417
     10  CE2       95.3630   12.1540   27.8260 C.ar   77  TYR77       0.0417
     11  CZ        95.5860   11.4100   26.6960 C.ar   77  TYR77       0.1957
     12  OH        96.0200   12.0500   25.5430 O.3    77  TYR77      -0.2866
     13  N         96.1580   11.8470   34.7670 N.3    80  LEU80      -0.1245
     14  CA        95.2330   12.9720   34.6840 C.3    80  LEU80       0.1561
     15  C         93.9060   12.6850   35.3830 C.2    80  LEU80       0.2260
     16  O         92.9050   13.3880   35.1730 O.2    80  LEU80      -0.2867
     17  CB        95.0190   13.3660   33.2090 C.3    80  LEU80       0.0270
     18  CG        96.2460   14.0920   32.6410 C.3    80  LEU80       0.0019
     19  CD1       96.3210   14.0080   31.1120 C.3    80  LEU80       0.0001
     20  CD2       96.2250   15.5600   33.1320 C.3    80  LEU80       0.0001
     21  N         92.3800   15.5430   37.0880 N.3    83  SER83      -0.1217
     22  CA        92.2910   16.6640   36.1590 C.3    83  SER83       0.1889
     23  C         91.2380   16.4210   35.0950 C.2    83  SER83       0.2288
     24  O         91.3830   16.8810   33.9720 O.2    83  SER83      -0.2866
     25  CB        93.6320   16.8680   35.4500 C.3    83  SER83       0.2089
     26  OG        94.6770   17.1480   36.3750 O.3    83  SER83      -0.2183
     27  N         89.7940   19.2320   33.0560 N.3    86  TRP86      -0.1241
     28  CA        90.7280   19.7050   32.0330 C.3    86  TRP86       0.1605
     29  C         90.5490   18.9310   30.7480 C.2    86  TRP86       0.2264
     30  O         90.6080   19.5040   29.6540 O.2    86  TRP86      -0.2867
     31  CB        92.1770   19.5440   32.4790 C.3    86  TRP86       0.0550
     32  CG        92.6460   20.6270   33.3740 C.ar   86  TRP86       0.0003
     33  CD1       92.8540   20.5360   34.7130 C.ar   86  TRP86       0.0946
     34  CD2       92.9620   21.9770   32.9990 C.ar   86  TRP86       0.0152
     35  NE1       93.2780   21.7490   35.2040 N.ar   86  TRP86      -0.2442
     36  CE2       93.3550   22.6500   34.1710 C.ar   86  TRP86       0.0810
     37  CE3       92.9630   22.6760   31.7880 C.ar   86  TRP86       0.0012
     38  CZ2       93.7520   24.0010   34.1710 C.ar   86  TRP86       0.0191
     39  CZ3       93.3540   24.0260   31.7900 C.ar   86  TRP86       0.0001
     40  CH2       93.7420   24.6650   32.9750 C.ar   86  TRP86       0.0015
     41  N         89.8290   20.6620   27.2510 N.3    90  TRP90      -0.1241
     42  CA        90.7230   20.5320   26.1030 C.3    90  TRP90       0.1605
     43  C         89.9980   19.9460   24.8900 C.2    90  TRP90       0.2264
     44  O         90.1930   20.3990   23.7720 O.2    90  TRP90      -0.2867
     45  CB        91.9550   19.6720   26.4230 C.3    90  TRP90       0.0550
     46  CG        92.8380   20.2700   27.4860 C.ar   90  TRP90       0.0003
     47  CD1       93.0450   21.5950   27.7210 C.ar   90  TRP90       0.0946
     48  CD2       93.6150   19.5600   28.4580 C.ar   90  TRP90       0.0152
     49  NE1       93.9080   21.7590   28.7720 N.ar   90  TRP90      -0.2442
     50  CE2       94.2770   20.5270   29.2460 C.ar   90  TRP90       0.0810
     51  CE3       93.8120   18.2000   28.7410 C.ar   90  TRP90       0.0012
     52  CZ2       95.1140   20.1860   30.3030 C.ar   90  TRP90       0.0191
     53  CZ3       94.6570   17.8530   29.7930 C.ar   90  TRP90       0.0001
     54  CH2       95.3020   18.8470   30.5600 C.ar   90  TRP90       0.0015
     55  N         89.7840   22.6520   43.5180 N.3   133  HIS133     -0.1241
     56  CA        91.1190   23.1630   43.2210 C.3   133  HIS133      0.1621
     57  C         90.8750   24.2010   42.1210 C.2   133  HIS133      0.2264
     58  O         90.0160   23.9890   41.2690 O.2   133  HIS133     -0.2867
     59  CB        91.9860   21.9800   42.7620 C.3   133  HIS133      0.0745
     60  CG        93.4290   22.3040   42.5220 C.ar  133  HIS133      0.0817
     61  ND1       93.8450   23.1120   41.4890 N.ar  133  HIS133     -0.2268
     62  CD2       94.5550   21.8830   43.1490 C.ar  133  HIS133      0.1154
     63  CE1       95.1660   23.1800   41.4860 C.ar  133  HIS133      0.1986
     64  NE2       95.6210   22.4600   42.4980 N.ar  133  HIS133     -0.2212
     65  N         92.4900   24.9970   39.4850 N.3   135  ALA135     -0.1231
     66  CA        92.7920   24.6050   38.1110 C.3   135  ALA135      0.1679
     67  C         91.6120   23.8830   37.4200 C.2   135  ALA135      0.2434
     68  O         91.1600   24.3270   36.3650 O.2   135  ALA135     -0.2733
     69  CB        94.0860   23.7990   38.0330 C.3   135  ALA135      0.0304
     70  N         91.1030   22.7750   38.0100 N.am  136  PRO136     -0.2729
     71  CA        89.9050   22.1360   37.4430 C.3   136  PRO136      0.1401
     72  C         88.6510   23.0130   37.5580 C.2   136  PRO136      0.2269
     73  O         87.7030   22.8140   36.8220 O.2   136  PRO136     -0.2865
     74  CB        89.7290   20.8560   38.2940 C.3   136  PRO136      0.0296
     75  CG        90.5530   21.0880   39.5230 C.3   136  PRO136      0.0237
     76  CD        91.7310   21.9320   39.0380 C.3   136  PRO136      0.0939
     77  N         99.5530   25.5930   47.3190 N.3   182  GLU182     -0.1245
     78  CA       100.5850   26.5800   47.0170 C.3   182  GLU182      0.1567
     79  C        100.0080   27.8520   46.3390 C.2   182  GLU182      0.2260
     80  O         98.9100   27.8490   45.7770 O.2   182  GLU182     -0.2867
     81  CB       101.6800   25.9310   46.1480 C.3   182  GLU182      0.0388
     82  CG       101.2830   25.6520   44.6690 C.3   182  GLU182      0.1160
     83  CD       100.3590   24.4280   44.4560 C.2   182  GLU182      0.3649
     84  OE1       99.9780   23.7320   45.4240 O.co2 182  GLU182     -0.2457
     85  OE2      100.0090   24.1640   43.2890 O.co2 182  GLU182     -0.2457
     86  N         99.2470   31.3420   38.5350 N.3   186  ARG186     -0.1245
     87  CA        98.1470   30.5940   37.9140 C.3   186  ARG186      0.1563
     88  C         96.8440   30.8510   38.6720 C.2   186  ARG186      0.2260
     89  O         95.7850   30.9560   38.0670 O.2   186  ARG186     -0.2867
     90  CB        98.4150   29.0830   37.9050 C.3   186  ARG186      0.0307
     91  CG        99.5500   28.5850   36.9970 C.3   186  ARG186      0.0489
     92  CD        99.8540   27.0940   37.2980 C.3   186  ARG186      0.2205
     93  NE       100.0840   26.8630   38.7260 N.pl3 186  ARG186     -0.0865
     94  CZ        99.9140   25.6980   39.3500 C.cat 186  ARG186      0.5346
     95  NH1       99.5200   24.6080   38.6790 N.pl3 186  ARG186      0.1354
     96  NH2      100.1480   25.6170   40.6480 N.pl3 186  ARG186      0.1354
     97  N        108.4590   32.7110   32.3750 N.3   232  HIS232     -0.1241
     98  CA       107.9870   31.5320   31.6640 C.3   232  HIS232      0.1621
     99  C        106.6890   31.8650   30.9700 C.2   232  HIS232      0.2264
    100  O        105.8310   32.5390   31.5390 O.2   232  HIS232     -0.2867
    101  CB       107.7740   30.3460   32.6320 C.3   232  HIS232      0.0745
    102  CG       107.6410   29.0370   31.9290 C.ar  232  HIS232      0.0817
    103  ND1      106.4760   28.6520   31.3000 N.ar  232  HIS232     -0.2268
    104  CD2      108.5400   28.0470   31.7020 C.ar  232  HIS232      0.1154
    105  CE1      106.6600   27.4770   30.7270 C.ar  232  HIS232      0.1986
    106  NE2      107.9030   27.0880   30.9550 N.ar  232  HIS232     -0.2212
    107  N        108.1750   24.1410   21.6100 N.3   281  ASP281     -0.1239
    108  CA       107.1190   23.2410   22.0110 C.3   281  ASP281      0.1674
    109  C        105.8070   23.8080   21.5120 C.2   281  ASP281      0.2266
    110  O        105.4740   24.9820   21.7440 O.2   281  ASP281     -0.2867
    111  CB       107.0950   23.0620   23.5360 C.3   281  ASP281      0.1410
    112  CG       105.9260   22.2000   24.0240 C.2   281  ASP281      0.3668
    113  OD1      104.9230   21.9700   23.2830 O.co2 281  ASP281     -0.2456
    114  OD2      105.9960   21.7900   25.2010 O.co2 281  ASP281     -0.2456
    115  N        102.7330   23.5990   22.4100 N.3   283  CYS283     -0.1221
    116  CA       101.7210   24.2040   23.2980 C.3   283  CYS283      0.1808
    117  C        101.9620   25.7120   23.5210 C.2   283  CYS283      0.2601
    118  O        101.0360   26.4260   23.8640 O.2   283  CYS283     -0.2717
    119  CB       101.5780   23.4840   24.6520 C.3   283  CYS283      0.0970
    120  SG       103.0820   23.4830   25.6710 S.3   283  CYS283     -0.0800
    121  N        103.1950   26.1810   23.3300 N.am  284  TYR284     -0.1976
    122  CA       103.5050   27.6170   23.5290 C.3   284  TYR284      0.1639
    123  C        102.9920   28.4400   22.3560 C.2   284  TYR284      0.2290
    124  O        103.0200   29.6850   22.3820 O.2   284  TYR284     -0.2864
    125  CB       105.0000   27.8400   23.7350 C.3   284  TYR284      0.0560
    126  CG       105.4900   27.1660   24.9890 C.ar  284  TYR284     -0.0198
    127  CD1      106.5860   26.3290   24.9630 C.ar  284  TYR284     -0.0009
    128  CD2      104.8320   27.3510   26.1950 C.ar  284  TYR284     -0.0009
    129  CE1      107.0180   25.6870   26.1110 C.ar  284  TYR284      0.0417
    130  CE2      105.2660   26.7120   27.3640 C.ar  284  TYR284      0.0417
    131  CZ       106.3620   25.8940   27.3050 C.ar  284  TYR284      0.1957
    132  OH       106.8090   25.2520   28.4290 O.3   284  TYR284     -0.2866
    133  N        100.2630   29.6710   24.7700 N.3   287  TRP287     -0.1241
    134  CA       100.7490   30.4280   25.9240 C.3   287  TRP287      0.1605
    135  C        101.6160   31.6520   25.5590 C.2   287  TRP287      0.2264
    136  O        101.5070   32.6990   26.2070 O.2   287  TRP287     -0.2867
    137  CB       101.5070   29.5220   26.8980 C.3   287  TRP287      0.0550
    138  CG       100.7410   28.3130   27.3200 C.ar  287  TRP287      0.0003
    139  CD1      101.0790   27.0220   27.0660 C.ar  287  TRP287      0.0946
    140  CD2       99.4860   28.2700   28.0310 C.ar  287  TRP287      0.0152
    141  NE1      100.1370   26.1710   27.5870 N.ar  287  TRP287     -0.2442
    142  CE2       99.1500   26.9080   28.1910 C.ar  287  TRP287      0.0810
    143  CE3       98.6310   29.2460   28.5670 C.ar  287  TRP287      0.0012
    144  CZ2       97.9880   26.4860   28.8500 C.ar  287  TRP287      0.0191
    145  CZ3       97.4730   28.8300   29.2330 C.ar  287  TRP287      0.0001
    146  CH2       97.1590   27.4560   29.3620 C.ar  287  TRP287      0.0015
    147  N        103.7870   18.0970   20.9660 N.3   336  ASP336     -0.1239
    148  CA       104.7830   19.0620   21.4110 C.3   336  ASP336      0.1674
    149  C        105.8040   19.3580   20.2930 C.2   336  ASP336      0.2266
    150  O        105.9230   20.4880   19.8470 O.2   336  ASP336     -0.2867
    151  CB       105.3840   18.4880   22.7070 C.3   336  ASP336      0.1410
    152  CG       106.7490   19.0210   23.0570 C.2   336  ASP336      0.3668
    153  OD1      107.3550   19.8310   22.3230 O.co2 336  ASP336     -0.2456
    154  OD2      107.2240   18.5810   24.1160 O.co2 336  ASP336     -0.2456
    155  N        107.6160   13.2830   19.7170 N.3   340  LYS340     -0.1245
    156  CA       106.7560   13.1840   20.9040 C.3   340  LYS340      0.1561
    157  C        105.4210   12.5510   20.5370 C.2   340  LYS340      0.2260
    158  O        105.0250   12.5320   19.3730 O.2   340  LYS340     -0.2867
    159  CB       106.5270   14.5730   21.5380 C.3   340  LYS340      0.0271
    160  CG       107.7860   15.1990   22.0970 C.3   340  LYS340      0.0035
    161  CD       108.2130   14.4610   23.3690 C.3   340  LYS340      0.0206
    162  CE       109.7100   14.2850   23.4260 C.3   340  LYS340      0.1093
    163  NZ       110.4170   15.5350   23.7690 N.3   340  LYS340     -0.1314
    164  N         98.6090   14.0160   22.4120 N.3   343  ASP343     -0.1225
    165  CA        97.8190   14.0200   23.6210 C.3   343  ASP343      0.1805
    166  C         96.8010   15.1490   23.5160 C.2   343  ASP343      0.2598
    167  O         96.8990   16.0080   22.6170 O.2   343  ASP343     -0.2718
    168  CB        98.7240   14.1440   24.8490 C.3   343  ASP343      0.1424
    169  CG        99.5310   15.4430   24.8460 C.2   343  ASP343      0.3668
    170  OD1       98.8960   16.4940   24.8490 O.co2 343  ASP343     -0.2456
    171  OD2      100.7780   15.4120   24.8420 O.co2 343  ASP343     -0.2456
    172  N         95.8100   15.1540   24.3960 N.am  344  PHE344     -0.1962
    173  CA        94.7050   16.0880   24.2260 C.3   344  PHE344      0.1771
    174  C         95.0900   17.5300   24.6050 C.2   344  PHE344      0.2620
    175  O         94.4960   18.4900   24.1270 O.2   344  PHE344     -0.2715
    176  CB        93.4670   15.6040   24.9910 C.3   344  PHE344      0.0574
    177  CG        92.8740   14.3370   24.4130 C.ar  344  PHE344     -0.0200
    178  CD1       93.0270   13.1270   25.0610 C.ar  344  PHE344     -0.0042
    179  CD2       92.2150   14.3640   23.1970 C.ar  344  PHE344     -0.0042
    180  CE1       92.5030   11.9650   24.5040 C.ar  344  PHE344     -0.0003
    181  CE2       91.6910   13.1970   22.6360 C.ar  344  PHE344     -0.0003
    182  CZ        91.8400   12.0100   23.2890 C.ar  344  PHE344     -0.0000
    183  N         96.0990   17.6610   25.4510 N.am  345  TYR345     -0.1960
    184  CA        96.5490   18.9770   25.8920 C.3   345  TYR345      0.1771
    185  C         97.1540   19.7120   24.6840 C.2   345  TYR345      0.2619
    186  O         96.7530   20.8190   24.3670 O.2   345  TYR345     -0.2715
    187  CB        97.5660   18.8030   27.0190 C.3   345  TYR345      0.0574
    188  CG        98.4190   20.0150   27.3240 C.ar  345  TYR345     -0.0198
    189  CD1       97.9850   20.9790   28.2190 C.ar  345  TYR345     -0.0009
    190  CD2       99.6680   20.1790   26.7310 C.ar  345  TYR345     -0.0009
    191  CE1       98.7780   22.0930   28.5080 C.ar  345  TYR345      0.0417
    192  CE2      100.4540   21.2710   27.0100 C.ar  345  TYR345      0.0417
    193  CZ       100.0060   22.2230   27.8950 C.ar  345  TYR345      0.1957
    194  OH       100.8080   23.3000   28.1590 O.3   345  TYR345     -0.2866
    195  N         98.0910   19.0810   23.9910 N.am  346  HIS346     -0.1973
    196  CA        98.6870   19.7000   22.8210 C.3   346  HIS346      0.1656
    197  C         97.7210   19.8710   21.6710 C.2   346  HIS346      0.2291
    198  O         97.8510   20.7880   20.8610 O.2   346  HIS346     -0.2864
    199  CB        99.9270   18.9270   22.3850 C.3   346  HIS346      0.0771
    200  CG       101.0710   19.0980   23.3190 C.ar  346  HIS346      0.0820
    201  ND1      101.3020   18.2460   24.3800 N.ar  346  HIS346     -0.2267
    202  CD2      102.0380   20.0460   23.3730 C.ar  346  HIS346      0.1154
    203  CE1      102.3780   18.6500   25.0340 C.ar  346  HIS346      0.1986
    204  NE2      102.8330   19.7460   24.4500 N.ar  346  HIS346     -0.2212
    205  N         96.0320   23.1930   22.6410 N.3   349  TYR349     -0.1241
    206  CA        96.8450   24.4200   22.5530 C.3   349  TYR349      0.1605
    207  C         97.5510   24.6510   21.2180 C.2   349  TYR349      0.2264
    208  O         97.7880   25.8000   20.8430 O.2   349  TYR349     -0.2867
    209  CB        97.8110   24.5320   23.7510 C.3   349  TYR349      0.0534
    210  CG        97.0090   24.6700   25.0230 C.ar  349  TYR349     -0.0201
    211  CD1       96.9030   23.6170   25.9260 C.ar  349  TYR349     -0.0009
    212  CD2       96.2860   25.8280   25.2710 C.ar  349  TYR349     -0.0009
    213  CE1       96.1420   23.7300   27.0740 C.ar  349  TYR349      0.0417
    214  CE2       95.5120   25.9540   26.4140 C.ar  349  TYR349      0.0417
    215  CZ        95.4460   24.8950   27.3090 C.ar  349  TYR349      0.1957
    216  OH        94.6740   25.0150   28.4400 O.3   349  TYR349     -0.2866
@<TRIPOS>BOND
     1   158   157    2
     2   155   156    1
     3   150   149    2
     4   149   148    1
     5   157   156    1
     6   208   207    2
     7   198   197    2
     8   156   159    1
     9   147   148    1
    10   207   206    1
    11   148   151    1
    12   109   110    2
    13   109   108    1
    14   159   160    1
    15   107   108    1
    16   197   196    1
    17   108   111    1
    18   160   161    1
    19   153   152   ar
    20   123   124    2
    21   123   122    1
    22   199   196    1
    23   199   200    1
    24   115   116    1
    25   164   165    1
    26   206   205    1
    27   206   209    1
    28   167   166    2
    29   181   179   ar
    30   181   182   ar
    31   151   152    1
    32   196   195    1
    33   152   154   ar
    34   179   177   ar
    35   113   112   ar
    36   182   180   ar
    37   116   117    1
    38   116   119    1
    39   200   202   ar
    40   200   201   ar
    41   121   117   am
    42   121   122    1
    43   161   162    1
    44   202   204   ar
    45   162   163    1
    46   166   165    1
    47   166   172   am
    48   117   118    2
    49   122   125    1
    50   111   112    1
    51   165   168    1
    52   125   126    1
    53   209   210    1
    54    44    43    2
    55   195   185   am
    56   112   114   ar
    57   175   174    2
    58   173   172    1
    59   173   174    1
    60   173   176    1
    61   186   185    2
    62   201   203   ar
    63   177   176    1
    64   177   178   ar
    65   204   203   ar
    66   180   178   ar
    67   174   183   am
    68   119   120    1
    69   185   184    1
    70   133   134    1
    71   171   169   ar
    72   169   168    1
    73   169   170   ar
    74    43    42    1
    75   127   126   ar
    76   127   129   ar
    77   126   128   ar
    78   210   212   ar
    79   210   211   ar
    80   212   214   ar
    81   183   184    1
    82    12    11    1
    83   135   134    1
    84   135   136    2
    85   184   187    1
    86   134   137    1
    87   211   213   ar
    88    42    45    1
    89    42    41    1
    90   129   131   ar
    91   128   130   ar
    92   214   215   ar
    93    45    46    1
    94    11     9   ar
    95    11    10   ar
    96     9     7   ar
    97   190   192   ar
    98   190   188   ar
    99   137   138    1
   100   192   193   ar
   101   187   188    1
   102   139   138   ar
   103   139   141   ar
   104   213   215   ar
   105   131   130   ar
   106   131   132    1
   107   215   216    1
   108   138   140   ar
   109   188   189   ar
   110    46    47   ar
   111    46    48   ar
   112   141   142   ar
   113    47    49   ar
   114    10     8   ar
   115   193   194    1
   116   193   191   ar
   117     7     6   ar
   118   140   142   ar
   119   140   143   ar
   120   142   144   ar
   121   189   191   ar
   122    48    51   ar
   123    48    50   ar
   124   143   145   ar
   125    51    53   ar
   126    49    50   ar
   127   144   146   ar
   128     8     6   ar
   129     6     5    1
   130   145   146   ar
   131    50    52   ar
   132    30    29    2
   133    53    54   ar
   134    52    54   ar
   135     5     2    1
   136     1     2    1
   137   105   106   ar
   138   105   103   ar
   139    29    28    1
   140   106   104   ar
   141    99   100    2
   142    99    98    1
   143    19    18    1
   144     2     3    1
   145   103   102   ar
   146    98    97    1
   147    98   101    1
   148   104   102   ar
   149    37    39   ar
   150    37    34   ar
   151    39    40   ar
   152   102   101    1
   153    28    31    1
   154    28    27    1
   155    31    32    1
   156     3     4    2
   157    18    20    1
   158    18    17    1
   159    40    38   ar
   160    34    32   ar
   161    34    36   ar
   162    17    14    1
   163    32    33   ar
   164    24    23    2
   165    38    36   ar
   166    36    35   ar
   167    14    13    1
   168    14    15    1
   169    33    35   ar
   170    23    22    1
   171    16    15    2
   172    25    22    1
   173    25    26    1
   174    22    21    1
   175    68    67    2
   176    73    72    2
   177    91    92    1
   178    91    90    1
   179    92    93    1
   180    67    70   am
   181    67    66    1
   182    71    72    1
   183    71    70    1
   184    71    74    1
   185    90    87    1
   186    87    86    1
   187    87    88    1
   188    70    76    1
   189    69    66    1
   190    89    88    2
   191    66    65    1
   192    74    75    1
   193    95    94    1
   194    93    94    2
   195    76    75    1
   196    94    96    1
   197    58    57    2
   198    63    61   ar
   199    63    64   ar
   200    61    60   ar
   201    57    56    1
   202    64    62   ar
   203    60    59    1
   204    60    62   ar
   205    59    56    1
   206    56    55    1
   207    85    83   ar
   208    83    82    1
   209    83    84   ar
   210    82    81    1
   211    80    79    2
   212    81    78    1
   213    79    78    1
   214    78    77    1
