@<TRIPOS>MOLECULE
tmp/3e37B00.pdb
 235 233 0 0 0
SMALL
GASTEIGER

@<TRIPOS>ATOM
      1  N         33.3430  -70.6520    1.9400 N.3    79  TYR79      -0.1241
      2  CA        32.3600  -71.4490    2.6730 C.3    79  TYR79       0.1605
      3  C         32.3380  -71.1240    4.1660 C.2    79  TYR79       0.2264
      4  O         31.7030  -71.8270    4.9590 O.2    79  TYR79      -0.2867
      5  CB        32.6230  -72.9380    2.4710 C.3    79  TYR79       0.0534
      6  CG        32.3460  -73.3960    1.0530 C.ar   79  TYR79      -0.0201
      7  CD1       33.3280  -73.3030    0.0690 C.ar   79  TYR79      -0.0009
      8  CD2       31.1020  -73.8970    0.6950 C.ar   79  TYR79      -0.0009
      9  CE1       33.0810  -73.7170   -1.2280 C.ar   79  TYR79       0.0417
     10  CE2       30.8430  -74.3120   -0.6120 C.ar   79  TYR79       0.0417
     11  CZ        31.8360  -74.2260   -1.5620 C.ar   79  TYR79       0.1957
     12  OH        31.5920  -74.6400   -2.8600 O.3    79  TYR79      -0.2866
     13  N         29.1970  -71.2230    6.1190 N.3    82  LEU82      -0.1245
     14  CA        28.6190  -72.5110    6.4910 C.3    82  LEU82       0.1561
     15  C         29.4140  -73.1950    7.5960 C.2    82  LEU82       0.2260
     16  O         29.2830  -74.3930    7.8180 O.2    82  LEU82      -0.2867
     17  CB        28.5490  -73.4230    5.2630 C.3    82  LEU82       0.0270
     18  CG        27.5370  -72.9580    4.2150 C.3    82  LEU82       0.0019
     19  CD1       27.7210  -73.7920    2.9350 C.3    82  LEU82       0.0001
     20  CD2       26.1290  -73.0620    4.7480 C.3    82  LEU82       0.0001
     21  N         25.4830  -80.3280    7.6320 N.3    88  TRP88      -0.1241
     22  CA        24.6550  -80.1280    6.4340 C.3    88  TRP88       0.1605
     23  C         25.4300  -80.4280    5.1570 C.2    88  TRP88       0.2264
     24  O         24.9030  -81.0370    4.2200 O.2    88  TRP88      -0.2867
     25  CB        24.1190  -78.6970    6.3560 C.3    88  TRP88       0.0550
     26  CG        22.9000  -78.4990    7.1670 C.ar   88  TRP88       0.0003
     27  CD1       22.7290  -77.6310    8.2140 C.ar   88  TRP88       0.0946
     28  CD2       21.6490  -79.1830    7.0000 C.ar   88  TRP88       0.0152
     29  NE1       21.4420  -77.7430    8.7160 N.ar   88  TRP88      -0.2442
     30  CE2       20.7660  -78.6930    7.9870 C.ar   88  TRP88       0.0810
     31  CE3       21.1960  -80.1700    6.1160 C.ar   88  TRP88       0.0012
     32  CZ2       19.4550  -79.1510    8.1110 C.ar   88  TRP88       0.0191
     33  CZ3       19.8850  -80.6300    6.2470 C.ar   88  TRP88       0.0001
     34  CH2       19.0360  -80.1140    7.2240 C.ar   88  TRP88       0.0015
     35  N         24.0970  -83.0490    2.5510 N.3    92  TRP92      -0.1241
     36  CA        23.7310  -82.6400    1.1900 C.3    92  TRP92       0.1605
     37  C         24.5890  -83.3980    0.1730 C.2    92  TRP92       0.2264
     38  O         24.0870  -83.8850   -0.8500 O.2    92  TRP92      -0.2867
     39  CB        23.9550  -81.1400    0.9750 C.3    92  TRP92       0.0550
     40  CG        23.0560  -80.2390    1.7750 C.ar   92  TRP92       0.0003
     41  CD1       21.7740  -80.4850    2.1700 C.ar   92  TRP92       0.0946
     42  CD2       23.3880  -78.9300    2.2660 C.ar   92  TRP92       0.0152
     43  NE1       21.2850  -79.3990    2.8860 N.ar   92  TRP92      -0.2442
     44  CE2       22.2660  -78.4470    2.9730 C.ar   92  TRP92       0.0810
     45  CE3       24.5380  -78.1320    2.1920 C.ar   92  TRP92       0.0012
     46  CZ2       22.2450  -77.1880    3.5790 C.ar   92  TRP92       0.0191
     47  CZ3       24.5200  -76.8850    2.8140 C.ar   92  TRP92       0.0001
     48  CH2       23.3740  -76.4260    3.4910 C.ar   92  TRP92       0.0015
     49  N         18.9610  -78.7380   13.7020 N.3   137  ALA137     -0.1245
     50  CA        19.2100  -78.8200   12.2680 C.3   137  ALA137      0.1562
     51  C         20.4570  -79.6530   11.9490 C.2   137  ALA137      0.2260
     52  O         20.3760  -80.6350   11.2080 O.2   137  ALA137     -0.2867
     53  CB        19.2710  -77.4170   11.6350 C.3   137  ALA137      0.0290
     54  N         19.6580  -83.2890   12.8410 N.3   140  TYR140     -0.1241
     55  CA        18.9630  -83.9380   11.7310 C.3   140  TYR140      0.1605
     56  C         19.9380  -84.3250   10.6250 C.2   140  TYR140      0.2264
     57  O         19.9250  -85.4550   10.1380 O.2   140  TYR140     -0.2867
     58  CB        17.8980  -82.9960   11.1790 C.3   140  TYR140      0.0534
     59  CG        17.2900  -83.4090    9.8580 C.ar  140  TYR140     -0.0201
     60  CD1       16.1930  -84.2500    9.8170 C.ar  140  TYR140     -0.0009
     61  CD2       17.8040  -82.9390    8.6580 C.ar  140  TYR140     -0.0009
     62  CE1       15.6220  -84.6280    8.6000 C.ar  140  TYR140      0.0417
     63  CE2       17.2410  -83.2990    7.4390 C.ar  140  TYR140      0.0417
     64  CZ        16.1400  -84.1350    7.4230 C.ar  140  TYR140      0.1957
     65  OH        15.5810  -84.4730    6.2110 O.3   140  TYR140     -0.2866
     66  N         14.6460  -74.8300   18.5320 N.3   179  MET179     -0.1245
     67  CA        15.6410  -75.3570   17.5830 C.3   179  MET179      0.1570
     68  C         16.9370  -75.6820   18.3140 C.2   179  MET179      0.2261
     69  O         17.7200  -76.5470   17.8970 O.2   179  MET179     -0.2867
     70  CB        15.9330  -74.3240   16.4960 C.3   179  MET179      0.0387
     71  CG        14.8460  -74.2060   15.4360 C.3   179  MET179      0.0595
     72  SD        14.5060  -75.7660   14.5890 S.3   179  MET179     -0.1393
     73  CE        16.0190  -76.1590   13.7270 C.3   179  MET179      0.0692
     74  N         10.1310  -76.3260   11.8610 N.3   188  ARG188     -0.1245
     75  CA        11.3520  -77.0750   11.5690 C.3   188  ARG188      0.1563
     76  C         11.7100  -78.0110   12.7260 C.2   188  ARG188      0.2260
     77  O         12.1520  -79.1360   12.4950 O.2   188  ARG188     -0.2867
     78  CB        12.5390  -76.1310   11.3510 C.3   188  ARG188      0.0307
     79  CG        12.5020  -75.2780   10.0990 C.3   188  ARG188      0.0489
     80  CD        13.7310  -74.3350   10.0780 C.3   188  ARG188      0.2205
     81  NE        13.7080  -73.4040   11.2130 N.pl3 188  ARG188     -0.0865
     82  CZ        14.7760  -72.8170   11.7590 C.cat 188  ARG188      0.5346
     83  NH1       16.0040  -73.0480   11.2830 N.pl3 188  ARG188      0.1354
     84  NH2       14.6090  -71.9910   12.7930 N.pl3 188  ARG188      0.1354
     85  N          9.8350  -81.3510   13.0140 N.3   191  TYR191     -0.1227
     86  CA        10.2920  -82.3170   12.0200 C.3   191  TYR191      0.1736
     87  C         11.6760  -82.8760   12.3530 C.2   191  TYR191      0.2595
     88  O         11.9090  -84.0940   12.2770 O.2   191  TYR191     -0.2718
     89  CB        10.2950  -81.6910   10.6260 C.3   191  TYR191      0.0548
     90  CG        10.9480  -82.5740    9.5960 C.ar  191  TYR191     -0.0200
     91  CD1       10.3740  -83.7940    9.2270 C.ar  191  TYR191     -0.0009
     92  CD2       12.1460  -82.1980    9.0010 C.ar  191  TYR191     -0.0009
     93  CE1       10.9890  -84.6270    8.2770 C.ar  191  TYR191      0.0417
     94  CE2       12.7710  -83.0200    8.0540 C.ar  191  TYR191      0.0417
     95  CZ        12.1870  -84.2210    7.6960 C.ar  191  TYR191      0.1957
     96  OH        12.8130  -85.0200    6.7730 O.3   191  TYR191     -0.2866
     97  N         12.6140  -81.9980   12.6980 N.am  192  CYS192     -0.1970
     98  CA        13.9550  -82.4900   13.0580 C.3   192  CYS192      0.1712
     99  C         13.8460  -83.4970   14.1940 C.2   192  CYS192      0.2296
    100  O         14.4380  -84.5820   14.1260 O.2   192  CYS192     -0.2864
    101  CB        14.8810  -81.3520   13.4890 C.3   192  CYS192      0.0983
    102  SG        15.3620  -80.2790   12.1180 S.3   192  CYS192     -0.0798
    103  N          4.1380  -71.8770    3.4860 N.3   234  HIS234     -0.1241
    104  CA         5.4880  -71.8720    2.9570 C.3   234  HIS234      0.1621
    105  C          5.8660  -73.3380    2.7280 C.2   234  HIS234      0.2264
    106  O          5.7080  -74.1680    3.6110 O.2   234  HIS234     -0.2867
    107  CB         6.3650  -71.2070    4.0300 C.3   234  HIS234      0.0745
    108  CG         7.8310  -71.1570    3.7310 C.ar  234  HIS234      0.0817
    109  ND1        8.6040  -72.2870    3.5850 N.ar  234  HIS234     -0.2268
    110  CD2        8.6880  -70.1050    3.6780 C.ar  234  HIS234      0.1154
    111  CE1        9.8640  -71.9350    3.3960 C.ar  234  HIS234      0.1986
    112  NE2        9.9440  -70.6160    3.4520 N.ar  234  HIS234     -0.2212
    113  N          8.5990  -75.0580    2.5830 N.3   236  GLY236     -0.1210
    114  CA         9.5800  -75.6960    3.4810 C.3   236  GLY236      0.1956
    115  C          8.9540  -76.0890    4.8170 C.2   236  GLY236      0.2611
    116  O          9.1250  -77.2170    5.3050 O.2   236  GLY236     -0.2717
    117  N          8.2130  -75.1650    5.4080 N.am  237  TYR237     -0.1976
    118  CA         7.5640  -75.4280    6.6770 C.3   237  TYR237      0.1639
    119  C          6.4190  -76.4110    6.5020 C.2   237  TYR237      0.2290
    120  O          6.1000  -77.1810    7.4200 O.2   237  TYR237     -0.2864
    121  CB         7.0080  -74.1280    7.2680 C.3   237  TYR237      0.0560
    122  CG         8.0730  -73.1920    7.7760 C.ar  237  TYR237     -0.0198
    123  CD1        8.1860  -71.9060    7.2710 C.ar  237  TYR237     -0.0009
    124  CD2        8.9550  -73.5980    8.7670 C.ar  237  TYR237     -0.0009
    125  CE1        9.1730  -71.0420    7.7490 C.ar  237  TYR237      0.0417
    126  CE2        9.9370  -72.7530    9.2550 C.ar  237  TYR237      0.0417
    127  CZ        10.0330  -71.4750    8.7480 C.ar  237  TYR237      0.1957
    128  OH        11.0050  -70.6300    9.2350 O.3   237  TYR237     -0.2866
    129  N          7.9920  -79.8120    6.4280 N.3   240  CYS240     -0.1235
    130  CA         8.2960  -80.1400    7.8290 C.3   240  CYS240      0.1677
    131  C          7.0580  -80.5940    8.5930 C.2   240  CYS240      0.2270
    132  O          7.0940  -81.6150    9.2920 O.2   240  CYS240     -0.2867
    133  CB         8.8920  -78.9260    8.5470 C.3   240  CYS240      0.0956
    134  SG        10.6120  -78.6040    8.0420 S.3   240  CYS240     -0.0801
    135  N         11.8030  -72.0120   -7.8350 N.3   283  ASP283     -0.1239
    136  CA        13.1080  -72.2700   -7.2460 C.3   283  ASP283      0.1674
    137  C         13.3160  -73.7720   -7.2080 C.2   283  ASP283      0.2266
    138  O         12.4850  -74.5010   -6.6780 O.2   283  ASP283     -0.2867
    139  CB        13.1860  -71.6650   -5.8400 C.3   283  ASP283      0.1410
    140  CG        14.5000  -71.9750   -5.1160 C.2   283  ASP283      0.3668
    141  OD1       14.7620  -71.3090   -4.1040 O.co2 283  ASP283     -0.2456
    142  OD2       15.2520  -72.8780   -5.5020 O.co2 283  ASP283     -0.2456
    143  N         14.9930  -75.8060   -5.4000 N.3   285  CYS285     -0.1221
    144  CA        14.9660  -76.5880   -4.1630 C.3   285  CYS285      0.1808
    145  C         13.5290  -76.9730   -3.7600 C.2   285  CYS285      0.2601
    146  O         13.3250  -77.9940   -3.0850 O.2   285  CYS285     -0.2717
    147  CB        15.7010  -75.8770   -3.0070 C.3   285  CYS285      0.0970
    148  SG        14.9020  -74.3650   -2.4220 S.3   285  CYS285     -0.0800
    149  N         12.5390  -76.1880   -4.1830 N.am  286  TYR286     -0.1976
    150  CA        11.1370  -76.5450   -3.8930 C.3   286  TYR286      0.1639
    151  C         10.6600  -77.7400   -4.7120 C.2   286  TYR286      0.2290
    152  O          9.5670  -78.2570   -4.4720 O.2   286  TYR286     -0.2864
    153  CB        10.1770  -75.3300   -4.0200 C.3   286  TYR286      0.0560
    154  CG        10.4570  -74.3400   -2.9130 C.ar  286  TYR286     -0.0198
    155  CD1       11.1610  -73.1680   -3.1560 C.ar  286  TYR286     -0.0009
    156  CD2       10.0730  -74.6130   -1.6130 C.ar  286  TYR286     -0.0009
    157  CE1       11.4560  -72.2820   -2.1200 C.ar  286  TYR286      0.0417
    158  CE2       10.3620  -73.7400   -0.5750 C.ar  286  TYR286      0.0417
    159  CZ        11.0490  -72.5820   -0.8360 C.ar  286  TYR286      0.1957
    160  OH        11.3150  -71.7220    0.2120 O.3   286  TYR286     -0.2866
    161  N         10.8070  -79.7260   -1.4940 N.3   289  TRP289     -0.1241
    162  CA         9.9340  -79.3590   -0.3770 C.3   289  TRP289      0.1605
    163  C          8.4650  -79.4090   -0.7590 C.2   289  TRP289      0.2264
    164  O          7.6440  -79.8470    0.0470 O.2   289  TRP289     -0.2867
    165  CB        10.2770  -77.9710    0.1860 C.3   289  TRP289      0.0550
    166  CG        11.7150  -77.8220    0.5300 C.ar  289  TRP289      0.0003
    167  CD1       12.6080  -76.9810   -0.0720 C.ar  289  TRP289      0.0946
    168  CD2       12.4440  -78.5350    1.5340 C.ar  289  TRP289      0.0152
    169  NE1       13.8400  -77.1220    0.4980 N.ar  289  TRP289     -0.2442
    170  CE2       13.7710  -78.0580    1.4960 C.ar  289  TRP289      0.0810
    171  CE3       12.1040  -79.5230    2.4710 C.ar  289  TRP289      0.0012
    172  CZ2       14.7630  -78.5370    2.3470 C.ar  289  TRP289      0.0191
    173  CZ3       13.0920  -80.0000    3.3290 C.ar  289  TRP289      0.0001
    174  CH2       14.4210  -79.5050    3.2500 C.ar  289  TRP289      0.0015
    175  N         19.0850  -72.9770   -8.0370 N.3   338  ASP338     -0.1239
    176  CA        17.7620  -72.3920   -7.8450 C.3   338  ASP338      0.1674
    177  C         17.0370  -72.1430   -9.1870 C.2   338  ASP338      0.2266
    178  O         15.9480  -72.6770   -9.4400 O.2   338  ASP338     -0.2867
    179  CB        17.9990  -71.1090   -7.0300 C.3   338  ASP338      0.1410
    180  CG        16.8200  -70.1870   -6.9740 C.2   338  ASP338      0.3668
    181  OD1       15.8350  -70.3450   -7.7180 O.co2 338  ASP338     -0.2456
    182  OD2       16.9140  -69.2590   -6.1530 O.co2 338  ASP338     -0.2456
    183  N         25.2250  -74.5200   -5.5510 N.3   345  ASP345     -0.1225
    184  CA        25.6160  -74.7340   -4.1690 C.3   345  ASP345      0.1805
    185  C         25.1920  -76.1610   -3.8380 C.2   345  ASP345      0.2598
    186  O         24.4110  -76.7640   -4.5780 O.2   345  ASP345     -0.2718
    187  CB        24.9950  -73.6820   -3.2460 C.3   345  ASP345      0.1424
    188  CG        23.4780  -73.7400   -3.2240 C.2   345  ASP345      0.3668
    189  OD1       22.9370  -74.7860   -2.8050 O.co2 345  ASP345     -0.2456
    190  OD2       22.8320  -72.7400   -3.6220 O.co2 345  ASP345     -0.2456
    191  N         25.7150  -76.7100   -2.7490 N.am  346  PHE346     -0.1962
    192  CA        25.4450  -78.1060   -2.4300 C.3   346  PHE346      0.1771
    193  C         24.0130  -78.3530   -1.9520 C.2   346  PHE346      0.2620
    194  O         23.4860  -79.4480   -2.0940 O.2   346  PHE346     -0.2715
    195  CB        26.4540  -78.5920   -1.3960 C.3   346  PHE346      0.0574
    196  CG        27.8510  -78.6630   -1.9370 C.ar  346  PHE346     -0.0200
    197  CD1       28.8260  -77.7790   -1.5030 C.ar  346  PHE346     -0.0042
    198  CD2       28.1620  -79.5690   -2.9380 C.ar  346  PHE346     -0.0042
    199  CE1       30.1300  -77.8300   -2.0330 C.ar  346  PHE346     -0.0003
    200  CE2       29.4630  -79.6340   -3.4730 C.ar  346  PHE346     -0.0003
    201  CZ        30.4380  -78.7590   -3.0110 C.ar  346  PHE346     -0.0000
    202  N         23.3990  -77.3270   -1.3770 N.am  347  TYR347     -0.1960
    203  CA        22.0150  -77.4250   -0.9160 C.3   347  TYR347      0.1771
    204  C         21.0810  -77.6010   -2.1160 C.2   347  TYR347      0.2619
    205  O         20.2640  -78.5180   -2.1320 O.2   347  TYR347     -0.2715
    206  CB        21.6510  -76.1870   -0.0800 C.3   347  TYR347      0.0574
    207  CG        20.1760  -75.9190    0.0710 C.ar  347  TYR347     -0.0198
    208  CD1       19.4670  -76.4180    1.1490 C.ar  347  TYR347     -0.0009
    209  CD2       19.4940  -75.1490   -0.8720 C.ar  347  TYR347     -0.0009
    210  CE1       18.1020  -76.1640    1.2870 C.ar  347  TYR347      0.0417
    211  CE2       18.1340  -74.8890   -0.7440 C.ar  347  TYR347      0.0417
    212  CZ        17.4530  -75.4010    0.3390 C.ar  347  TYR347      0.1957
    213  OH        16.1110  -75.1540    0.4780 O.3   347  TYR347     -0.2866
    214  N         21.2240  -76.7560   -3.1370 N.am  348  HIS348     -0.1973
    215  CA        20.3960  -76.9200   -4.3430 C.3   348  HIS348      0.1656
    216  C         20.7220  -78.1960   -5.1040 C.2   348  HIS348      0.2291
    217  O         19.8510  -78.7950   -5.7280 O.2   348  HIS348     -0.2864
    218  CB        20.4280  -75.6750   -5.2550 C.3   348  HIS348      0.0771
    219  CG        19.6200  -74.5420   -4.7120 C.ar  348  HIS348      0.0820
    220  ND1       20.1830  -73.5000   -4.0070 N.ar  348  HIS348     -0.2267
    221  CD2       18.2810  -74.3230   -4.7110 C.ar  348  HIS348      0.1154
    222  CE1       19.2260  -72.6770   -3.6060 C.ar  348  HIS348      0.1986
    223  NE2       18.0630  -73.1530   -4.0210 N.ar  348  HIS348     -0.2212
    224  N         18.6610  -80.8500   -3.1680 N.3   351  TYR351     -0.1241
    225  CA        17.1970  -80.8270   -3.2490 C.3   351  TYR351      0.1605
    226  C         16.6410  -80.8730   -4.6760 C.2   351  TYR351      0.2264
    227  O         15.5560  -81.4260   -4.9000 O.2   351  TYR351     -0.2867
    228  CB        16.6120  -79.6820   -2.3990 C.3   351  TYR351      0.0534
    229  CG        16.8480  -79.9950   -0.9350 C.ar  351  TYR351     -0.0201
    230  CD1       17.8560  -79.3570   -0.2180 C.ar  351  TYR351     -0.0009
    231  CD2       16.1310  -81.0100   -0.3070 C.ar  351  TYR351     -0.0009
    232  CE1       18.1080  -79.6940    1.1130 C.ar  351  TYR351      0.0417
    233  CE2       16.3580  -81.3350    1.0340 C.ar  351  TYR351      0.0417
    234  CZ        17.3510  -80.6760    1.7260 C.ar  351  TYR351      0.1957
    235  OH        17.5880  -80.9970    3.0450 O.3   351  TYR351     -0.2866
@<TRIPOS>BOND
     1   178   177    2
     2   177   176    1
     3   175   176    1
     4   176   179    1
     5   135   136    1
     6   181   180   ar
     7   136   137    1
     8   136   139    1
     9   137   138    2
    10   179   180    1
    11   180   182   ar
    12   139   140    1
    13   217   216    2
    14   183   184    1
    15   142   140   ar
    16   143   144    1
    17   218   219    1
    18   218   215    1
    19   140   141   ar
    20   216   215    1
    21   227   226    2
    22   151   152    2
    23   151   150    1
    24   219   221   ar
    25   219   220   ar
    26   221   223   ar
    27   226   225    1
    28   186   185    2
    29   215   214    1
    30   149   150    1
    31   149   145   am
    32   184   185    1
    33   184   187    1
    34   144   145    1
    35   144   147    1
    36   223   222   ar
    37   153   150    1
    38   153   154    1
    39   220   222   ar
    40   185   191   am
    41   145   146    2
    42   190   188   ar
    43   200   201   ar
    44   200   198   ar
    45   225   224    1
    46   225   228    1
    47   187   188    1
    48   188   189   ar
    49   155   154   ar
    50   155   157   ar
    51   214   204   am
    52   201   199   ar
    53   147   148    1
    54   198   196   ar
    55   154   156   ar
    56    12    11    1
    57   191   192    1
    58   192   193    1
    59   192   195    1
    60   228   229    1
    61   205   204    2
    62   157   159   ar
    63   204   203    1
    64   194   193    2
    65   199   197   ar
    66   193   202   am
    67   196   197   ar
    68   196   195    1
    69   156   158   ar
    70    11     9   ar
    71    11    10   ar
    72   161   162    1
    73   202   203    1
    74     9     7   ar
    75   229   231   ar
    76   229   230   ar
    77   203   206    1
    78   209   211   ar
    79   209   207   ar
    80    38    37    2
    81   159   158   ar
    82   159   160    1
    83   163   162    1
    84   163   164    2
    85   211   212   ar
    86    10     8   ar
    87   162   165    1
    88   231   233   ar
    89   230   232   ar
    90   206   207    1
    91   167   169   ar
    92   167   166   ar
    93     7     6   ar
    94   207   208   ar
    95    37    36    1
    96   165   166    1
    97   212   213    1
    98   212   210   ar
    99   169   170   ar
   100   166   168   ar
   101     8     6   ar
   102    39    36    1
   103    39    40    1
   104   233   234   ar
   105     6     5    1
   106   232   234   ar
   107   208   210   ar
   108    36    35    1
   109   170   168   ar
   110   170   172   ar
   111   168   171   ar
   112   234   235    1
   113    40    41   ar
   114    40    42   ar
   115     1     2    1
   116    41    43   ar
   117    45    42   ar
   118    45    47   ar
   119    42    44   ar
   120   172   174   ar
   121     5     2    1
   122   171   173   ar
   123   113   114    1
   124     2     3    1
   125   105   104    1
   126   105   106    2
   127    47    48   ar
   128    43    44   ar
   129    19    18    1
   130   104   103    1
   131   104   107    1
   132    44    46   ar
   133   174   173   ar
   134   111   112   ar
   135   111   109   ar
   136   112   110   ar
   137   114   115    1
   138    48    46   ar
   139   109   108   ar
   140   110   108   ar
   141   108   107    1
   142     3     4    2
   143    18    20    1
   144    18    17    1
   145    24    23    2
   146   115   116    2
   147   115   117   am
   148    23    22    1
   149    17    14    1
   150   117   118    1
   151    31    33   ar
   152    31    28   ar
   153    13    14    1
   154    65    64    1
   155    33    34   ar
   156    25    22    1
   157    25    26    1
   158   129   130    1
   159    22    21    1
   160    14    15    1
   161   119   118    1
   162   119   120    2
   163   118   121    1
   164    96    95    1
   165    28    26   ar
   166    28    30   ar
   167    26    27   ar
   168    34    32   ar
   169   121   122    1
   170   123   125   ar
   171   123   122   ar
   172    64    63   ar
   173    64    62   ar
   174    63    61   ar
   175    15    16    2
   176    95    94   ar
   177    95    93   ar
   178   125   127   ar
   179   122   124   ar
   180   130   133    1
   181   130   131    1
   182    30    32   ar
   183    30    29   ar
   184   134   133    1
   185    94    92   ar
   186    27    29   ar
   187    93    91   ar
   188   131   132    2
   189    62    60   ar
   190    61    59   ar
   191   127   128    1
   192   127   126   ar
   193   124   126   ar
   194    92    90   ar
   195    91    90   ar
   196    90    89    1
   197    60    59   ar
   198    59    58    1
   199    80    79    1
   200    80    81    1
   201    79    78    1
   202    57    56    2
   203    56    55    1
   204    89    86    1
   205    58    55    1
   206    52    51    2
   207    81    82    2
   208    83    82    1
   209    78    75    1
   210    75    74    1
   211    75    76    1
   212    53    50    1
   213    55    54    1
   214    82    84    1
   215    51    50    1
   216    86    87    1
   217    86    85    1
   218   102   101    1
   219    50    49    1
   220    88    87    2
   221    87    97   am
   222    77    76    2
   223    97    98    1
   224    98   101    1
   225    98    99    1
   226    73    72    1
   227   100    99    2
   228    72    71    1
   229    71    70    1
   230    70    67    1
   231    67    68    1
   232    67    66    1
   233    69    68    2
