@<TRIPOS>MOLECULE
tmp/3e39A01.pdb
 87 85 0 0 0
SMALL
GASTEIGER

@<TRIPOS>ATOM
      1  N         32.0950   76.5220   -4.4600 N.3    37  TRP37      -0.1241
      2  CA        32.2430   76.7040   -5.9120 C.3    37  TRP37       0.1605
      3  C         31.0730   76.1540   -6.7500 C.2    37  TRP37       0.2264
      4  O         31.0640   76.2900   -7.9760 O.2    37  TRP37      -0.2867
      5  CB        33.6230   76.2650   -6.4180 C.3    37  TRP37       0.0550
      6  CG        34.6250   77.3580   -6.1370 C.ar   37  TRP37       0.0003
      7  CD1       35.4070   77.4850   -5.0270 C.ar   37  TRP37       0.0946
      8  CD2       34.8330   78.5500   -6.9070 C.ar   37  TRP37       0.0152
      9  NE1       36.1280   78.6400   -5.0910 N.ar   37  TRP37      -0.2442
     10  CE2       35.7920   79.3200   -6.2320 C.ar   37  TRP37       0.0810
     11  CE3       34.3330   79.0170   -8.1160 C.ar   37  TRP37       0.0012
     12  CZ2       36.2400   80.5360   -6.7190 C.ar   37  TRP37       0.0191
     13  CZ3       34.7540   80.2110   -8.5950 C.ar   37  TRP37       0.0001
     14  CH2       35.7120   80.9760   -7.8980 C.ar   37  TRP37       0.0015
     15  N         27.4670   76.5840   -8.3330 N.3    39  PRO39      -0.2102
     16  CA        26.8220   77.8190   -8.8030 C.3    39  PRO39       0.1504
     17  C         25.6090   78.2300   -7.9430 C.2    39  PRO39       0.2576
     18  O         25.0600   77.4350   -7.1860 O.2    39  PRO39      -0.2718
     19  CB        26.3670   77.4370  -10.2120 C.3    39  PRO39       0.0282
     20  CG        26.0870   75.9540  -10.0970 C.3    39  PRO39       0.0208
     21  CD        27.1770   75.4370   -9.2130 C.3    39  PRO39       0.0893
     22  N         25.2210   79.4950   -8.0500 N.am   40  SER40      -0.1938
     23  CA        24.0410   80.0070   -7.3980 C.3    40  SER40       0.2055
     24  C         23.4660   81.0950   -8.2830 C.2    40  SER40       0.2644
     25  O         24.1900   81.7720   -9.0350 O.2    40  SER40      -0.2714
     26  CB        24.3630   80.5530   -5.9990 C.3    40  SER40       0.2130
     27  OG        25.1920   81.7020   -6.0370 O.3    40  SER40      -0.2179
     28  N         22.1580   81.2800   -8.2070 N.am   41  GLY41      -0.1939
     29  CA        21.5240   82.3760   -8.9340 C.3    41  GLY41       0.2014
     30  C         22.1370   83.7160   -8.4980 C.2    41  GLY41       0.2639
     31  O         22.4310   83.9480   -7.3140 O.2    41  GLY41      -0.2714
     32  N         22.4300   84.5370   -9.4820 N.am   42  LEU42      -0.1963
     33  CA        22.9640   85.8660   -9.3150 C.3    42  LEU42       0.1728
     34  C         24.3490   85.8440   -8.6790 C.2    42  LEU42       0.2616
     35  O         24.8930   86.8940   -8.3470 O.2    42  LEU42      -0.2715
     36  CB        21.9980   86.7080   -8.4660 C.3    42  LEU42       0.0311
     37  CG        20.5080   86.6930   -8.8160 C.3    42  LEU42       0.0022
     38  CD1       19.7170   87.4350   -7.7380 C.3    42  LEU42       0.0001
     39  CD2       20.2970   87.2860  -10.1590 C.3    42  LEU42       0.0001
     40  N         24.9460   84.6590   -8.5560 N.am   43  ASN43      -0.1972
     41  CA        26.1700   84.4870   -7.7960 C.3    43  ASN43       0.1688
     42  C         25.9860   85.0790   -6.3850 C.2    43  ASN43       0.2292
     43  O         26.9280   85.6600   -5.7950 O.2    43  ASN43      -0.2864
     44  CB        27.4090   85.1060   -8.4940 C.3    43  ASN43       0.1181
     45  CG        28.7330   84.6170   -7.9020 C.2    43  ASN43       0.2629
     46  OD1       28.8310   83.5030   -7.3910 O.2    43  ASN43      -0.2716
     47  ND2       29.7850   85.4380   -8.0250 N.am   43  ASN43      -0.0877
     48  N         17.1300   84.6340   -2.9780 N.3    88  TYR88      -0.1241
     49  CA        16.3330   85.4210   -3.9510 C.3    88  TYR88       0.1605
     50  C         15.1170   84.6780   -4.4850 C.2    88  TYR88       0.2264
     51  O         14.1890   85.2760   -5.0630 O.2    88  TYR88      -0.2867
     52  CB        17.1910   85.8860   -5.1290 C.3    88  TYR88       0.0534
     53  CG        17.4070   84.8460   -6.2330 C.ar   88  TYR88      -0.0201
     54  CD1       18.1890   83.7140   -6.0130 C.ar   88  TYR88      -0.0009
     55  CD2       16.8580   85.0110   -7.5050 C.ar   88  TYR88      -0.0009
     56  CE1       18.3990   82.7550   -7.0200 C.ar   88  TYR88       0.0417
     57  CE2       17.0890   84.0660   -8.5270 C.ar   88  TYR88       0.0417
     58  CZ        17.8740   82.9520   -8.2740 C.ar   88  TYR88       0.1957
     59  OH        18.1010   82.0010   -9.2590 O.3    88  TYR88      -0.2866
     60  N         14.9680   77.9950   -6.3770 N.3    92  LYS92      -0.1245
     61  CA        16.3050   78.0980   -6.9900 C.3    92  LYS92       0.1561
     62  C         17.4620   78.0230   -5.9850 C.2    92  LYS92       0.2260
     63  O         18.5330   77.5160   -6.2970 O.2    92  LYS92      -0.2867
     64  CB        16.3960   79.3370   -7.8820 C.3    92  LYS92       0.0271
     65  CG        15.4460   79.2410   -9.0840 C.3    92  LYS92       0.0035
     66  CD        15.5480   80.4660   -9.9570 C.3    92  LYS92       0.0206
     67  CE        14.2290   80.9050  -10.4280 C.3    92  LYS92       0.1093
     68  NZ        14.3190   82.0580  -11.3330 N.3    92  LYS92      -0.1314
     69  N         17.7890   74.5030   -4.9730 N.3    95  GLN95      -0.1231
     70  CA        18.5130   73.8280   -6.0490 C.3    95  GLN95       0.1698
     71  C         20.0110   74.1010   -5.9110 C.2    95  GLN95       0.2592
     72  O         20.8510   73.1930   -6.0290 O.2    95  GLN95      -0.2718
     73  CB        18.0430   74.3050   -7.4330 C.3    95  GLN95       0.0381
     74  CG        16.6350   73.9030   -7.8040 C.3    95  GLN95       0.0905
     75  CD        16.1660   74.6010   -9.0760 C.2    95  GLN95       0.2608
     76  OE1       16.7340   75.6090   -9.4720 O.2    95  GLN95      -0.2717
     77  NE2       15.0770   74.0900   -9.6880 N.am   95  GLN95      -0.0878
     78  N         20.3580   75.3350   -5.5790 N.am   96  ALA96      -0.1980
     79  CA        21.7710   75.6890   -5.3940 C.3    96  ALA96       0.1597
     80  C         22.3810   74.9150   -4.2230 C.2    96  ALA96       0.2287
     81  O         23.5310   74.4860   -4.3140 O.2    96  ALA96      -0.2864
     82  CB        21.9330   77.1460   -5.1670 C.3    96  ALA96       0.0319
     83  N         23.1540   71.5880   -5.4380 N.3    99  ALA99      -0.1245
     84  CA        24.3710   71.5960   -6.2790 C.3    99  ALA99       0.1562
     85  C         25.6170   71.6520   -5.3950 C.2    99  ALA99       0.2260
     86  O         26.6330   70.9890   -5.6850 O.2    99  ALA99      -0.2867
     87  CB        24.3370   72.7360   -7.2690 C.3    99  ALA99       0.0290
@<TRIPOS>BOND
     1    68    67    1
     2    67    66    1
     3    19    20    1
     4    19    16    1
     5    39    37    1
     6    20    21    1
     7    66    65    1
     8    77    75   am
     9    32    33    1
    10    32    30   am
    11    76    75    2
    12    33    34    1
    13    33    36    1
    14    59    58    1
    15    21    15    1
    16    65    64    1
    17    75    74    1
    18    25    24    2
    19    29    30    1
    20    29    28    1
    21    37    36    1
    22    37    38    1
    23    16    15    1
    24    16    17    1
    25    34    40   am
    26    34    35    2
    27    13    11   ar
    28    13    14   ar
    29    40    41    1
    30    57    58   ar
    31    57    55   ar
    32    30    31    2
    33    44    45    1
    34    44    41    1
    35    24    28   am
    36    24    23    1
    37    58    56   ar
    38    11     8   ar
    39    22    17   am
    40    22    23    1
    41    47    45   am
    42     4     3    2
    43    17    18    2
    44    45    46    2
    45    14    12   ar
    46    64    61    1
    47    74    73    1
    48    41    42    1
    49    55    53   ar
    50    73    70    1
    51    23    26    1
    52    87    84    1
    53    56    54   ar
    54    61    60    1
    55    61    62    1
    56     8    10   ar
    57     8     6   ar
    58     3     2    1
    59    12    10   ar
    60     5     6    1
    61     5     2    1
    62    42    43    2
    63    63    62    2
    64    84    83    1
    65    84    85    1
    66    53    54   ar
    67    53    52    1
    68    10     9   ar
    69     6     7   ar
    70    70    71    1
    71    70    69    1
    72    27    26    1
    73    72    71    2
    74     2     1    1
    75    71    78   am
    76    86    85    2
    77    78    79    1
    78    79    82    1
    79    79    80    1
    80    52    49    1
    81     9     7   ar
    82    51    50    2
    83    50    49    1
    84    81    80    2
    85    49    48    1
