@<TRIPOS>MOLECULE
tmp/3e39A00.pdb
 132 128 0 0 0
SMALL
GASTEIGER

@<TRIPOS>ATOM
      1  N         30.0400   57.4230   -7.4960 N.3    12  ARG12      -0.1231
      2  CA        29.7510   57.9870   -6.1880 C.3    12  ARG12       0.1694
      3  C         28.5620   57.2510   -5.5810 C.2    12  ARG12       0.2592
      4  O         27.4910   57.1710   -6.1950 O.2    12  ARG12      -0.2718
      5  CB        29.3410   59.4390   -6.3220 C.3    12  ARG12       0.0321
      6  CG        28.8650   60.1000   -5.0110 C.3    12  ARG12       0.0489
      7  CD        27.7020   61.1280   -5.2560 C.3    12  ARG12       0.2205
      8  NE        26.6060   60.4860   -5.9940 N.pl3  12  ARG12      -0.0865
      9  CZ        25.6290   59.7660   -5.4480 C.cat  12  ARG12       0.5346
     10  NH1       25.5940   59.5550   -4.1310 N.pl3  12  ARG12       0.1354
     11  NH2       24.7260   59.2000   -6.2270 N.pl3  12  ARG12       0.1354
     12  N         28.7260   56.7670   -4.3510 N.am   13  ARG13      -0.1966
     13  CA        27.6530   56.0910   -3.6550 C.3    13  ARG13       0.1729
     14  C         27.4390   56.6990   -2.2680 C.2    13  ARG13       0.2616
     15  O         28.3560   57.2860   -1.6660 O.2    13  ARG13      -0.2715
     16  CB        27.9900   54.6000   -3.4360 C.3    13  ARG13       0.0348
     17  CG        28.0700   53.6940   -4.6620 C.3    13  ARG13       0.0492
     18  CD        26.7380   53.1240   -5.1120 C.3    13  ARG13       0.2205
     19  NE        25.8310   54.1390   -5.6430 N.pl3  13  ARG13      -0.0865
     20  CZ        25.9520   54.6820   -6.8520 C.cat  13  ARG13       0.5346
     21  NH1       26.9550   54.3560   -7.6310 N.pl3  13  ARG13       0.1354
     22  NH2       25.0790   55.6110   -7.2560 N.pl3  13  ARG13       0.1354
     23  N         26.2240   56.5410   -1.7640 N.am   14  SER14      -0.1950
     24  CA        25.9550   56.8880   -0.3790 C.3    14  SER14       0.1924
     25  C         26.6290   55.7910    0.4670 C.2    14  SER14       0.2314
     26  O         26.2690   54.6150    0.3860 O.2    14  SER14      -0.2863
     27  CB        24.4650   56.9270   -0.0720 C.3    14  SER14       0.2116
     28  OG        23.8390   58.0340   -0.6820 O.3    14  SER14      -0.2180
     29  N         27.4830   54.7610    4.3290 N.3    16  ARG16      -0.1245
     30  CA        26.9280   54.9750    5.6610 C.3    16  ARG16       0.1563
     31  C         27.6880   54.3250    6.8250 C.2    16  ARG16       0.2260
     32  O         27.2430   54.3990    7.9760 O.2    16  ARG16      -0.2867
     33  CB        25.4760   54.4910    5.6430 C.3    16  ARG16       0.0307
     34  CG        24.6020   55.1570    4.5550 C.3    16  ARG16       0.0489
     35  CD        23.1900   54.5760    4.4930 C.3    16  ARG16       0.2205
     36  NE        22.2920   55.3700    3.6310 N.pl3  16  ARG16      -0.0865
     37  CZ        22.1270   55.1760    2.3200 C.cat  16  ARG16       0.5346
     38  NH1       22.8270   54.2620    1.6590 N.pl3  16  ARG16       0.1354
     39  NH2       21.3110   55.9540    1.6550 N.pl3  16  ARG16       0.1354
     40  N         18.4400   58.5090   11.9390 N.3    68  TYR68      -0.1241
     41  CA        19.6850   57.9610   11.4190 C.3    68  TYR68       0.1605
     42  C         20.8700   58.2270   12.3410 C.2    68  TYR68       0.2264
     43  O         21.9570   58.6170   11.9060 O.2    68  TYR68      -0.2867
     44  CB        19.9580   58.5130   10.0340 C.3    68  TYR68       0.0534
     45  CG        18.9160   58.1200    9.0270 C.ar   68  TYR68      -0.0201
     46  CD1       19.0490   56.9450    8.2970 C.ar   68  TYR68      -0.0009
     47  CD2       17.7940   58.9130    8.8030 C.ar   68  TYR68      -0.0009
     48  CE1       18.1020   56.5730    7.3740 C.ar   68  TYR68       0.0417
     49  CE2       16.8330   58.5410    7.8790 C.ar   68  TYR68       0.0417
     50  CZ        17.0090   57.3500    7.1770 C.ar   68  TYR68       0.1957
     51  OH        16.1020   56.9490    6.2590 O.3    68  TYR68      -0.2866
     52  N         24.3500   56.3980   11.6290 N.3    71  ILE71      -0.1245
     53  CA        25.1890   57.0780   10.6580 C.3    71  ILE71       0.1561
     54  C         25.8640   58.2670   11.3420 C.2    71  ILE71       0.2260
     55  O         27.0750   58.4470   11.2440 O.2    71  ILE71      -0.2867
     56  CB        24.3510   57.5760    9.4350 C.3    71  ILE71       0.0252
     57  CG1       23.7590   56.3760    8.6730 C.3    71  ILE71       0.0019
     58  CG2       25.2280   58.4620    8.4910 C.3    71  ILE71       0.0019
     59  CD1       22.7990   56.7470    7.5340 C.3    71  ILE71       0.0001
     60  N         27.4640   60.3470    2.8810 N.3   115  VAL115     -0.1231
     61  CA        26.0390   60.2390    2.6370 C.3   115  VAL115      0.1692
     62  C         25.3040   61.5650    2.9520 C.2   115  VAL115      0.2592
     63  O         25.5680   62.2410    3.9750 O.2   115  VAL115     -0.2718
     64  CB        25.3820   59.0260    3.3750 C.3   115  VAL115      0.0266
     65  CG1       25.6080   59.1060    4.9230 C.3   115  VAL115      0.0020
     66  CG2       23.8930   58.9320    3.0210 C.3   115  VAL115      0.0020
     67  N         24.4230   61.9300    2.0200 N.am  116  TRP116     -0.1962
     68  CA        23.5560   63.0980    2.1110 C.3   116  TRP116      0.1771
     69  C         22.4560   62.7180    3.0770 C.2   116  TRP116      0.2619
     70  O         21.7480   61.7610    2.8370 O.2   116  TRP116     -0.2715
     71  CB        22.9440   63.3330    0.7380 C.3   116  TRP116      0.0590
     72  CG        22.0490   64.5140    0.5640 C.ar  116  TRP116      0.0006
     73  CD1       21.1900   65.0750    1.4660 C.ar  116  TRP116      0.0946
     74  CD2       21.8690   65.2200   -0.6570 C.ar  116  TRP116      0.0152
     75  NE1       20.5020   66.1140    0.8810 N.ar  116  TRP116     -0.2442
     76  CE2       20.9130   66.2290   -0.4250 C.ar  116  TRP116      0.0810
     77  CE3       22.4320   65.1000   -1.9330 C.ar  116  TRP116      0.0012
     78  CZ2       20.5060   67.1220   -1.4230 C.ar  116  TRP116      0.0191
     79  CZ3       22.0270   66.0020   -2.9240 C.ar  116  TRP116      0.0001
     80  CH2       21.0830   66.9880   -2.6620 C.ar  116  TRP116      0.0015
     81  N         22.3140   63.4470    4.1760 N.am  117  LEU117     -0.1963
     82  CA        21.2540   63.1750    5.1330 C.3   117  LEU117      0.1728
     83  C         20.2410   64.3130    5.0750 C.2   117  LEU117      0.2617
     84  O         20.5980   65.4610    5.3150 O.2   117  LEU117     -0.2715
     85  CB        21.8090   63.0370    6.5470 C.3   117  LEU117      0.0311
     86  CG        22.7520   61.8660    6.8110 C.3   117  LEU117      0.0022
     87  CD1       23.2610   61.8960    8.2640 C.3   117  LEU117      0.0001
     88  CD2       22.0920   60.5610    6.5220 C.3   117  LEU117      0.0001
     89  N         19.0000   63.9880    4.6990 N.am  118  GLY118     -0.1940
     90  CA        17.9050   64.9630    4.5910 C.3   118  GLY118      0.2014
     91  C         16.7450   64.7400    5.5500 C.2   118  GLY118      0.2639
     92  O         16.0100   65.6500    5.8630 O.2   118  GLY118     -0.2714
     93  N         16.5590   63.5240    6.0340 N.am  119  GLU119     -0.1963
     94  CA        15.5120   63.3110    7.0270 C.3   119  GLU119      0.1733
     95  C         15.7380   64.2030    8.2410 C.2   119  GLU119      0.2616
     96  O         14.7820   64.6620    8.8760 O.2   119  GLU119     -0.2715
     97  CB        15.4670   61.8270    7.4020 C.3   119  GLU119      0.0429
     98  CG        14.6470   61.4880    8.6440 C.3   119  GLU119      0.1163
     99  CD        15.4300   61.6230    9.9580 C.2   119  GLU119      0.3649
    100  OE1       16.6390   61.9390    9.9300 O.co2 119  GLU119     -0.2457
    101  OE2       14.8120   61.3860   11.0090 O.co2 119  GLU119     -0.2457
    102  N         16.9960   64.5110    8.5270 N.am  120  ILE120     -0.1977
    103  CA        17.3560   65.2820    9.6940 C.3   120  ILE120      0.1596
    104  C         16.8090   66.7070    9.6390 C.2   120  ILE120      0.2287
    105  O         16.5270   67.3100   10.6870 O.2   120  ILE120     -0.2864
    106  CB        18.9030   65.2480    9.9650 C.3   120  ILE120      0.0276
    107  CG1       19.2240   65.8630   11.3470 C.3   120  ILE120      0.0022
    108  CG2       19.7410   65.9160    8.8250 C.3   120  ILE120      0.0022
    109  CD1       20.5940   65.4910   11.8600 C.3   120  ILE120      0.0001
    110  N         25.6530   50.5580   -2.8160 N.3   154  SER154     -0.1202
    111  CA        25.0110   49.9990   -3.9980 C.3   154  SER154      0.2020
    112  C         23.7030   50.7500   -4.1950 C.2   154  SER154      0.2619
    113  O         23.0630   51.1690   -3.2240 O.2   154  SER154     -0.2717
    114  CB        24.7370   48.4940   -3.8490 C.3   154  SER154      0.2103
    115  OG        23.5860   48.2650   -3.0410 O.3   154  SER154     -0.2182
    116  N         23.3120   50.9340   -5.4520 N.am  155  SER155     -0.1951
    117  CA        22.0540   51.6000   -5.7800 C.3   155  SER155      0.1924
    118  C         21.6720   51.2330   -7.2090 C.2   155  SER155      0.2314
    119  O         22.3960   50.4820   -7.8860 O.2   155  SER155     -0.2863
    120  CB        22.1910   53.1240   -5.6260 C.3   155  SER155      0.2116
    121  OG        20.9600   53.7870   -5.7790 O.3   155  SER155     -0.2180
    122  N         19.4130   52.9300  -10.8530 N.3   157  ARG157     -0.1245
    123  CA        18.6960   54.0440  -11.4780 C.3   157  ARG157      0.1563
    124  C         17.8340   53.4900  -12.5920 C.2   157  ARG157      0.2260
    125  O         18.1640   52.4470  -13.1940 O.2   157  ARG157     -0.2867
    126  CB        19.6450   55.0940  -12.0520 C.3   157  ARG157      0.0307
    127  CG        20.4280   55.9000  -11.0320 C.3   157  ARG157      0.0489
    128  CD        19.5690   56.8040  -10.1170 C.3   157  ARG157      0.2205
    129  NE        20.5190   57.6080   -9.3240 N.pl3 157  ARG157     -0.0865
    130  CZ        21.1510   57.1770   -8.2370 C.cat 157  ARG157      0.5346
    131  NH1       20.8840   55.9800   -7.7310 N.pl3 157  ARG157      0.1354
    132  NH2       22.0290   57.9650   -7.6210 N.pl3 157  ARG157      0.1354
@<TRIPOS>BOND
     1   125   124    2
     2   124   123    1
     3   126   123    1
     4   126   127    1
     5   123   122    1
     6   127   128    1
     7   128   129    1
     8   129   130    2
     9   130   131    1
    10   130   132    1
    11   119   118    2
    12    21    20    1
    13     1     2    1
    14    22    20    1
    15   118   117    1
    16    20    19    2
    17     5     2    1
    18     5     6    1
    19    11     9    1
    20     4     3    2
    21     2     3    1
    22     8     9    2
    23     8     7    1
    24   117   120    1
    25   117   116    1
    26   121   120    1
    27    19    18    1
    28     3    12   am
    29   116   112   am
    30     9    10    1
    31     7     6    1
    32    18    17    1
    33    17    16    1
    34    12    13    1
    35   112   111    1
    36   112   113    2
    37   111   114    1
    38   111   110    1
    39   114   115    1
    40    13    16    1
    41    13    14    1
    42    79    80   ar
    43    79    77   ar
    44    80    78   ar
    45    14    23   am
    46    14    15    2
    47    77    74   ar
    48    23    24    1
    49    78    76   ar
    50    28    27    1
    51    74    76   ar
    52    74    72   ar
    53    76    75   ar
    54    24    27    1
    55    24    25    1
    56    26    25    2
    57    72    71    1
    58    72    73   ar
    59    71    68    1
    60    75    73   ar
    61    39    37    1
    62    38    37    1
    63    67    68    1
    64    67    62   am
    65    68    69    1
    66    37    36    2
    67    61    60    1
    68    61    62    1
    69    61    64    1
    70    70    69    2
    71    62    63    2
    72    66    64    1
    73    69    81   am
    74    64    65    1
    75    36    35    1
    76    81    82    1
    77    29    30    1
    78    35    34    1
    79    34    33    1
    80    90    89    1
    81    90    91    1
    82    89    83   am
    83    83    82    1
    84    83    84    2
    85    82    85    1
    86    91    92    2
    87    91    93   am
    88    33    30    1
    89    30    31    1
    90    93    94    1
    91    51    50    1
    92    88    86    1
    93    85    86    1
    94    86    87    1
    95    31    32    2
    96    94    97    1
    97    94    95    1
    98    50    48   ar
    99    50    49   ar
   100    48    46   ar
   101    97    98    1
   102    59    57    1
   103    49    47   ar
   104    95   102   am
   105    95    96    2
   106    46    45   ar
   107    58    56    1
   108   102   103    1
   109    98    99    1
   110    57    56    1
   111    47    45   ar
   112   108   106    1
   113    45    44    1
   114    56    53    1
   115   104   103    1
   116   104   105    2
   117   103   106    1
   118   100    99   ar
   119    99   101   ar
   120   106   107    1
   121    44    41    1
   122    53    54    1
   123    53    52    1
   124    55    54    2
   125   107   109    1
   126    41    40    1
   127    41    42    1
   128    43    42    2
