@<TRIPOS>MOLECULE
tmp/3e3aA00.pdb
 122 120 0 0 0
SMALL
GASTEIGER

@<TRIPOS>ATOM
      1  N         27.1290    4.4420  -15.8220 N.3    34  GLY34      -0.1210
      2  CA        27.0040    5.6370  -16.6810 C.3    34  GLY34       0.1956
      3  C         25.6410    6.2850  -16.6180 C.2    34  GLY34       0.2612
      4  O         25.4500    7.3110  -17.1920 O.2    34  GLY34      -0.2717
      5  N         24.6800    5.6860  -15.9210 N.am   35  GLY35      -0.1956
      6  CA        23.3330    6.2840  -15.7980 C.3    35  GLY35       0.1869
      7  C         23.1680    7.2820  -14.6560 C.2    35  GLY35       0.2309
      8  O         23.4310    6.9650  -13.5030 O.2    35  GLY35      -0.2863
      9  N         17.9810    9.0620  -15.9500 N.3    39  THR39      -0.1218
     10  CA        17.6730    7.9320  -16.8440 C.3    39  THR39       0.1862
     11  C         16.2730    7.3620  -16.6080 C.2    39  THR39       0.2287
     12  O         15.6260    6.8700  -17.5480 O.2    39  THR39      -0.2866
     13  CB        18.7540    6.8260  -16.8510 C.3    39  THR39       0.1770
     14  OG1       18.8060    6.1860  -15.5840 O.3    39  THR39      -0.2211
     15  CG2       20.1390    7.3790  -17.1510 C.3    39  THR39       0.0375
     16  N         27.2540    1.3790  -29.3600 N.3   158  ARG158     -0.1245
     17  CA        26.1250    1.6190  -28.5150 C.3   158  ARG158      0.1563
     18  C         24.8440    1.0100  -29.0990 C.2   158  ARG158      0.2260
     19  O         23.9980    0.4720  -28.3820 O.2   158  ARG158     -0.2867
     20  CB        25.9890    3.1160  -28.3740 C.3   158  ARG158      0.0307
     21  CG        25.4620    3.5070  -27.0910 C.3   158  ARG158      0.0489
     22  CD        25.7830    4.9450  -26.8830 C.3   158  ARG158      0.2205
     23  NE        24.7920    5.4930  -25.9980 N.pl3 158  ARG158     -0.0865
     24  CZ        24.6810    6.7780  -25.7460 C.cat 158  ARG158      0.5346
     25  NH1       25.5150    7.6340  -26.3280 N.pl3 158  ARG158      0.1354
     26  NH2       23.7160    7.2040  -24.9400 N.pl3 158  ARG158      0.1354
     27  N         20.4070   -2.9020  -28.1480 N.3   163  PHE163     -0.1241
     28  CA        19.1090   -2.9180  -28.7550 C.3   163  PHE163      0.1605
     29  C         18.8390   -4.2490  -29.3880 C.2   163  PHE163      0.2264
     30  O         19.7640   -4.9880  -29.7080 O.2   163  PHE163     -0.2867
     31  CB        19.0090   -1.7580  -29.7470 C.3   163  PHE163      0.0534
     32  CG        19.0170   -0.4400  -29.0640 C.ar  163  PHE163     -0.0203
     33  CD1       17.8470    0.0620  -28.5170 C.ar  163  PHE163     -0.0042
     34  CD2       20.2060    0.2410  -28.8630 C.ar  163  PHE163     -0.0042
     35  CE1       17.8470    1.2600  -27.8150 C.ar  163  PHE163     -0.0003
     36  CE2       20.2170    1.4490  -28.1510 C.ar  163  PHE163     -0.0003
     37  CZ        19.0320    1.9590  -27.6340 C.ar  163  PHE163     -0.0000
     38  N         16.9920    6.2790  -32.4060 N.3   177  TRP177     -0.1241
     39  CA        17.9570    5.9010  -31.3690 C.3   177  TRP177      0.1605
     40  C         19.2850    6.6100  -31.5600 C.2   177  TRP177      0.2264
     41  O         19.8470    7.0870  -30.5670 O.2   177  TRP177     -0.2867
     42  CB        18.1600    4.3800  -31.2290 C.3   177  TRP177      0.0550
     43  CG        16.9840    3.7370  -30.5970 C.ar  177  TRP177      0.0003
     44  CD1       16.1610    2.7930  -31.1480 C.ar  177  TRP177      0.0946
     45  CD2       16.4320    4.0540  -29.3160 C.ar  177  TRP177      0.0152
     46  NE1       15.1430    2.4730  -30.2700 N.ar  177  TRP177     -0.2442
     47  CE2       15.2820    3.2420  -29.1420 C.ar  177  TRP177      0.0810
     48  CE3       16.8020    4.9470  -28.2890 C.ar  177  TRP177      0.0012
     49  CZ2       14.5010    3.2890  -27.9860 C.ar  177  TRP177      0.0191
     50  CZ3       16.0240    5.0020  -27.1500 C.ar  177  TRP177      0.0001
     51  CH2       14.8860    4.1640  -26.9970 C.ar  177  TRP177      0.0015
     52  N         18.7380   10.1170  -30.3750 N.3   180  MET180     -0.1230
     53  CA        18.6870    9.9090  -28.9470 C.3   180  MET180      0.1702
     54  C         20.0620    9.7760  -28.3100 C.2   180  MET180      0.2592
     55  O         20.2470   10.2540  -27.1950 O.2   180  MET180     -0.2718
     56  CB        17.8240    8.6800  -28.6790 C.3   180  MET180      0.0401
     57  CG        17.3290    8.5100  -27.2730 C.3   180  MET180      0.0596
     58  SD        16.3830    9.8950  -26.6380 S.3   180  MET180     -0.1393
     59  CE        14.8330    9.8120  -27.5520 C.3   180  MET180      0.0692
     60  N         21.0450    9.2010  -29.0040 N.am  181  PHE181     -0.1976
     61  CA        22.4150    9.1490  -28.4370 C.3   181  PHE181      0.1639
     62  C         23.0820   10.5260  -28.1580 C.2   181  PHE181      0.2290
     63  O         23.8780   10.6670  -27.2120 O.2   181  PHE181     -0.2864
     64  CB        23.3640    8.2990  -29.2930 C.3   181  PHE181      0.0560
     65  CG        22.9420    6.8160  -29.4360 C.ar  181  PHE181     -0.0200
     66  CD1       22.1110    6.1970  -28.4880 C.ar  181  PHE181     -0.0042
     67  CD2       23.4150    6.0450  -30.5150 C.ar  181  PHE181     -0.0042
     68  CE1       21.7160    4.8490  -28.6200 C.ar  181  PHE181     -0.0003
     69  CE2       23.0490    4.6870  -30.6660 C.ar  181  PHE181     -0.0003
     70  CZ        22.1970    4.0860  -29.7170 C.ar  181  PHE181     -0.0000
     71  N         22.0490   11.8180  -24.8720 N.3   184  TRP184     -0.1241
     72  CA        22.5950   11.1060  -23.7050 C.3   184  TRP184      0.1605
     73  C         24.0710   10.8910  -23.8360 C.2   184  TRP184      0.2264
     74  O         24.5090    9.7660  -23.9400 O.2   184  TRP184     -0.2867
     75  CB        21.8860    9.7890  -23.5320 C.3   184  TRP184      0.0550
     76  CG        20.4880    9.9530  -23.0650 C.ar  184  TRP184      0.0003
     77  CD1       19.3750   10.0750  -23.8460 C.ar  184  TRP184      0.0946
     78  CD2       20.0300   10.0010  -21.7030 C.ar  184  TRP184      0.0152
     79  NE1       18.2470   10.1890  -23.0600 N.ar  184  TRP184     -0.2442
     80  CE2       18.6170   10.1300  -21.7420 C.ar  184  TRP184      0.0810
     81  CE3       20.6730    9.9230  -20.4520 C.ar  184  TRP184      0.0012
     82  CZ2       17.8290   10.2090  -20.5750 C.ar  184  TRP184      0.0191
     83  CZ3       19.8860   10.0140  -19.2800 C.ar  184  TRP184      0.0001
     84  CH2       18.4830   10.1650  -19.3630 C.ar  184  TRP184      0.0015
     85  N         27.7070   10.0070  -23.0630 N.3   186  ILE186     -0.1245
     86  CA        28.2660    9.2390  -21.9310 C.3   186  ILE186      0.1561
     87  C         29.7540    9.5670  -21.7790 C.2   186  ILE186      0.2260
     88  O         30.6090    8.9440  -22.4390 O.2   186  ILE186     -0.2867
     89  CB        28.1060    7.6990  -22.1040 C.3   186  ILE186      0.0252
     90  CG1       26.6730    7.3060  -22.5120 C.3   186  ILE186      0.0019
     91  CG2       28.5900    6.9640  -20.8480 C.3   186  ILE186      0.0019
     92  CD1       25.8160    6.6500  -21.4380 C.3   186  ILE186      0.0001
     93  N         19.0780   -2.4880  -23.0860 N.3   252  LEU252     -0.1245
     94  CA        18.4290   -1.2870  -22.6420 C.3   252  LEU252      0.1561
     95  C         16.9250   -1.4190  -22.7630 C.2   252  LEU252      0.2260
     96  O         16.2290   -0.4380  -23.0610 O.2   252  LEU252     -0.2867
     97  CB        18.9530   -0.1340  -23.4450 C.3   252  LEU252      0.0270
     98  CG        19.9260    0.8490  -22.7800 C.3   252  LEU252      0.0019
     99  CD1       20.7230    0.3950  -21.4930 C.3   252  LEU252      0.0001
    100  CD2       20.8530    1.4520  -23.8810 C.3   252  LEU252      0.0001
    101  N         14.5940   -1.4410  -20.7890 N.3   254  PHE254     -0.1227
    102  CA        13.7310   -0.5730  -19.9660 C.3   254  PHE254      0.1736
    103  C         13.3910    0.7570  -20.6490 C.2   254  PHE254      0.2595
    104  O         12.3610    1.3610  -20.3520 O.2   254  PHE254     -0.2718
    105  CB        14.2780   -0.3630  -18.4900 C.3   254  PHE254      0.0547
    106  CG        15.5050    0.5020  -18.4220 C.ar  254  PHE254     -0.0202
    107  CD1       16.7640   -0.0190  -18.7190 C.ar  254  PHE254     -0.0042
    108  CD2       15.3970    1.8480  -18.1030 C.ar  254  PHE254     -0.0042
    109  CE1       17.8850    0.7740  -18.6810 C.ar  254  PHE254     -0.0003
    110  CE2       16.5230    2.6440  -18.0920 C.ar  254  PHE254     -0.0003
    111  CZ        17.7730    2.1030  -18.3750 C.ar  254  PHE254     -0.0000
    112  N         14.2680    1.2060  -21.5350 N.am  255  PHE255     -0.1976
    113  CA        13.9910    2.3020  -22.4770 C.3   255  PHE255      0.1639
    114  C         13.3070    1.8720  -23.7800 C.2   255  PHE255      0.2290
    115  O         12.5740    2.6440  -24.4150 O.2   255  PHE255     -0.2864
    116  CB        15.3150    2.9130  -22.8870 C.3   255  PHE255      0.0560
    117  CG        15.5760    4.2380  -22.2850 C.ar  255  PHE255     -0.0200
    118  CD1       15.6860    5.3690  -23.0930 C.ar  255  PHE255     -0.0042
    119  CD2       15.7350    4.3650  -20.9110 C.ar  255  PHE255     -0.0042
    120  CE1       15.9410    6.6240  -22.5240 C.ar  255  PHE255     -0.0003
    121  CE2       15.9940    5.6170  -20.3330 C.ar  255  PHE255     -0.0003
    122  CZ        16.0850    6.7400  -21.1430 C.ar  255  PHE255     -0.0000
@<TRIPOS>BOND
     1    38    39    1
     2    40    39    1
     3    40    41    2
     4    39    42    1
     5    42    43    1
     6    44    43   ar
     7    44    46   ar
     8    69    67   ar
     9    69    70   ar
    10    43    45   ar
    11    67    65   ar
    12    52    53    1
    13    46    47   ar
    14    31    32    1
    15    31    28    1
    16    70    68   ar
    17    30    29    2
    18    65    64    1
    19    65    66   ar
    20    29    28    1
    21    16    17    1
    22    45    47   ar
    23    45    48   ar
    24    64    61    1
    25    47    49   ar
    26    18    17    1
    27    18    19    2
    28    32    34   ar
    29    32    33   ar
    30    60    61    1
    31    60    54   am
    32    53    56    1
    33    53    54    1
    34    34    36   ar
    35    28    27    1
    36    56    57    1
    37    68    66   ar
    38    33    35   ar
    39    17    20    1
    40    61    62    1
    41    20    21    1
    42    54    55    2
    43    48    50   ar
    44    62    63    2
    45    36    37   ar
    46    49    51   ar
    47    35    37   ar
    48    59    58    1
    49    57    58    1
    50    50    51   ar
    51    21    22    1
    52    22    23    1
    53    25    24    1
    54    23    24    2
    55    24    26    1
    56    71    72    1
    57   115   114    2
    58    74    73    2
    59   100    98    1
    60    77    76   ar
    61    77    79   ar
    62    73    72    1
    63   114   113    1
    64    72    75    1
    65    75    76    1
    66    97    98    1
    67    97    94    1
    68   118   120   ar
    69   118   117   ar
    70    93    94    1
    71    76    78   ar
    72    85    86    1
    73    96    95    2
    74    79    80   ar
    75   116   113    1
    76   116   117    1
    77    98    99    1
    78    95    94    1
    79   120   122   ar
    80    90    89    1
    81    90    92    1
    82   113   112    1
    83    88    87    2
    84   117   119   ar
    85    89    86    1
    86    89    91    1
    87    86    87    1
    88    80    78   ar
    89    80    82   ar
    90    78    81   ar
    91   112   103   am
    92   122   121   ar
    93   119   121   ar
    94   101   102    1
    95   103   104    2
    96   103   102    1
    97    82    84   ar
    98    81    83   ar
    99   102   105    1
   100    84    83   ar
   101   107   109   ar
   102   107   106   ar
   103   109   111   ar
   104   105   106    1
   105   106   108   ar
   106   111   110   ar
   107   108   110   ar
   108    12    11    2
   109     4     3    2
   110    15    13    1
   111    13    10    1
   112    13    14    1
   113    10    11    1
   114    10     9    1
   115     2     3    1
   116     2     1    1
   117     3     5   am
   118     5     6    1
   119     6     7    1
   120     7     8    2
