@<TRIPOS>MOLECULE
tmp/3e3cB00.pdb
 177 160 0 0 0
SMALL
GASTEIGER

@<TRIPOS>ATOM
      1  N         22.7690   26.6420   52.5920 N.3    10  MET10      -0.1245
      2  CA        21.6620   26.3220   51.6910 C.3    10  MET10       0.1570
      3  C         22.0030   25.1540   50.7760 C.2    10  MET10       0.2261
      4  O         23.0890   25.1150   50.1950 O.2    10  MET10      -0.2867
      5  CB        21.3280   27.5220   50.7990 C.3    10  MET10       0.0387
      6  CG        20.6820   28.7170   51.4800 C.3    10  MET10       0.0595
      7  SD        20.4580   30.1990   50.2180 S.3    10  MET10      -0.1393
      8  CE        18.9500   29.5310   49.1990 C.3    10  MET10       0.0692
      9  N         10.4440   31.8050   45.5790 N.3    17  ILE17      -0.1245
     10  CA        10.6630   32.9600   46.4390 C.3    17  ILE17       0.1561
     11  C          9.5620   34.0090   46.4170 C.2    17  ILE17       0.2260
     12  O          9.0100   34.3340   45.3670 O.2    17  ILE17      -0.2867
     13  CB        12.0380   33.6070   46.0950 C.3    17  ILE17       0.0252
     14  CG1       13.0190   33.3470   47.2340 C.3    17  ILE17       0.0019
     15  CG2       11.8910   35.0860   45.7820 C.3    17  ILE17       0.0019
     16  CD1       14.4320   33.8000   46.9400 C.3    17  ILE17       0.0001
     17  N          8.5900   37.9140   48.2580 N.3    19  PHE19      -0.1241
     18  CA         9.1530   39.0180   49.0050 C.3    19  PHE19       0.1605
     19  C          8.2640   40.2480   49.0510 C.2    19  PHE19       0.2264
     20  O          7.3690   40.4290   48.2170 O.2    19  PHE19      -0.2867
     21  CB        10.5190   39.3740   48.4200 C.3    19  PHE19       0.0534
     22  CG        10.5090   39.5230   46.9320 C.ar   19  PHE19      -0.0203
     23  CD1        9.9590   40.6550   46.3360 C.ar   19  PHE19      -0.0042
     24  CD2       10.9950   38.5040   46.1210 C.ar   19  PHE19      -0.0042
     25  CE1        9.8900   40.7670   44.9510 C.ar   19  PHE19      -0.0003
     26  CE2       10.9280   38.6080   44.7320 C.ar   19  PHE19      -0.0003
     27  CZ        10.3740   39.7400   44.1470 C.ar   19  PHE19      -0.0000
     28  N         14.7650   31.2430   42.3340 N.3    31  LEU31      -0.1245
     29  CA        16.1520   31.4350   42.7310 C.3    31  LEU31       0.1561
     30  C         16.9140   30.1210   42.6060 C.2    31  LEU31       0.2260
     31  O         16.4350   29.0780   43.0530 O.2    31  LEU31      -0.2867
     32  CB        16.2170   31.9160   44.1800 C.3    31  LEU31       0.0270
     33  CG        17.2410   32.9950   44.5370 C.3    31  LEU31       0.0019
     34  CD1       17.5140   32.9150   46.0290 C.3    31  LEU31       0.0001
     35  CD2       18.5340   32.7970   43.7670 C.3    31  LEU31       0.0001
     36  N         24.5690   32.3390   42.8510 N.3    38  ILE38      -0.1245
     37  CA        23.1470   32.5390   43.0520 C.3    38  ILE38       0.1561
     38  C         22.5890   33.3690   41.9060 C.2    38  ILE38       0.2260
     39  O         23.0050   34.5060   41.6730 O.2    38  ILE38      -0.2867
     40  CB        22.8630   33.2300   44.3960 C.3    38  ILE38       0.0252
     41  CG1       22.9010   32.1840   45.5140 C.3    38  ILE38       0.0019
     42  CG2       21.5200   33.9420   44.3530 C.3    38  ILE38       0.0019
     43  CD1       22.4120   32.6920   46.8490 C.3    38  ILE38       0.0001
     44  N         12.4630   37.3830   38.2500 N.3    42  ASP42      -0.1239
     45  CA        11.0100   37.3730   38.2040 C.3    42  ASP42       0.1674
     46  C         10.5800   37.9410   36.8580 C.2    42  ASP42       0.2266
     47  O         11.3940   38.0280   35.9380 O.2    42  ASP42      -0.2867
     48  CB        10.4500   38.2050   39.3620 C.3    42  ASP42       0.1410
     49  CG        11.0920   39.5750   39.4630 C.2    42  ASP42       0.3668
     50  OD1       11.4010   40.0040   40.5920 O.co2  42  ASP42      -0.2456
     51  OD2       11.2800   40.2310   38.4190 O.co2  42  ASP42      -0.2456
     52  N         10.0650   40.9160   35.9850 N.3    44  ALA44      -0.1231
     53  CA        10.6230   42.2250   35.6590 C.3    44  ALA44       0.1694
     54  C         12.1180   42.3920   35.8870 C.2    44  ALA44       0.2592
     55  O         12.7420   43.2450   35.2550 O.2    44  ALA44      -0.2718
     56  CB         9.8630   43.3190   36.4150 C.3    44  ALA44       0.0304
     57  N         12.7000   41.5940   36.7740 N.am   45  SER45      -0.1952
     58  CA        14.1260   41.7080   37.0470 C.3    45  SER45       0.1924
     59  C         14.7980   40.3540   37.2470 C.2    45  SER45       0.2314
     60  O         14.1350   39.3480   37.5130 O.2    45  SER45      -0.2863
     61  CB        14.3480   42.5540   38.2990 C.3    45  SER45       0.2116
     62  OG        13.6560   43.7850   38.2160 O.3    45  SER45      -0.2180
     63  N         18.5690   38.4480   38.9600 N.3    47  TYR47      -0.1241
     64  CA        19.6150   38.7120   39.9320 C.3    47  TYR47       0.1605
     65  C         20.6790   37.6460   40.0760 C.2    47  TYR47       0.2264
     66  O         20.3980   36.4480   40.0520 O.2    47  TYR47      -0.2867
     67  CB        18.9880   39.0070   41.2950 C.3    47  TYR47       0.0534
     68  CG        17.5480   38.5710   41.4250 C.ar   47  TYR47      -0.0201
     69  CD1       17.2190   37.2640   41.7890 C.ar   47  TYR47      -0.0009
     70  CD2       16.5060   39.4670   41.1600 C.ar   47  TYR47      -0.0009
     71  CE1       15.8790   36.8580   41.8880 C.ar   47  TYR47       0.0417
     72  CE2       15.1730   39.0730   41.2480 C.ar   47  TYR47       0.0417
     73  CZ        14.8690   37.7700   41.6130 C.ar   47  TYR47       0.1957
     74  OH        13.5550   37.3820   41.6890 O.3    47  TYR47      -0.2866
     75  N         24.1400   41.1350   45.9550 N.3    59  LEU59      -0.1245
     76  CA        23.2350   40.5400   44.9890 C.3    59  LEU59       0.1561
     77  C         22.9140   41.6010   43.9350 C.2    59  LEU59       0.2260
     78  O         22.2330   42.5860   44.2130 O.2    59  LEU59      -0.2867
     79  CB        21.9740   40.0640   45.7120 C.3    59  LEU59       0.0270
     80  CG        21.0010   39.1170   45.0090 C.3    59  LEU59       0.0019
     81  CD1       20.2300   39.8810   43.9650 C.3    59  LEU59       0.0001
     82  CD2       21.7500   37.9410   44.4010 C.3    59  LEU59       0.0001
     83  N         21.0240   43.2070   41.1050 N.3    61  VAL61      -0.1245
     84  CA        19.6850   43.1840   40.5360 C.3    61  VAL61       0.1561
     85  C         19.6100   43.9990   39.2480 C.2    61  VAL61       0.2260
     86  O         19.9360   45.1850   39.2310 O.2    61  VAL61      -0.2867
     87  CB        18.6540   43.7330   41.5450 C.3    61  VAL61       0.0252
     88  CG1       17.2880   43.8460   40.8930 C.3    61  VAL61       0.0019
     89  CG2       18.5820   42.8090   42.7670 C.3    61  VAL61       0.0019
     90  N         17.0500   45.1490   36.2210 N.3    63  ARG63      -0.1245
     91  CA        15.6940   45.2930   35.7190 C.3    63  ARG63       0.1563
     92  C         15.7180   45.0720   34.2100 C.2    63  ARG63       0.2260
     93  O         16.4530   45.7510   33.4940 O.2    63  ARG63      -0.2867
     94  CB        15.2050   46.7070   36.0300 C.3    63  ARG63       0.0307
     95  CG        13.7900   47.0220   35.6050 C.3    63  ARG63       0.0489
     96  CD        12.7680   46.3380   36.4940 C.3    63  ARG63       0.2205
     97  NE        11.5000   47.0490   36.4430 N.pl3  63  ARG63      -0.0865
     98  CZ        11.3370   48.3030   36.8550 C.cat  63  ARG63       0.5346
     99  NH1       12.3620   48.9800   37.3530 N.pl3  63  ARG63       0.1354
    100  NH2       10.1500   48.8870   36.7640 N.pl3  63  ARG63       0.1354
    101  N          8.6870   48.0460   39.9610 N.3    70  SER70      -0.1202
    102  CA         9.7050   47.3980   40.7690 C.3    70  SER70       0.2020
    103  C          9.1870   47.4080   42.2000 C.2    70  SER70       0.2618
    104  O          8.6330   48.4090   42.6560 O.2    70  SER70      -0.2717
    105  CB        11.0200   48.1760   40.6990 C.3    70  SER70       0.2103
    106  OG        11.9070   47.7720   41.7290 O.3    70  SER70      -0.2182
    107  N          9.3660   46.2990   42.9060 N.am   71  VAL71      -0.1979
    108  CA         8.9130   46.2080   44.2840 C.3    71  VAL71       0.1595
    109  C          9.5230   47.3420   45.1120 C.2    71  VAL71       0.2287
    110  O          9.0090   47.6780   46.1720 O.2    71  VAL71      -0.2864
    111  CB         9.2970   44.8360   44.9080 C.3    71  VAL71       0.0276
    112  CG1       10.7750   44.8000   45.2520 C.3    71  VAL71       0.0022
    113  CG2        8.4650   44.5730   46.1340 C.3    71  VAL71       0.0022
    114  N         20.4310   48.0510   40.6630 N.3    78  TYR78      -0.1241
    115  CA        20.8990   48.3400   42.0090 C.3    78  TYR78       0.1605
    116  C         21.4560   47.0900   42.6730 C.2    78  TYR78       0.2264
    117  O         21.4430   46.0030   42.0930 O.2    78  TYR78      -0.2867
    118  CB        19.7650   48.9120   42.8620 C.3    78  TYR78       0.0534
    119  CG        18.6120   47.9640   43.0780 C.ar   78  TYR78      -0.0201
    120  CD1       17.5890   47.8500   42.1380 C.ar   78  TYR78      -0.0009
    121  CD2       18.5430   47.1780   44.2240 C.ar   78  TYR78      -0.0009
    122  CE1       16.5190   46.9770   42.3390 C.ar   78  TYR78       0.0417
    123  CE2       17.4830   46.3000   44.4330 C.ar   78  TYR78       0.0417
    124  CZ        16.4770   46.2070   43.4870 C.ar   78  TYR78       0.1957
    125  OH        15.4360   45.3410   43.7000 O.3    78  TYR78      -0.2866
    126  N         21.6610   44.6250   46.3220 N.3    80  LEU80      -0.1245
    127  CA        21.0840   44.2440   47.5990 C.3    80  LEU80       0.1561
    128  C         22.1700   43.5680   48.4180 C.2    80  LEU80       0.2260
    129  O         22.9830   42.8170   47.8840 O.2    80  LEU80      -0.2867
    130  CB        19.9090   43.2750   47.4100 C.3    80  LEU80       0.0270
    131  CG        18.5640   43.8420   46.9360 C.3    80  LEU80       0.0019
    132  CD1       17.5690   42.7070   46.7780 C.3    80  LEU80       0.0001
    133  CD2       18.0350   44.8590   47.9380 C.3    80  LEU80       0.0001
    134  N         23.1110   40.8330   50.9750 N.3    82  ILE82      -0.1245
    135  CA        22.5650   39.6020   51.5370 C.3    82  ILE82       0.1561
    136  C         23.2260   39.2640   52.8670 C.2    82  ILE82       0.2260
    137  O         24.4450   39.1210   52.9470 O.2    82  ILE82      -0.2867
    138  CB        22.7560   38.4150   50.5700 C.3    82  ILE82       0.0252
    139  CG1       22.1200   38.7370   49.2130 C.3    82  ILE82       0.0019
    140  CG2       22.1300   37.1590   51.1570 C.3    82  ILE82       0.0019
    141  CD1       20.6290   39.0370   49.2700 C.3    82  ILE82       0.0001
    142  N         13.7670   29.2180   54.4470 N.3    93  LEU93      -0.1245
    143  CA        14.6140   30.2760   54.9640 C.3    93  LEU93       0.1561
    144  C         14.0120   31.6350   54.6670 C.2    93  LEU93       0.2260
    145  O         13.2460   31.7940   53.7190 O.2    93  LEU93      -0.2867
    146  CB        16.0240   30.2000   54.3770 C.3    93  LEU93       0.0270
    147  CG        16.2600   30.5530   52.9120 C.3    93  LEU93       0.0019
    148  CD1       17.7550   30.7390   52.6700 C.3    93  LEU93       0.0001
    149  CD2       15.6990   29.4550   52.0260 C.3    93  LEU93       0.0001
    150  N         14.9990   36.0670   55.0210 N.3    95  LEU95      -0.1245
    151  CA        16.0600   37.0310   55.2250 C.3    95  LEU95       0.1561
    152  C         15.5960   38.4380   54.8900 C.2    95  LEU95       0.2260
    153  O         14.6360   38.6350   54.1470 O.2    95  LEU95      -0.2867
    154  CB        17.2900   36.6500   54.3950 C.3    95  LEU95       0.0270
    155  CG        17.0540   36.1050   52.9860 C.3    95  LEU95       0.0019
    156  CD1       16.4150   37.1650   52.1280 C.3    95  LEU95       0.0001
    157  CD2       18.3730   35.6620   52.3780 C.3    95  LEU95       0.0001
    158  N         16.8580   41.8470   53.2570 N.3    97  CYS97      -0.1235
    159  CA        17.8770   42.4260   52.3870 C.3    97  CYS97       0.1677
    160  C         17.6080   43.9050   52.1490 C.2    97  CYS97       0.2270
    161  O         16.4930   44.2890   51.7760 O.2    97  CYS97      -0.2867
    162  CB        17.8820   41.7090   51.0350 C.3    97  CYS97       0.0956
    163  SG        17.8680   39.9030   51.1360 S.3    97  CYS97      -0.0801
    164  N         13.7460   44.5020   51.3550 N.3   107  VAL107     -0.1245
    165  CA        12.7530   43.5000   51.0290 C.3   107  VAL107      0.1561
    166  C         12.9400   42.3360   51.9930 C.2   107  VAL107      0.2260
    167  O         14.0640   41.9850   52.3500 O.2   107  VAL107     -0.2867
    168  CB        12.9170   42.9700   49.5890 C.3   107  VAL107      0.0252
    169  CG1       12.7840   44.1050   48.5940 C.3   107  VAL107      0.0019
    170  CG2       14.2530   42.2850   49.4430 C.3   107  VAL107      0.0019
    171  N         12.4440   38.4630   52.3840 N.3   109  VAL109     -0.1245
    172  CA        12.3030   37.3100   51.5120 C.3   109  VAL109      0.1561
    173  C         12.0700   35.9640   52.1910 C.2   109  VAL109      0.2260
    174  O         12.7010   35.6350   53.1990 O.2   109  VAL109     -0.2867
    175  CB        13.5630   37.1770   50.6250 C.3   109  VAL109      0.0252
    176  CG1       13.4150   36.0090   49.6690 C.3   109  VAL109      0.0019
    177  CG2       13.8170   38.4820   49.8750 C.3   109  VAL109      0.0019
@<TRIPOS>BOND
     1    93    92    2
     2    92    91    1
     3    55    54    2
     4    95    94    1
     5    95    96    1
     6    53    54    1
     7    53    52    1
     8    53    56    1
     9    91    94    1
    10    91    90    1
    11    54    57   am
    12    47    46    2
    13    97    96    1
    14    97    98    2
    15   100    98    1
    16    57    58    1
    17    98    99    1
    18    46    45    1
    19    58    59    1
    20    58    61    1
    21    59    60    2
    22    45    44    1
    23    45    48    1
    24    62    61    1
    25    51    49   ar
    26    63    64    1
    27    86    85    2
    28    85    84    1
    29    48    49    1
    30    49    50   ar
    31    64    65    1
    32    64    67    1
    33   101   102    1
    34    66    65    2
    35    84    83    1
    36    84    87    1
    37   114   115    1
    38   105   102    1
    39   105   106    1
    40   102   103    1
    41    88    87    1
    42    70    72   ar
    43    70    68   ar
    44    72    73   ar
    45    67    68    1
    46    68    69   ar
    47    87    89    1
    48    73    74    1
    49    73    71   ar
    50    39    38    2
    51    69    71   ar
    52    38    37    1
    53   115   116    1
    54   115   118    1
    55   117   116    2
    56   120   122   ar
    57   120   119   ar
    58   103   104    2
    59   103   107   am
    60    28    29    1
    61   122   124   ar
    62    30    29    1
    63    30    31    2
    64    29    32    1
    65    36    37    1
    66   118   119    1
    67   107   108    1
    68    37    40    1
    69   119   121   ar
    70   124   125    1
    71   124   123   ar
    72    35    33    1
    73    77    78    2
    74    77    76    1
    75    81    80    1
    76    27    26   ar
    77    27    25   ar
    78    32    33    1
    79   121   123   ar
    80   108   111    1
    81   108   109    1
    82    42    40    1
    83    40    41    1
    84    82    80    1
    85    33    34    1
    86    26    24   ar
    87   111   112    1
    88   111   113    1
    89    25    23   ar
    90    76    79    1
    91    76    75    1
    92    80    79    1
    93   109   110    2
    94    12    11    2
    95    41    43    1
    96     9    10    1
    97    15    13    1
    98    13    10    1
    99    13    14    1
   100    24    22   ar
   101   126   127    1
   102    23    22   ar
   103    11    10    1
   104   132   131    1
   105    22    21    1
   106   131   130    1
   107   131   133    1
   108    16    14    1
   109   130   127    1
   110   127   128    1
   111   129   128    2
   112    20    19    2
   113    17    18    1
   114    21    18    1
   115   169   168    1
   116    18    19    1
   117     8     7    1
   118   139   141    1
   119   139   138    1
   120   170   168    1
   121   168   165    1
   122   176   175    1
   123   177   175    1
   124     4     3    2
   125     7     6    1
   126   138   140    1
   127   138   135    1
   128   175   172    1
   129     3     2    1
   130     5     6    1
   131     5     2    1
   132   134   135    1
   133   165   164    1
   134   165   166    1
   135   162   163    1
   136   162   159    1
   137   172   173    1
   138   172   171    1
   139   135   136    1
   140     2     1    1
   141   161   160    2
   142   166   167    2
   143   149   147    1
   144   156   155    1
   145   160   159    1
   146   173   174    2
   147   157   155    1
   148   159   158    1
   149   148   147    1
   150   136   137    2
   151   147   146    1
   152   155   154    1
   153   145   144    2
   154   153   152    2
   155   146   143    1
   156   154   151    1
   157   142   143    1
   158   144   143    1
   159   152   151    1
   160   150   151    1
