@<TRIPOS>MOLECULE
tmp/3e3eB00.pdb
 111 104 0 0 0
SMALL
GASTEIGER

@<TRIPOS>ATOM
      1  N         11.6790  -41.3330   14.4610 N.3    27  PHE27      -0.1241
      2  CA        12.9280  -41.9710   14.1200 C.3    27  PHE27       0.1605
      3  C         13.2530  -42.9010   15.2590 C.2    27  PHE27       0.2264
      4  O         13.6350  -42.4760   16.3570 O.2    27  PHE27      -0.2867
      5  CB        14.0430  -40.9420   13.8980 C.3    27  PHE27       0.0534
      6  CG        13.8090  -40.0950   12.7070 C.ar   27  PHE27      -0.0203
      7  CD1       14.2590  -40.5000   11.4590 C.ar   27  PHE27      -0.0042
      8  CD2       13.1150  -38.9030   12.8280 C.ar   27  PHE27      -0.0042
      9  CE1       14.0280  -39.6970   10.3220 C.ar   27  PHE27      -0.0003
     10  CE2       12.8730  -38.0970   11.7000 C.ar   27  PHE27      -0.0003
     11  CZ        13.3270  -38.5010   10.4520 C.ar   27  PHE27      -0.0000
     12  N         15.7690  -46.8720   12.1860 N.3    59  VAL59      -0.1245
     13  CA        17.1260  -46.3450   11.8920 C.3    59  VAL59       0.1561
     14  C         18.1440  -47.4710   11.7140 C.2    59  VAL59       0.2260
     15  O         19.0500  -47.6620   12.5160 O.2    59  VAL59      -0.2867
     16  CB        17.5620  -45.2320   12.9300 C.3    59  VAL59       0.0252
     17  CG1       18.8040  -44.5290   12.4660 C.3    59  VAL59       0.0019
     18  CG2       16.4480  -44.2090   13.1010 C.3    59  VAL59       0.0019
     19  N         17.2600  -41.2740    5.7380 N.3    65  VAL65      -0.1231
     20  CA        16.6620  -40.0270    6.2130 C.3    65  VAL65       0.1692
     21  C         17.4140  -39.5130    7.4580 C.2    65  VAL65       0.2592
     22  O         17.6560  -38.3080    7.5970 O.2    65  VAL65      -0.2718
     23  CB        15.1410  -40.1700    6.4430 C.3    65  VAL65       0.0266
     24  CG1       14.5420  -38.8150    6.9360 C.3    65  VAL65       0.0020
     25  CG2       14.4480  -40.6220    5.1570 C.3    65  VAL65       0.0020
     26  N         17.8440  -40.4300    8.3250 N.am   66  ALA66      -0.1966
     27  CA        18.5620  -40.0500    9.5310 C.3    66  ALA66       0.1728
     28  C         20.0500  -40.4190    9.3440 C.2    66  ALA66       0.2617
     29  O         20.3540  -41.4480    8.7370 O.2    66  ALA66      -0.2715
     30  CB        17.9450  -40.7620   10.7670 C.3    66  ALA66       0.0334
     31  N         20.9630  -39.5620    9.8060 N.am   67  SER67      -0.1936
     32  CA        22.3910  -39.8800    9.6450 C.3    67  SER67       0.2055
     33  C         23.0780  -40.1210   10.9970 C.2    67  SER67       0.2643
     34  O         24.3060  -40.2660   11.0710 O.2    67  SER67      -0.2714
     35  CB        23.0960  -38.7970    8.8190 C.3    67  SER67       0.2130
     36  OG        22.9740  -37.5510    9.4840 O.3    67  SER67      -0.2179
     37  N         22.2650  -40.2430   12.0510 N.am   68  GLU68      -0.1963
     38  CA        22.7460  -40.4880   13.4250 C.3    68  GLU68       0.1733
     39  C         21.6100  -41.0160   14.3090 C.2    68  GLU68       0.2616
     40  O         20.3940  -40.8970   13.9700 O.2    68  GLU68      -0.2715
     41  CB        23.3450  -39.2000   14.0560 C.3    68  GLU68       0.0429
     42  CG        22.5360  -37.9340   13.8420 C.3    68  GLU68       0.1163
     43  CD        23.2750  -36.6580   14.2980 C.2    68  GLU68       0.3649
     44  OE1       22.6420  -35.5950   14.4050 O.co2  68  GLU68      -0.2457
     45  OE2       24.4710  -36.7140   14.6090 O.co2  68  GLU68      -0.2457
     46  N         22.0150  -41.6300   15.4060 N.am   69  CYS69      -0.1954
     47  CA        21.1480  -42.1960   16.4130 C.3    69  CYS69       0.1843
     48  C         21.4310  -41.5270   17.7360 C.2    69  CYS69       0.2625
     49  O         22.5720  -41.4480   18.1710 O.2    69  CYS69      -0.2714
     50  CB        21.4860  -43.6760   16.5500 C.3    69  CYS69       0.0997
     51  SG        21.2400  -44.4830   14.9620 S.3    69  CYS69      -0.0797
     52  N         20.4020  -41.0410   18.4050 N.am   70  GLU70      -0.1977
     53  CA        20.5700  -40.5710   19.7600 C.3    70  GLU70       0.1602
     54  C         21.0840  -41.6990   20.6890 C.2    70  GLU70       0.2287
     55  O         20.7940  -42.8910   20.4780 O.2    70  GLU70      -0.2864
     56  CB        19.2600  -39.9840   20.3240 C.3    70  GLU70       0.0415
     57  CG        19.5220  -38.9350   21.3330 C.3    70  GLU70       0.1163
     58  CD        19.8110  -37.5630   20.7650 C.2    70  GLU70       0.3649
     59  OE1       20.1510  -37.3820   19.5650 O.co2  70  GLU70      -0.2457
     60  OE2       19.7450  -36.6480   21.5860 O.co2  70  GLU70      -0.2457
     61  N         13.9810  -40.1370   18.1000 N.3    76  THR76      -0.1218
     62  CA        13.8560  -38.7220   17.8520 C.3    76  THR76       0.1862
     63  C         12.5740  -38.4460   17.0810 C.2    76  THR76       0.2287
     64  O         12.2910  -39.1050   16.0760 O.2    76  THR76      -0.2866
     65  CB        15.0550  -38.2360   17.0160 C.3    76  THR76       0.1770
     66  OG1       16.2450  -38.4540   17.8030 O.3    76  THR76      -0.2211
     67  CG2       14.9110  -36.7490   16.6650 C.3    76  THR76       0.0375
     68  N         10.3590  -35.8260   14.9790 N.3    78  GLN78      -0.1245
     69  CA        10.3660  -34.5670   14.2400 C.3    78  GLN78       0.1566
     70  C          8.9710  -34.2070   13.7750 C.2    78  GLN78       0.2260
     71  O          8.1410  -35.0910   13.4890 O.2    78  GLN78      -0.2867
     72  CB        11.3230  -34.6490   13.0570 C.3    78  GLN78       0.0367
     73  CG        12.7960  -34.6030   13.5100 C.3    78  GLN78       0.0905
     74  CD        13.7590  -34.6090   12.3500 C.2    78  GLN78       0.2608
     75  OE1       13.3840  -34.8870   11.2270 O.2    78  GLN78      -0.2717
     76  NE2       15.0070  -34.2310   12.6160 N.am   78  GLN78      -0.0878
     77  N          6.5010  -31.6630   11.2210 N.3    80  PHE80      -0.1241
     78  CA         6.5100  -30.8240   10.0130 C.3    80  PHE80       0.1605
     79  C          5.1290  -30.2910    9.6600 C.2    80  PHE80       0.2264
     80  O          4.1130  -30.9510    9.8770 O.2    80  PHE80      -0.2867
     81  CB         7.0100  -31.6030    8.8010 C.3    80  PHE80       0.0534
     82  CG         8.4010  -32.1190    8.9400 C.ar   80  PHE80      -0.0203
     83  CD1        8.6760  -33.2370    9.7430 C.ar   80  PHE80      -0.0042
     84  CD2        9.4320  -31.4950    8.2720 C.ar   80  PHE80      -0.0042
     85  CE1        9.9760  -33.7230    9.8580 C.ar   80  PHE80      -0.0003
     86  CE2       10.7550  -31.9640    8.3870 C.ar   80  PHE80      -0.0003
     87  CZ        11.0270  -33.0720    9.2020 C.ar   80  PHE80      -0.0000
     88  N         10.1190  -27.9540    8.7660 N.3    85  LYS85      -0.1245
     89  CA        10.2880  -28.5400   10.0720 C.3    85  LYS85       0.1561
     90  C          9.9220  -27.5180   11.1540 C.2    85  LYS85       0.2260
     91  O         10.4830  -26.4130   11.1740 O.2    85  LYS85      -0.2867
     92  CB        11.6840  -29.1120   10.2530 C.3    85  LYS85       0.0271
     93  CG        11.9380  -29.6540   11.7150 C.3    85  LYS85       0.0035
     94  CD        13.1690  -30.5250   11.7310 C.3    85  LYS85       0.0206
     95  CE        13.9910  -30.3410   12.9580 C.3    85  LYS85       0.1093
     96  NZ        15.3980  -30.8330   12.7570 N.3    85  LYS85      -0.1314
     97  N         11.2210  -30.5320   17.0100 N.3    88  GLU88      -0.1245
     98  CA        12.0320  -31.7310   17.2270 C.3    88  GLU88       0.1567
     99  C         12.3250  -31.8950   18.7090 C.2    88  GLU88       0.2260
    100  O         12.5430  -30.9010   19.4000 O.2    88  GLU88      -0.2867
    101  CB        13.3620  -31.6760   16.4640 C.3    88  GLU88       0.0388
    102  CG        14.2000  -32.9730   16.7150 C.3    88  GLU88       0.1160
    103  CD        15.5190  -33.0110   15.9630 C.2    88  GLU88       0.3649
    104  OE1       15.5530  -32.6670   14.7550 O.co2  88  GLU88      -0.2457
    105  OE2       16.5330  -33.3780   16.6070 O.co2  88  GLU88      -0.2457
    106  N         14.1670  -35.3930   21.3710 N.3    90  SER90      -0.1217
    107  CA        14.4730  -36.8300   21.5190 C.3    90  SER90       0.1889
    108  C         14.1070  -37.3170   22.9170 C.2    90  SER90       0.2288
    109  O         14.1170  -36.5370   23.8890 O.2    90  SER90      -0.2866
    110  CB        15.9600  -37.0620   21.2810 C.3    90  SER90       0.2089
    111  OG        16.3300  -36.8170   19.9330 O.3    90  SER90      -0.2183
@<TRIPOS>BOND
     1    25    23    1
     2    19    20    1
     3    20    23    1
     4    20    21    1
     5    23    24    1
     6    21    22    2
     7    21    26   am
     8    84    86   ar
     9    84    82   ar
    10    26    27    1
    11    86    87   ar
    12    29    28    2
    13    88    89    1
    14    81    82    1
    15    81    78    1
    16    35    36    1
    17    35    32    1
    18    82    83   ar
    19    87    85   ar
    20    28    27    1
    21    28    31   am
    22    27    30    1
    23    32    31    1
    24    32    33    1
    25    79    80    2
    26    79    78    1
    27    83    85   ar
    28    78    77    1
    29    89    92    1
    30    89    90    1
    31    92    93    1
    32     9    11   ar
    33     9     7   ar
    34    11    10   ar
    35    33    34    2
    36    33    37   am
    37    90    91    2
    38    75    74    2
    39     7     6   ar
    40    10     8   ar
    41    14    13    1
    42    14    15    2
    43    93    94    1
    44    94    95    1
    45    13    12    1
    46    13    16    1
    47    37    38    1
    48    74    76   am
    49    74    73    1
    50    17    16    1
    51     6     8   ar
    52     6     5    1
    53    96    95    1
    54    16    18    1
    55    72    73    1
    56    72    69    1
    57    38    41    1
    58    38    39    1
    59    71    70    2
    60    70    69    1
    61    42    41    1
    62    42    43    1
    63     5     2    1
    64    40    39    2
    65     2     1    1
    66     2     3    1
    67    69    68    1
    68    43    44   ar
    69    43    45   ar
    70    39    46   am
    71   104   103   ar
    72    51    50    1
    73     3     4    2
    74    46    47    1
    75   103   105   ar
    76   103   102    1
    77    64    63    2
    78    47    50    1
    79    47    48    1
    80   101   102    1
    81   101    98    1
    82    67    65    1
    83    97    98    1
    84    65    66    1
    85    65    62    1
    86    63    62    1
    87    98    99    1
    88    48    49    2
    89    48    52   am
    90    62    61    1
    91    52    53    1
    92    99   100    2
    93    59    58   ar
    94    53    56    1
    95    53    54    1
    96   111   110    1
    97    56    57    1
    98    55    54    2
    99    58    57    1
   100    58    60   ar
   101   110   107    1
   102   106   107    1
   103   107   108    1
   104   108   109    2
