@<TRIPOS>MOLECULE
tmp/3e3kB00.pdb
 117 116 0 0 0
SMALL
GASTEIGER

@<TRIPOS>ATOM
      1  N         12.9220  -49.4120    9.9610 N.3    20  TYR20      -0.1227
      2  CA        12.4750  -48.0540    9.6820 C.3    20  TYR20       0.1736
      3  C         12.1440  -47.2280   10.9280 C.2    20  TYR20       0.2596
      4  O         12.7540  -47.4200   11.9830 O.2    20  TYR20      -0.2718
      5  CB        11.2830  -48.1300    8.7120 C.3    20  TYR20       0.0548
      6  CG        11.6180  -48.9550    7.4850 C.ar   20  TYR20      -0.0200
      7  CD1       11.4960  -50.3460    7.4930 C.ar   20  TYR20      -0.0009
      8  CD2       12.1660  -48.3540    6.3500 C.ar   20  TYR20      -0.0009
      9  CE1       11.9220  -51.1100    6.4070 C.ar   20  TYR20       0.0417
     10  CE2       12.5900  -49.1050    5.2640 C.ar   20  TYR20       0.0417
     11  CZ        12.4730  -50.4770    5.2990 C.ar   20  TYR20       0.1957
     12  OH        12.9510  -51.2090    4.2400 O.3    20  TYR20      -0.2866
     13  N         11.2010  -46.2960   10.8020 N.am   21  THR21      -0.1953
     14  CA        10.8170  -45.4520   11.9290 C.3    21  THR21       0.1897
     15  C         10.6200  -46.3410   13.1440 C.2    21  THR21       0.2313
     16  O         10.1300  -47.4600   13.0130 O.2    21  THR21      -0.2863
     17  CB         9.5110  -44.6900   11.6330 C.3    21  THR21       0.1794
     18  OG1        8.8820  -44.3170   12.8660 O.3    21  THR21      -0.2208
     19  CG2        8.5680  -45.5490   10.8150 C.3    21  THR21       0.0378
     20  N         16.7970  -42.0740    9.2910 N.3    25  MET25      -0.1245
     21  CA        17.6620  -42.3740    8.1540 C.3    25  MET25       0.1570
     22  C         19.0000  -41.6450    8.1360 C.2    25  MET25       0.2261
     23  O         20.0290  -42.2720    7.8930 O.2    25  MET25      -0.2867
     24  CB        16.9270  -42.0860    6.8370 C.3    25  MET25       0.0387
     25  CG        15.8140  -43.0680    6.5150 C.3    25  MET25       0.0595
     26  SD        14.8610  -42.6000    5.0550 S.3    25  MET25      -0.1393
     27  CE        15.9490  -43.1110    3.7420 C.3    25  MET25       0.0692
     28  N          8.7970  -57.0270    5.2810 N.3    95  ARG95      -0.1245
     29  CA         8.8080  -55.6220    5.6910 C.3    95  ARG95       0.1563
     30  C          9.4250  -54.6810    4.6610 C.2    95  ARG95       0.2260
     31  O          9.2520  -53.4640    4.7440 O.2    95  ARG95      -0.2867
     32  CB         9.5580  -55.4750    7.0150 C.3    95  ARG95       0.0307
     33  CG         9.4400  -54.1090    7.6500 C.3    95  ARG95       0.0489
     34  CD         7.9920  -53.7810    7.9790 C.3    95  ARG95       0.2205
     35  NE         7.8610  -52.4510    8.5640 N.pl3  95  ARG95      -0.0865
     36  CZ         8.2160  -51.3230    7.9510 C.cat  95  ARG95       0.5346
     37  NH1        8.7260  -51.3500    6.7240 N.pl3  95  ARG95       0.1354
     38  NH2        8.0720  -50.1590    8.5740 N.pl3  95  ARG95       0.1354
     39  N          8.2800  -52.8630   -0.2010 N.3    98  TRP98      -0.1241
     40  CA         8.1190  -51.5520   -0.8520 C.3    98  TRP98       0.1605
     41  C          9.2670  -51.2850   -1.8150 C.2    98  TRP98       0.2264
     42  O          9.1280  -50.5250   -2.7740 O.2    98  TRP98      -0.2867
     43  CB         8.1240  -50.4300    0.1780 C.3    98  TRP98       0.0550
     44  CG         9.4140  -50.3560    0.9140 C.ar   98  TRP98       0.0003
     45  CD1        9.7590  -51.0530    2.0390 C.ar   98  TRP98       0.0946
     46  CD2       10.5600  -49.5780    0.5570 C.ar   98  TRP98       0.0152
     47  NE1       11.0440  -50.7540    2.4030 N.ar   98  TRP98      -0.2442
     48  CE2       11.5610  -49.8490    1.5130 C.ar   98  TRP98       0.0810
     49  CE3       10.8390  -48.6760   -0.4790 C.ar   98  TRP98       0.0012
     50  CZ2       12.8220  -49.2490    1.4710 C.ar   98  TRP98       0.0191
     51  CZ3       12.0990  -48.0780   -0.5230 C.ar   98  TRP98       0.0001
     52  CH2       13.0730  -48.3690    0.4510 C.ar   98  TRP98       0.0015
     53  N         18.8190  -47.6050    3.5680 N.3   135  ARG135     -0.1245
     54  CA        18.2340  -48.8170    4.1430 C.3   135  ARG135      0.1563
     55  C         17.3540  -49.5730    3.1510 C.2   135  ARG135      0.2260
     56  O         16.7640  -48.9820    2.2570 O.2   135  ARG135     -0.2867
     57  CB        17.4640  -48.4960    5.4430 C.3   135  ARG135      0.0307
     58  CG        16.3750  -47.4370    5.3510 C.3   135  ARG135      0.0489
     59  CD        16.0320  -46.8620    6.7210 C.3   135  ARG135      0.2205
     60  NE        14.7850  -46.1130    6.6770 N.pl3 135  ARG135     -0.0865
     61  CZ        14.1540  -45.5990    7.7330 C.cat 135  ARG135      0.5346
     62  NH1       14.6480  -45.7240    8.9610 N.pl3 135  ARG135      0.1354
     63  NH2       12.9790  -45.0050    7.5650 N.pl3 135  ARG135      0.1354
     64  N          2.2880  -41.9360   11.0540 N.3   380  TYR380     -0.1241
     65  CA         2.8300  -43.0160   10.2470 C.3   380  TYR380      0.1605
     66  C          1.8180  -44.1430   10.1240 C.2   380  TYR380      0.2264
     67  O          1.4690  -44.5540    9.0220 O.2   380  TYR380     -0.2867
     68  CB         4.1080  -43.5520   10.8860 C.3   380  TYR380      0.0534
     69  CG         4.6630  -44.7690   10.1920 C.ar  380  TYR380     -0.0201
     70  CD1        5.0040  -44.7240    8.8400 C.ar  380  TYR380     -0.0009
     71  CD2        4.8530  -45.9650   10.8830 C.ar  380  TYR380     -0.0009
     72  CE1        5.5190  -45.8360    8.1920 C.ar  380  TYR380      0.0417
     73  CE2        5.3700  -47.0850   10.2450 C.ar  380  TYR380      0.0417
     74  CZ         5.7020  -47.0110    8.9000 C.ar  380  TYR380      0.1957
     75  OH         6.2330  -48.1020    8.2550 O.3   380  TYR380     -0.2866
     76  N         10.0520  -38.4610   -1.9100 N.3   396  TRP396     -0.1241
     77  CA        11.3180  -38.6060   -1.2030 C.3   396  TRP396      0.1605
     78  C         12.6190  -38.2170   -1.8580 C.2   396  TRP396      0.2264
     79  O         13.6340  -38.8670   -1.6160 O.2   396  TRP396     -0.2867
     80  CB        11.4660  -40.0470   -0.7260 C.3   396  TRP396      0.0550
     81  CG        10.1920  -40.6910   -0.1960 C.ar  396  TRP396      0.0003
     82  CD1        9.1760  -40.0760    0.4810 C.ar  396  TRP396      0.0946
     83  CD2        9.8740  -42.0900   -0.2080 C.ar  396  TRP396      0.0152
     84  NE1        8.2570  -41.0000    0.8920 N.ar  396  TRP396     -0.2442
     85  CE2        8.6590  -42.2470    0.4870 C.ar  396  TRP396      0.0810
     86  CE3       10.5050  -43.2290   -0.7360 C.ar  396  TRP396      0.0012
     87  CZ2        8.0550  -43.5020    0.6720 C.ar  396  TRP396      0.0191
     88  CZ3        9.9080  -44.4770   -0.5530 C.ar  396  TRP396      0.0001
     89  CH2        8.6960  -44.6020    0.1450 C.ar  396  TRP396      0.0015
     90  N         15.0940  -41.7450   -4.7510 N.3   400  TYR400     -0.1241
     91  CA        13.7860  -42.3690   -4.6020 C.3   400  TYR400      0.1605
     92  C         12.7730  -41.9760   -5.6670 C.2   400  TYR400      0.2264
     93  O         11.9900  -42.8130   -6.1130 O.2   400  TYR400     -0.2867
     94  CB        13.2090  -42.0440   -3.2350 C.3   400  TYR400      0.0534
     95  CG        14.0340  -42.5810   -2.1020 C.ar  400  TYR400     -0.0201
     96  CD1       15.1160  -41.8590   -1.5910 C.ar  400  TYR400     -0.0009
     97  CD2       13.7550  -43.8340   -1.5560 C.ar  400  TYR400     -0.0009
     98  CE1       15.9010  -42.3790   -0.5590 C.ar  400  TYR400      0.0417
     99  CE2       14.5310  -44.3610   -0.5330 C.ar  400  TYR400      0.0417
    100  CZ        15.6020  -43.6320   -0.0420 C.ar  400  TYR400      0.1957
    101  OH        16.3780  -44.1880    0.9420 O.3   400  TYR400     -0.2866
    102  N          3.0050  -49.0260    2.8210 N.3   413  SER413     -0.1202
    103  CA         4.2290  -48.6340    3.5170 C.3   413  SER413      0.2020
    104  C          4.1090  -47.1940    4.0060 C.2   413  SER413      0.2618
    105  O          4.6770  -46.8210    5.0320 O.2   413  SER413     -0.2717
    106  CB         5.4530  -48.7860    2.6000 C.3   413  SER413      0.2103
    107  OG         5.4090  -47.9000    1.4920 O.3   413  SER413     -0.2182
    108  N          3.3690  -46.3870    3.2570 N.am  414  HIS414     -0.1975
    109  CA         3.1390  -45.0040    3.6260 C.3   414  HIS414      0.1656
    110  C          1.6640  -44.6920    3.4140 C.2   414  HIS414      0.2291
    111  O          0.8160  -45.4280    3.9140 O.2   414  HIS414     -0.2864
    112  CB         4.0320  -44.0650    2.8220 C.3   414  HIS414      0.0771
    113  CG         4.9160  -43.2080    3.6790 C.ar  414  HIS414      0.0820
    114  ND1        5.7350  -43.7330    4.6560 N.ar  414  HIS414     -0.2267
    115  CD2        5.0900  -41.8650    3.7250 C.ar  414  HIS414      0.1154
    116  CE1        6.3720  -42.7520    5.2700 C.ar  414  HIS414      0.1986
    117  NE2        5.9970  -41.6080    4.7250 N.ar  414  HIS414     -0.2212
@<TRIPOS>BOND
     1    93    92    2
     2    92    91    1
     3    90    91    1
     4    91    94    1
     5    94    95    1
     6    42    41    2
     7    95    96   ar
     8    95    97   ar
     9    76    77    1
    10    78    79    2
    11    78    77    1
    12    41    40    1
    13    96    98   ar
    14    97    99   ar
    15    77    80    1
    16    40    39    1
    17    40    43    1
    18    86    88   ar
    19    86    83   ar
    20    80    81    1
    21    98   100   ar
    22    88    89   ar
    23    99   100   ar
    24    51    49   ar
    25    51    52   ar
    26    49    46   ar
    27    83    81   ar
    28    83    85   ar
    29    81    82   ar
    30   100   101    1
    31    89    87   ar
    32    43    44    1
    33    52    50   ar
    34    82    84   ar
    35    85    87   ar
    36    85    84   ar
    37    46    44   ar
    38    46    48   ar
    39    44    45   ar
    40    50    48   ar
    41   107   106    1
    42    48    47   ar
    43    45    47   ar
    44    56    55    2
    45   106   103    1
    46   102   103    1
    47   112   109    1
    48   112   113    1
    49    55    54    1
    50   108   109    1
    51   108   104   am
    52   110   109    1
    53   110   111    2
    54   103   104    1
    55    53    54    1
    56   113   115   ar
    57   113   114   ar
    58   115   117   ar
    59    27    26    1
    60   104   105    2
    61    54    57    1
    62    12    11    1
    63   114   116   ar
    64    30    31    2
    65    30    29    1
    66   117   116   ar
    67    26    25    1
    68    10    11   ar
    69    10     8   ar
    70    28    29    1
    71    11     9   ar
    72    58    57    1
    73    58    59    1
    74    29    32    1
    75     8     6   ar
    76     9     7   ar
    77    25    24    1
    78    60    59    1
    79    60    61    2
    80    37    36    1
    81    24    21    1
    82    32    33    1
    83     6     7   ar
    84     6     5    1
    85    63    61    1
    86    33    34    1
    87    61    62    1
    88    23    22    2
    89    36    35    2
    90    36    38    1
    91    34    35    1
    92    22    21    1
    93    21    20    1
    94    72    70   ar
    95    72    74   ar
    96    75    74    1
    97     5     2    1
    98    70    69   ar
    99    74    73   ar
   100    67    66    2
   101     2     1    1
   102     2     3    1
   103    66    65    1
   104    69    71   ar
   105    69    68    1
   106    73    71   ar
   107    65    68    1
   108    65    64    1
   109    13     3   am
   110    13    14    1
   111    19    17    1
   112     3     4    2
   113    17    14    1
   114    17    18    1
   115    14    15    1
   116    16    15    2
