@<TRIPOS>MOLECULE
tmp/3e3nE00.pdb
 132 127 0 0 0
SMALL
GASTEIGER

@<TRIPOS>ATOM
      1  N          5.0920   30.5460  149.7330 N.3    60  TRP60      -0.1227
      2  CA         4.8270   29.1190  149.5980 C.3    60  TRP60       0.1737
      3  C          4.7330   28.6990  148.1260 C.2    60  TRP60       0.2595
      4  O          5.2900   27.6710  147.7330 O.2    60  TRP60      -0.2718
      5  CB         3.5400   28.7700  150.3390 C.3    60  TRP60       0.0564
      6  CG         3.2390   27.3060  150.3880 C.ar   60  TRP60       0.0003
      7  CD1        3.6890   26.4050  151.3110 C.ar   60  TRP60       0.0946
      8  CD2        2.4080   26.5690  149.4800 C.ar   60  TRP60       0.0152
      9  NE1        3.1950   25.1540  151.0340 N.ar   60  TRP60      -0.2442
     10  CE2        2.4050   25.2260  149.9150 C.ar   60  TRP60       0.0810
     11  CE3        1.6690   26.9140  148.3350 C.ar   60  TRP60       0.0012
     12  CZ2        1.6910   24.2190  149.2400 C.ar   60  TRP60       0.0191
     13  CZ3        0.9520   25.9070  147.6670 C.ar   60  TRP60       0.0001
     14  CH2        0.9720   24.5800  148.1250 C.ar   60  TRP60       0.0015
     15  N          4.0240   29.4920  147.3200 N.am   61  ILE61      -0.1980
     16  CA         3.9770   29.2900  145.8740 C.3    61  ILE61       0.1595
     17  C          5.4010   29.2960  145.3000 C.2    61  ILE61       0.2287
     18  O          5.7650   28.3950  144.5470 O.2    61  ILE61      -0.2864
     19  CB         3.0850   30.3610  145.1620 C.3    61  ILE61       0.0276
     20  CG1        1.5900   30.1680  145.4700 C.3    61  ILE61       0.0022
     21  CG2        3.2960   30.3580  143.6620 C.3    61  ILE61       0.0022
     22  CD1        0.9930   28.8730  144.9550 C.3    61  ILE61       0.0001
     23  N          7.5120   26.0770  146.6670 N.3    64  GLN64      -0.1231
     24  CA         7.1580   24.8090  146.0310 C.3    64  GLN64       0.1698
     25  C          7.5330   24.7630  144.5380 C.2    64  GLN64       0.2592
     26  O          7.8670   23.6980  144.0180 O.2    64  GLN64      -0.2718
     27  CB         5.6820   24.4610  146.2540 C.3    64  GLN64       0.0381
     28  CG         5.2410   24.4470  147.7130 C.3    64  GLN64       0.0905
     29  CD         6.1500   23.6350  148.6330 C.2    64  GLN64       0.2608
     30  OE1        6.4560   22.4700  148.3660 O.2    64  GLN64      -0.2717
     31  NE2        6.5640   24.2480  149.7350 N.am   64  GLN64      -0.0878
     32  N          7.4890   25.9150  143.8700 N.am   65  GLN65      -0.1979
     33  CA         7.9030   26.0150  142.4770 C.3    65  GLN65       0.1601
     34  C          9.3860   25.7460  142.4100 C.2    65  GLN65       0.2287
     35  O          9.8290   24.9180  141.6230 O.2    65  GLN65      -0.2864
     36  CB         7.6130   27.4040  141.9130 C.3    65  GLN65       0.0394
     37  CG         6.1750   27.6400  141.4930 C.3    65  GLN65       0.0908
     38  CD         5.8900   29.0980  141.1890 C.2    65  GLN65       0.2608
     39  OE1        6.7460   29.9690  141.3790 O.2    65  GLN65      -0.2717
     40  NE2        4.6800   29.3770  140.7140 N.am   65  GLN65      -0.0878
     41  N         10.3060   22.1850  142.4120 N.3    68  TYR68      -0.1241
     42  CA        10.1320   21.4840  141.1330 C.3    68  TYR68       0.1605
     43  C         11.2050   21.8050  140.0900 C.2    68  TYR68       0.2264
     44  O         11.4840   20.9870  139.2130 O.2    68  TYR68      -0.2867
     45  CB         8.7240   21.6400  140.5660 C.3    68  TYR68       0.0534
     46  CG         7.7320   20.7200  141.2260 C.ar   68  TYR68      -0.0201
     47  CD1        7.1080   21.0910  142.4150 C.ar   68  TYR68      -0.0009
     48  CD2        7.4340   19.4740  140.6850 C.ar   68  TYR68      -0.0009
     49  CE1        6.2020   20.2570  143.0570 C.ar   68  TYR68       0.0417
     50  CE2        6.5240   18.6190  141.3110 C.ar   68  TYR68       0.0417
     51  CZ         5.9010   19.0240  142.5070 C.ar   68  TYR68       0.1957
     52  OH         4.9770   18.2200  143.1540 O.3    68  TYR68      -0.2866
     53  N          8.2640   17.9780  154.3390 N.3   148  TYR148     -0.1241
     54  CA         6.8250   17.9340  154.5090 C.3   148  TYR148      0.1605
     55  C          6.4900   17.2990  155.8630 C.2   148  TYR148      0.2264
     56  O          7.1920   16.3920  156.3230 O.2   148  TYR148     -0.2867
     57  CB         6.1780   17.1310  153.3800 C.3   148  TYR148      0.0534
     58  CG         6.4770   17.6280  151.9760 C.ar  148  TYR148     -0.0201
     59  CD1        7.7590   17.5110  151.4310 C.ar  148  TYR148     -0.0009
     60  CD2        5.4670   18.1840  151.1770 C.ar  148  TYR148     -0.0009
     61  CE1        8.0400   17.9600  150.1450 C.ar  148  TYR148      0.0417
     62  CE2        5.7360   18.6250  149.8890 C.ar  148  TYR148      0.0417
     63  CZ         7.0300   18.5080  149.3800 C.ar  148  TYR148      0.1957
     64  OH         7.3270   18.9290  148.1050 O.3   148  TYR148     -0.2866
     65  N         -8.3890   20.4020  150.1280 N.3   186  ARG186     -0.1245
     66  CA        -8.0520   19.9370  148.7740 C.3   186  ARG186      0.1563
     67  C         -8.9430   18.7800  148.3020 C.2   186  ARG186      0.2260
     68  O         -8.4450   17.6670  148.0920 O.2   186  ARG186     -0.2867
     69  CB        -6.5750   19.5280  148.6740 C.3   186  ARG186      0.0307
     70  CG        -5.5720   20.5600  149.1480 C.3   186  ARG186      0.0489
     71  CD        -5.5510   21.7920  148.2750 C.3   186  ARG186      0.2205
     72  NE        -4.2740   22.4940  148.3790 N.pl3 186  ARG186     -0.0865
     73  CZ        -4.0110   23.6790  147.8240 C.cat 186  ARG186      0.5346
     74  NH1       -4.9460   24.3110  147.1220 N.pl3 186  ARG186      0.1354
     75  NH2       -2.8070   24.2370  147.9760 N.pl3 186  ARG186      0.1354
     76  N         -7.7960   16.4690  145.5030 N.3   189  PHE189     -0.1241
     77  CA        -6.7640   15.4420  145.7310 C.3   189  PHE189      0.1605
     78  C         -7.1790   14.3270  146.7030 C.2   189  PHE189      0.2264
     79  O         -6.3410   13.8040  147.4270 O.2   189  PHE189     -0.2867
     80  CB        -5.4320   16.0670  146.1930 C.3   189  PHE189      0.0534
     81  CG        -4.9070   17.1560  145.2790 C.ar  189  PHE189     -0.0203
     82  CD1       -4.6560   16.9020  143.9290 C.ar  189  PHE189     -0.0042
     83  CD2       -4.6510   18.4390  145.7800 C.ar  189  PHE189     -0.0042
     84  CE1       -4.1730   17.9100  143.0940 C.ar  189  PHE189     -0.0003
     85  CE2       -4.1650   19.4550  144.9490 C.ar  189  PHE189     -0.0003
     86  CZ        -3.9250   19.1880  143.6050 C.ar  189  PHE189     -0.0000
     87  N          5.3220   22.6110  153.4770 N.3   233  THR233     -0.1218
     88  CA         3.9520   22.1390  153.5980 C.3   233  THR233      0.1862
     89  C          3.7640   21.2720  154.8430 C.2   233  THR233      0.2287
     90  O          4.6600   20.5180  155.2280 O.2   233  THR233     -0.2866
     91  CB         3.4960   21.3400  152.3290 C.3   233  THR233      0.1770
     92  OG1        3.7500   22.0970  151.1340 O.3   233  THR233     -0.2211
     93  CG2        1.9980   21.0210  152.3910 C.3   233  THR233      0.0375
     94  N          0.6630   18.6820  155.5320 N.3   235  ARG235     -0.1245
     95  CA        -0.4830   18.0730  154.8760 C.3   235  ARG235      0.1563
     96  C         -1.1270   17.1490  155.9090 C.2   235  ARG235      0.2260
     97  O         -0.5100   16.1730  156.3680 O.2   235  ARG235     -0.2867
     98  CB         0.0030   17.2740  153.6570 C.3   235  ARG235      0.0307
     99  CG        -1.0520   16.7500  152.6780 C.3   235  ARG235      0.0489
    100  CD        -1.0900   17.6240  151.4500 C.3   235  ARG235      0.2205
    101  NE        -1.1600   16.8400  150.2240 N.pl3 235  ARG235     -0.0865
    102  CZ        -1.5230   17.3170  149.0300 C.cat 235  ARG235      0.5346
    103  NH1       -1.8840   18.5910  148.8700 N.pl3 235  ARG235      0.1354
    104  NH2       -1.5480   16.4900  147.9830 N.pl3 235  ARG235      0.1354
    105  N          3.3010    9.9240  143.8570 N.3   285  ARG285     -0.1231
    106  CA         2.8360   10.9310  142.9030 C.3   285  ARG285      0.1694
    107  C          3.9290   11.9870  142.6720 C.2   285  ARG285      0.2591
    108  O          4.3210   12.2410  141.5260 O.2   285  ARG285     -0.2718
    109  CB         1.5540   11.6060  143.3910 C.3   285  ARG285      0.0321
    110  CG         0.8130   12.3830  142.3200 C.3   285  ARG285      0.0489
    111  CD        -0.1980   13.3460  142.9200 C.3   285  ARG285      0.2205
    112  NE         0.4200   14.6180  143.2940 N.pl3 285  ARG285     -0.0865
    113  CZ         0.5730   15.0530  144.5450 C.cat 285  ARG285      0.5346
    114  NH1        0.1440   14.3280  145.5760 N.pl3 285  ARG285      0.1354
    115  NH2        1.1540   16.2250  144.7670 N.pl3 285  ARG285      0.1354
    116  N          4.4330   12.5740  143.7600 N.am  286  ARG286     -0.1980
    117  CA         5.4910   13.5700  143.6660 C.3   286  ARG286      0.1597
    118  C          6.7710   13.0230  143.0750 C.2   286  ARG286      0.2287
    119  O          7.4130   13.6980  142.2710 O.2   286  ARG286     -0.2864
    120  CB         5.7730   14.2320  145.0140 C.3   286  ARG286      0.0334
    121  CG         5.1900   15.6160  145.0930 C.3   286  ARG286      0.0492
    122  CD         5.5290   16.3570  146.3730 C.3   286  ARG286      0.2205
    123  NE         4.2910   16.8320  146.9740 N.pl3 286  ARG286     -0.0865
    124  CZ         3.7230   16.2650  148.0270 C.cat 286  ARG286      0.5346
    125  NH1        4.3040   15.2220  148.6180 N.pl3 286  ARG286      0.1354
    126  NH2        2.5790   16.7440  148.4960 N.pl3 286  ARG286      0.1354
    127  N          6.6320   12.9420  139.2760 N.3   289  SER289     -0.1217
    128  CA         6.6160   14.2610  138.6210 C.3   289  SER289      0.1889
    129  C          8.0070   14.8690  138.4220 C.2   289  SER289      0.2288
    130  O          8.1450   15.8570  137.6910 O.2   289  SER289     -0.2866
    131  CB         5.7400   15.2500  139.3900 C.3   289  SER289      0.2089
    132  OG         4.3720   15.0000  139.1600 O.3   289  SER289     -0.2183
@<TRIPOS>BOND
     1   130   129    2
     2   129   128    1
     3   128   127    1
     4   128   131    1
     5   132   131    1
     6    44    43    2
     7    43    42    1
     8    45    42    1
     9    45    46    1
    10    48    46   ar
    11    48    50   ar
    12    40    38   am
    13    42    41    1
    14    38    39    2
    15    38    37    1
    16    46    47   ar
    17    50    51   ar
    18    37    36    1
    19   108   107    2
    20    35    34    2
    21    36    33    1
    22   119   118    2
    23   110   111    1
    24   110   109    1
    25    34    33    1
    26    47    49   ar
    27    33    32    1
    28    51    49   ar
    29    51    52    1
    30   107   106    1
    31   107   116   am
    32   106   109    1
    33   106   105    1
    34   111   112    1
    35   118   117    1
    36    84    86   ar
    37    84    82   ar
    38   112   113    2
    39    86    85   ar
    40    21    19    1
    41   117   116    1
    42   117   120    1
    43    32    25   am
    44    82    81   ar
    45    26    25    2
    46    25    24    1
    47   113   115    1
    48   113   114    1
    49    18    17    2
    50    85    83   ar
    51    22    20    1
    52   120   121    1
    53   121   122    1
    54    19    20    1
    55    19    16    1
    56    81    83   ar
    57    81    80    1
    58    17    16    1
    59    76    77    1
    60    77    80    1
    61    77    78    1
    62    16    15    1
    63    24    27    1
    64    24    23    1
    65    27    28    1
    66   122   123    1
    67    78    79    2
    68   123   124    2
    69    74    73    1
    70    15     3   am
    71    13    14   ar
    72    13    11   ar
    73    28    29    1
    74     4     3    2
    75    73    75    1
    76    73    72    2
    77   104   102    1
    78   124   126    1
    79   124   125    1
    80    68    67    2
    81    64    63    1
    82    14    12   ar
    83     3     2    1
    84    71    72    1
    85    71    70    1
    86    67    66    1
    87    11     8   ar
    88    30    29    2
    89    29    31   am
    90    69    66    1
    91    69    70    1
    92    66    65    1
    93   103   102    1
    94   102   101    2
    95    12    10   ar
    96    63    62   ar
    97    63    61   ar
    98     8    10   ar
    99     8     6   ar
   100     2     1    1
   101     2     5    1
   102    62    60   ar
   103    10     9   ar
   104    61    59   ar
   105   101   100    1
   106     5     6    1
   107     6     7   ar
   108     9     7   ar
   109    92    91    1
   110    60    58   ar
   111    59    58   ar
   112   100    99    1
   113    58    57    1
   114    91    93    1
   115    91    88    1
   116    99    98    1
   117    57    54    1
   118    87    88    1
   119    88    89    1
   120    98    95    1
   121    53    54    1
   122    54    55    1
   123    89    90    2
   124    95    94    1
   125    95    96    1
   126    55    56    2
   127    96    97    2
