@<TRIPOS>MOLECULE
tmp/3e3sA03.pdb
 86 82 0 0 0
SMALL
GASTEIGER

@<TRIPOS>ATOM
      1  N         17.9220   18.8050   33.4640 N.3    49  LYS49      -0.1245
      2  CA        16.9130   19.7840   33.1020 C.3    49  LYS49       0.1561
      3  C         16.9310   20.0560   31.5950 C.2    49  LYS49       0.2260
      4  O         17.9680   20.1010   30.9570 O.2    49  LYS49      -0.2867
      5  CB        17.1020   21.1000   33.8480 C.3    49  LYS49       0.0271
      6  CG        17.1290   20.9370   35.3520 C.3    49  LYS49       0.0035
      7  CD        17.3410   22.2690   36.0320 C.3    49  LYS49       0.0206
      8  CE        17.6920   22.1670   37.4800 C.3    49  LYS49       0.1093
      9  NZ        16.8420   21.2940   38.3070 N.3    49  LYS49      -0.1314
     10  N         25.9690   24.2750   31.3640 N.3    79  ARG79      -0.1231
     11  CA        25.4510   24.6800   32.6650 C.3    79  ARG79       0.1694
     12  C         23.9790   25.0790   32.5600 C.2    79  ARG79       0.2592
     13  O         23.4850   25.2300   31.4440 O.2    79  ARG79      -0.2718
     14  CB        26.2370   25.8740   33.2200 C.3    79  ARG79       0.0321
     15  CG        27.6320   25.5750   33.7000 C.3    79  ARG79       0.0489
     16  CD        28.1480   26.7240   34.5510 C.3    79  ARG79       0.2205
     17  NE        28.0240   28.0180   33.8760 N.pl3  79  ARG79      -0.0865
     18  CZ        28.8660   28.4720   32.9480 C.cat  79  ARG79       0.5346
     19  NH1       29.9080   27.7400   32.5780 N.pl3  79  ARG79       0.1354
     20  NH2       28.6680   29.6600   32.3860 N.pl3  79  ARG79       0.1354
     21  N         23.3380   25.2690   33.7170 N.am   80  PHE80      -0.1962
     22  CA        21.9370   25.6680   33.7310 C.3    80  PHE80       0.1771
     23  C         21.7500   27.1000   33.2790 C.2    80  PHE80       0.2620
     24  O         22.6800   27.8830   33.1570 O.2    80  PHE80      -0.2715
     25  CB        21.3730   25.4480   35.1210 C.3    80  PHE80       0.0574
     26  CG        21.2280   24.0170   35.5420 C.ar   80  PHE80      -0.0200
     27  CD1       20.8130   23.0410   34.6500 C.ar   80  PHE80      -0.0042
     28  CD2       21.5180   23.6740   36.8660 C.ar   80  PHE80      -0.0042
     29  CE1       20.6770   21.7220   35.0490 C.ar   80  PHE80      -0.0003
     30  CE2       21.3710   22.3690   37.2760 C.ar   80  PHE80      -0.0003
     31  CZ        20.9420   21.4140   36.3690 C.ar   80  PHE80      -0.0000
     32  N         20.4910   27.4120   32.9950 N.am   81  GLY81      -0.1940
     33  CA        20.1410   28.6370   32.3090 C.3    81  GLY81       0.2014
     34  C         19.7230   29.7230   33.3060 C.2    81  GLY81       0.2639
     35  O         19.2430   29.4850   34.4030 O.2    81  GLY81      -0.2714
     36  N         19.9480   30.9370   32.8500 N.am   82  ARG82      -0.1963
     37  CA        19.5560   32.1610   33.5240 C.3    82  ARG82       0.1714
     38  C         18.0410   32.3120   33.6000 C.2    82  ARG82       0.2458
     39  O         17.4220   32.3170   32.5400 O.2    82  ARG82      -0.2730
     40  CB        20.1350   33.3680   32.7900 C.3    82  ARG82       0.0347
     41  CG        19.9770   34.6900   33.5310 C.3    82  ARG82       0.0492
     42  CD        20.9130   35.7160   32.8670 C.3    82  ARG82       0.2205
     43  NE        20.8750   36.9860   33.5720 N.pl3  82  ARG82      -0.0865
     44  CZ        19.9960   37.9450   33.3310 C.cat  82  ARG82       0.5346
     45  NH1       19.0400   37.8400   32.4150 N.pl3  82  ARG82       0.1354
     46  NH2       20.0550   39.0480   34.0390 N.pl3  82  ARG82       0.1354
     47  N         17.4770   32.4620   34.7850 N.am   83  PRO83      -0.2727
     48  CA        16.0240   32.6730   34.8770 C.3    83  PRO83       0.1402
     49  C         15.6090   33.9500   34.1530 C.2    83  PRO83       0.2269
     50  O         16.3910   34.8930   33.9690 O.2    83  PRO83      -0.2865
     51  CB        15.7960   32.8370   36.3740 C.3    83  PRO83       0.0296
     52  CG        16.9300   32.0690   36.9970 C.3    83  PRO83       0.0237
     53  CD        18.1060   32.4350   36.1140 C.3    83  PRO83       0.0939
     54  N         13.1160   30.6640   33.5280 N.3    85  THR85      -0.1218
     55  CA        13.1330   29.4650   32.7250 C.3    85  THR85       0.1862
     56  C         12.0980   28.4800   33.2720 C.2    85  THR85       0.2287
     57  O         12.2410   27.9830   34.3800 O.2    85  THR85      -0.2866
     58  CB        14.4750   28.7010   32.7640 C.3    85  THR85       0.1770
     59  OG1       14.8430   28.4970   34.1460 O.3    85  THR85      -0.2211
     60  CG2       15.5770   29.4680   32.0770 C.3    85  THR85       0.0375
     61  N         11.1040   24.8740   33.6660 N.3    87  LEU87      -0.1245
     62  CA        12.0260   23.7620   33.7590 C.3    87  LEU87       0.1561
     63  C         11.3380   22.3950   33.7460 C.2    87  LEU87       0.2260
     64  O         10.4960   22.1280   34.6070 O.2    87  LEU87      -0.2867
     65  CB        12.8300   23.8620   35.0530 C.3    87  LEU87       0.0270
     66  CG        13.8230   25.0110   35.1800 C.3    87  LEU87       0.0019
     67  CD1       14.3810   25.0580   36.5970 C.3    87  LEU87       0.0001
     68  CD2       14.9500   24.8800   34.1690 C.3    87  LEU87       0.0001
     69  N         12.3410   18.8020   34.6030 N.3    89  GLU89      -0.1245
     70  CA        13.3470   18.2820   35.5230 C.3    89  GLU89       0.1567
     71  C         13.1890   16.7750   35.6810 C.2    89  GLU89       0.2260
     72  O         12.0720   16.2690   35.7840 O.2    89  GLU89      -0.2867
     73  CB        13.1720   18.9540   36.8820 C.3    89  GLU89       0.0388
     74  CG        13.2980   20.4720   36.8450 C.3    89  GLU89       0.1160
     75  CD        13.2460   21.0390   38.2600 C.2    89  GLU89       0.3649
     76  OE1       12.3880   20.5700   39.0310 O.co2  89  GLU89      -0.2457
     77  OE2       14.0500   21.9370   38.5520 O.co2  89  GLU89      -0.2457
     78  N         12.4040   28.7420   39.1290 N.3   106  LYS106     -0.1245
     79  CA        13.3580   29.6220   38.4420 C.3   106  LYS106      0.1561
     80  C         12.6110   30.4740   37.4160 C.2   106  LYS106      0.2260
     81  O         13.1190   30.9520   36.4120 O.2   106  LYS106     -0.2867
     82  CB        14.4540   28.7880   37.8170 C.3   106  LYS106      0.0271
     83  CG        15.4400   28.1590   38.7800 C.3   106  LYS106      0.0035
     84  CD        16.2820   29.2420   39.4360 C.3   106  LYS106      0.0206
     85  CE        17.2190   28.6590   40.4920 C.3   106  LYS106      0.1093
     86  NZ        18.0220   29.7600   41.1150 N.3   106  LYS106     -0.1314
@<TRIPOS>BOND
     1     4     3    2
     2    10    11    1
     3    13    12    2
     4     3     2    1
     5    60    58    1
     6    33    32    1
     7    33    34    1
     8    20    18    1
     9    45    44    1
    10    39    38    2
    11    12    11    1
    12    12    21   am
    13    19    18    1
    14    11    14    1
    15    55    58    1
    16    55    56    1
    17    55    54    1
    18    58    59    1
    19    40    37    1
    20    40    41    1
    21    36    34   am
    22    36    37    1
    23    42    41    1
    24    42    43    1
    25    18    17    2
    26    32    23   am
    27     2     1    1
    28     2     5    1
    29    24    23    2
    30    14    15    1
    31    56    57    2
    32    23    22    1
    33    34    35    2
    34    44    43    2
    35    44    46    1
    36    37    38    1
    37    38    47   am
    38    61    62    1
    39    15    16    1
    40    21    22    1
    41    22    25    1
    42    63    62    1
    43    63    64    2
    44    62    65    1
    45     5     6    1
    46    17    16    1
    47    50    49    2
    48    49    48    1
    49    68    66    1
    50    69    70    1
    51    27    29   ar
    52    27    26   ar
    53    47    48    1
    54    47    53    1
    55    48    51    1
    56    29    31   ar
    57    65    66    1
    58    25    26    1
    59    66    67    1
    60     6     7    1
    61    70    71    1
    62    70    73    1
    63    26    28   ar
    64    71    72    2
    65     7     8    1
    66    53    52    1
    67    31    30   ar
    68    51    52    1
    69    81    80    2
    70    74    73    1
    71    74    75    1
    72    28    30   ar
    73    80    79    1
    74     8     9    1
    75    82    79    1
    76    82    83    1
    77    75    77   ar
    78    75    76   ar
    79    79    78    1
    80    83    84    1
    81    84    85    1
    82    85    86    1
