@<TRIPOS>MOLECULE
tmp/3e3uA02.pdb
 68 64 0 0 0
SMALL
GASTEIGER

@<TRIPOS>ATOM
      1  N         10.4890   65.6750    5.5740 N.3    10  ASP10      -0.1225
      2  CA         9.6640   64.7850    4.7710 C.3    10  ASP10       0.1790
      3  C          8.3490   64.5400    5.5170 C.2    10  ASP10       0.2440
      4  O          8.3680   64.0500    6.6400 O.2    10  ASP10      -0.2733
      5  CB        10.3950   63.4560    4.5390 C.3    10  ASP10       0.1423
      6  CG         9.6490   62.5360    3.5760 C.2    10  ASP10       0.3668
      7  OD1        8.3940   62.4940    3.6140 O.co2  10  ASP10      -0.2456
      8  OD2       10.3160   61.8440    2.7930 O.co2  10  ASP10      -0.2456
      9  N          7.2000   64.8710    4.8910 N.am   11  PRO11      -0.2718
     10  CA         5.8880   64.7010    5.5500 C.3    11  PRO11       0.1535
     11  C          5.6330   63.3120    6.1830 C.2    11  PRO11       0.2598
     12  O          4.9340   63.2150    7.1950 O.2    11  PRO11      -0.2715
     13  CB         4.8910   64.9350    4.4070 C.3    11  PRO11       0.0310
     14  CG         5.6050   65.8350    3.4660 C.3    11  PRO11       0.0237
     15  CD         7.0720   65.4590    3.5430 C.3    11  PRO11       0.0939
     16  N          6.1900   62.2600    5.5900 N.am   12  VAL12      -0.1978
     17  CA         5.9650   60.9000    6.0900 C.3    12  VAL12       0.1596
     18  C          6.5450   60.7290    7.4940 C.2    12  VAL12       0.2287
     19  O          6.1030   59.8590    8.2480 O.2    12  VAL12      -0.2864
     20  CB         6.4730   59.8010    5.1260 C.3    12  VAL12       0.0276
     21  CG1        7.9840   59.6380    5.1910 C.3    12  VAL12       0.0022
     22  CG2        5.7870   58.4700    5.4250 C.3    12  VAL12       0.0022
     23  N          3.7520   62.7410   10.3520 N.3    15  THR15      -0.1218
     24  CA         2.3730   62.3680   10.5990 C.3    15  THR15       0.1862
     25  C          2.2840   60.9190   11.0860 C.2    15  THR15       0.2287
     26  O          3.1580   60.0930   10.7830 O.2    15  THR15      -0.2866
     27  CB         1.4870   62.6470    9.3800 C.3    15  THR15       0.1770
     28  OG1        0.1060   62.6030    9.7730 O.3    15  THR15      -0.2211
     29  CG2        1.7580   61.6660    8.2500 C.3    15  THR15       0.0375
     30  N         -0.2290   54.5200    9.7460 N.3    18  THR18      -0.1218
     31  CA        -1.4320   53.7020    9.7270 C.3    18  THR18       0.1862
     32  C         -1.1010   52.3120   10.2760 C.2    18  THR18       0.2287
     33  O         -0.0960   51.7090    9.8890 O.2    18  THR18      -0.2866
     34  CB        -1.9700   53.6210    8.2800 C.3    18  THR18       0.1770
     35  OG1       -2.3020   54.9460    7.8280 O.3    18  THR18      -0.2211
     36  CG2       -3.1980   52.7160    8.1850 C.3    18  THR18       0.0375
     37  N          8.7390   43.8170    3.3120 N.3    35  LEU35      -0.1245
     38  CA         8.9390   45.1280    3.9270 C.3    35  LEU35       0.1561
     39  C          9.8070   44.9980    5.1750 C.2    35  LEU35       0.2260
     40  O         10.7200   45.7830    5.3720 O.2    35  LEU35      -0.2867
     41  CB         7.6060   45.7790    4.2880 C.3    35  LEU35       0.0270
     42  CG         7.6710   47.0620    5.1340 C.3    35  LEU35       0.0019
     43  CD1        8.3770   48.2030    4.3840 C.3    35  LEU35       0.0001
     44  CD2        6.2760   47.5120    5.6070 C.3    35  LEU35       0.0001
     45  N          9.9040   55.7350    4.2680 N.3    57  GLY57      -0.1210
     46  CA         8.8370   56.2910    3.4490 C.3    57  GLY57       0.1956
     47  C          7.5670   55.4720    3.4580 C.2    57  GLY57       0.2612
     48  O          6.6690   55.7130    2.6410 O.2    57  GLY57      -0.2717
     49  N          7.4900   54.5150    4.3850 N.am   58  CYS58      -0.1956
     50  CA         6.3400   53.6230    4.5340 C.3    58  CYS58       0.1843
     51  C          5.5430   53.9720    5.7950 C.2    58  CYS58       0.2626
     52  O          6.0150   53.7390    6.9140 O.2    58  CYS58      -0.2714
     53  CB         6.8120   52.1680    4.6300 C.3    58  CYS58       0.0997
     54  SG         5.4490   50.9960    4.8040 S.3    58  CYS58      -0.0797
     55  N          4.3320   54.4950    5.6090 N.am   59  SER59      -0.1936
     56  CA         3.5370   55.0160    6.7160 C.3    59  SER59       0.2055
     57  C          2.7190   53.8970    7.3560 C.2    59  SER59       0.2642
     58  O          1.4700   53.9560    7.4030 O.2    59  SER59      -0.2714
     59  CB         2.6270   56.1680    6.2390 C.3    59  SER59       0.2130
     60  OG         2.0960   56.9010    7.3360 O.3    59  SER59      -0.2179
     61  N          3.4300   52.8790    7.8440 N.am   60  LEU60      -0.1977
     62  CA         2.8060   51.7420    8.5400 C.3    60  LEU60       0.1596
     63  C          3.3760   51.5930    9.9470 C.2    60  LEU60       0.2287
     64  O          4.5460   51.9050   10.1780 O.2    60  LEU60      -0.2864
     65  CB         3.0300   50.4500    7.7730 C.3    60  LEU60       0.0297
     66  CG         2.2500   50.2990    6.4550 C.3    60  LEU60       0.0022
     67  CD1        2.5390   48.9440    5.8600 C.3    60  LEU60       0.0001
     68  CD2        0.7230   50.4390    6.6750 C.3    60  LEU60       0.0001
@<TRIPOS>BOND
     1    48    47    2
     2     8     6   ar
     3    37    38    1
     4    46    47    1
     5    46    45    1
     6    47    49   am
     7    14    15    1
     8    14    13    1
     9    15     9    1
    10     6     7   ar
    11     6     5    1
    12    38    41    1
    13    38    39    1
    14    41    42    1
    15    43    42    1
    16    49    50    1
    17    13    10    1
    18    50    53    1
    19    50    51    1
    20     5     2    1
    21    53    54    1
    22     2     3    1
    23     2     1    1
    24     9     3   am
    25     9    10    1
    26    20    21    1
    27    20    22    1
    28    20    17    1
    29    42    44    1
    30    39    40    2
    31     3     4    2
    32    10    11    1
    33    16    17    1
    34    16    11   am
    35    55    51   am
    36    55    56    1
    37    51    52    2
    38    67    66    1
    39    17    18    1
    40    11    12    2
    41    59    56    1
    42    59    60    1
    43    66    68    1
    44    66    65    1
    45    56    57    1
    46    57    58    2
    47    57    61   am
    48    18    19    2
    49    65    62    1
    50    35    34    1
    51    61    62    1
    52    36    34    1
    53    29    27    1
    54    34    31    1
    55    62    63    1
    56    27    28    1
    57    27    24    1
    58    31    30    1
    59    31    32    1
    60    33    32    2
    61    63    64    2
    62    23    24    1
    63    24    25    1
    64    26    25    2
