@<TRIPOS>MOLECULE
tmp/3e3uA01.pdb
 95 89 0 0 0
SMALL
GASTEIGER

@<TRIPOS>ATOM
      1  N         16.0650   44.7430    0.8300 N.3     1  ALA1       -0.1231
      2  CA        16.9130   45.7670    0.1470 C.3     1  ALA1        0.1694
      3  C         17.3360   46.8720    1.1030 C.2     1  ALA1        0.2592
      4  O         16.6610   47.1220    2.1200 O.2     1  ALA1       -0.2718
      5  CB        16.1580   46.3730   -1.0370 C.3     1  ALA1        0.0304
      6  N         18.4490   47.5260    0.7710 N.am    2  VAL2       -0.1966
      7  CA        18.8430   48.7570    1.4540 C.3     2  VAL2        0.1727
      8  C         18.2600   49.9280    0.6710 C.2     2  VAL2        0.2616
      9  O         18.5320   50.0920   -0.5370 O.2     2  VAL2       -0.2715
     10  CB        20.3670   48.8920    1.5830 C.3     2  VAL2        0.0290
     11  CG1       20.7310   50.2110    2.2660 C.3     2  VAL2        0.0023
     12  CG2       20.9400   47.6990    2.3430 C.3     2  VAL2        0.0023
     13  N         17.4340   50.7110    1.3520 N.am    3  VAL3       -0.1964
     14  CA        16.7170   51.8270    0.7230 C.3     3  VAL3        0.1712
     15  C         16.9810   53.1650    1.4310 C.2     3  VAL3        0.2458
     16  O         17.4840   53.1770    2.5570 O.2     3  VAL3       -0.2730
     17  CB        15.1850   51.5440    0.6120 C.3     3  VAL3        0.0289
     18  CG1       14.9330   50.1900   -0.0610 C.3     3  VAL3        0.0023
     19  CG2       14.5060   51.5790    1.9880 C.3     3  VAL3        0.0023
     20  N         16.6660   54.2970    0.7670 N.am    4  PRO4       -0.2727
     21  CA        16.9340   55.5800    1.4060 C.3     4  PRO4        0.1402
     22  C         16.1920   55.8130    2.7230 C.2     4  PRO4        0.2269
     23  O         15.0510   55.3610    2.9080 O.2     4  PRO4       -0.2865
     24  CB        16.4920   56.6040    0.3530 C.3     4  PRO4        0.0296
     25  CG        16.6410   55.8590   -0.9540 C.3     4  PRO4        0.0237
     26  CD        16.1530   54.4830   -0.6080 C.3     4  PRO4        0.0939
     27  N         14.6130   58.7750    4.9480 N.3     6  ARG6       -0.1245
     28  CA        14.0850   60.1180    4.7950 C.3     6  ARG6        0.1563
     29  C         14.6100   61.0270    5.8970 C.2     6  ARG6        0.2260
     30  O         14.7900   60.5910    7.0440 O.2     6  ARG6       -0.2867
     31  CB        12.5510   60.0950    4.8140 C.3     6  ARG6        0.0307
     32  CG        11.9100   59.0410    3.9140 C.3     6  ARG6        0.0489
     33  CD        12.3910   59.1790    2.4530 C.3     6  ARG6        0.2205
     34  NE        11.7510   58.2060    1.5670 N.pl3   6  ARG6       -0.0865
     35  CZ        10.5430   58.3610    1.0220 C.cat   6  ARG6        0.5346
     36  NH1        9.8280   59.4540    1.2660 N.pl3   6  ARG6        0.1354
     37  NH2       10.0440   57.4120    0.2370 N.pl3   6  ARG6        0.1354
     38  N          2.5940   40.1290    2.0340 N.3    31  ASP31      -0.1239
     39  CA         3.7770   40.8340    1.5310 C.3    31  ASP31       0.1674
     40  C          4.5030   41.6360    2.6230 C.2    31  ASP31       0.2266
     41  O          5.5070   42.3040    2.3670 O.2    31  ASP31      -0.2867
     42  CB         3.4170   41.6870    0.3010 C.3    31  ASP31       0.1410
     43  CG         3.0470   40.8280   -0.9100 C.2    31  ASP31       0.3668
     44  OD1        3.4390   39.6400   -0.9450 O.co2  31  ASP31      -0.2456
     45  OD2        2.3730   41.3360   -1.8340 O.co2  31  ASP31      -0.2456
     46  N          8.4920   41.0410    3.1440 N.3    34  GLN34      -0.1231
     47  CA         9.4460   41.7390    2.2960 C.3    34  GLN34       0.1698
     48  C          9.7590   43.1350    2.8220 C.2    34  GLN34       0.2592
     49  O         10.8770   43.5890    2.7470 O.2    34  GLN34      -0.2718
     50  CB         8.9220   41.8880    0.8610 C.3    34  GLN34       0.0381
     51  CG         8.6600   40.6070    0.1480 C.3    34  GLN34       0.0905
     52  CD         7.6840   40.7890   -1.0060 C.2    34  GLN34       0.2608
     53  OE1        6.9900   39.8560   -1.3820 O.2    34  GLN34      -0.2717
     54  NE2        7.6430   41.9870   -1.5690 N.am   34  GLN34      -0.0878
     55  N          8.7390   43.8170    3.3120 N.am   35  LEU35      -0.1980
     56  CA         8.9390   45.1280    3.9270 C.3    35  LEU35       0.1596
     57  C          9.8070   44.9980    5.1750 C.2    35  LEU35       0.2287
     58  O         10.7200   45.7830    5.3720 O.2    35  LEU35      -0.2864
     59  CB         7.6060   45.7790    4.2880 C.3    35  LEU35       0.0297
     60  CG         7.6710   47.0620    5.1340 C.3    35  LEU35       0.0022
     61  CD1        8.3770   48.2030    4.3840 C.3    35  LEU35       0.0001
     62  CD2        6.2760   47.5120    5.6070 C.3    35  LEU35       0.0001
     63  N         13.4560   44.4990    4.2610 N.3    38  THR38      -0.1218
     64  CA        14.0460   45.7740    3.8700 C.3    38  THR38       0.1862
     65  C         14.3450   46.6720    5.0700 C.2    38  THR38       0.2287
     66  O         15.3870   47.3370    5.1200 O.2    38  THR38      -0.2866
     67  CB        13.1980   46.4760    2.7970 C.3    38  THR38       0.1770
     68  OG1       13.4490   45.8220    1.5450 O.3    38  THR38      -0.2211
     69  CG2       13.5720   47.9530    2.6720 C.3    38  THR38       0.0375
     70  N         11.6780   54.9490    6.1260 N.3    56  ILE56      -0.1231
     71  CA        11.9580   54.5270    4.7480 C.3    56  ILE56       0.1692
     72  C         10.8020   54.8690    3.7950 C.2    56  ILE56       0.2593
     73  O         10.7620   54.3800    2.6570 O.2    56  ILE56      -0.2718
     74  CB        12.4480   53.0600    4.6270 C.3    56  ILE56       0.0266
     75  CG1       11.3950   52.0690    5.1460 C.3    56  ILE56       0.0019
     76  CG2       13.8220   52.9190    5.3280 C.3    56  ILE56       0.0020
     77  CD1       11.7030   50.6090    4.8000 C.3    56  ILE56       0.0001
     78  N          9.9040   55.7350    4.2680 N.am   57  GLY57      -0.1942
     79  CA         8.8370   56.2910    3.4490 C.3    57  GLY57       0.2014
     80  C          7.5670   55.4720    3.4580 C.2    57  GLY57       0.2639
     81  O          6.6690   55.7130    2.6410 O.2    57  GLY57      -0.2714
     82  N          7.4900   54.5150    4.3850 N.am   58  CYS58      -0.1967
     83  CA         6.3400   53.6230    4.5340 C.3    58  CYS58       0.1712
     84  C          5.5430   53.9720    5.7950 C.2    58  CYS58       0.2296
     85  O          6.0150   53.7390    6.9140 O.2    58  CYS58      -0.2864
     86  CB         6.8120   52.1680    4.6300 C.3    58  CYS58       0.0983
     87  SG         5.4490   50.9960    4.8040 S.3    58  CYS58      -0.0798
     88  N         21.2510   57.5130    1.5260 N.3   186  LEU186     -0.1245
     89  CA        21.1970   56.1070    1.1940 C.3   186  LEU186      0.1561
     90  C         22.3380   55.3790    1.8900 C.2   186  LEU186      0.2260
     91  O         23.4920   55.5030    1.4750 O.2   186  LEU186     -0.2867
     92  CB        21.2680   55.8980   -0.3320 C.3   186  LEU186      0.0270
     93  CG        21.2260   54.4450   -0.8250 C.3   186  LEU186      0.0019
     94  CD1       20.0850   53.6390   -0.1930 C.3   186  LEU186      0.0001
     95  CD2       21.1380   54.3900   -2.3470 C.3   186  LEU186      0.0001
@<TRIPOS>BOND
     1    95    93    1
     2    45    43   ar
     3    54    52   am
     4    53    52    2
     5     5     2    1
     6    52    51    1
     7    25    26    1
     8    25    24    1
     9    44    43   ar
    10    43    42    1
    11    93    92    1
    12    93    94    1
    13    26    20    1
    14     9     8    2
    15    92    89    1
    16    18    17    1
    17     2     1    1
    18     2     3    1
    19    51    50    1
    20    37    35    1
    21    42    39    1
    22    24    21    1
    23    17    14    1
    24    17    19    1
    25     8    13   am
    26     8     7    1
    27    14    13    1
    28    14    15    1
    29    20    21    1
    30    20    15   am
    31     6     3   am
    32     6     7    1
    33    50    47    1
    34    35    36    1
    35    35    34    2
    36     3     4    2
    37    89    88    1
    38    89    90    1
    39    21    22    1
    40    15    16    2
    41     7    10    1
    42    91    90    2
    43    39    38    1
    44    39    40    1
    45    68    67    1
    46    34    33    1
    47    10    11    1
    48    10    12    1
    49    47    48    1
    50    47    46    1
    51    41    40    2
    52    33    32    1
    53    81    80    2
    54    73    72    2
    55    69    67    1
    56    22    23    2
    57    49    48    2
    58    67    64    1
    59    48    55   am
    60    55    56    1
    61    79    80    1
    62    79    78    1
    63    80    82   am
    64    72    78   am
    65    72    71    1
    66    64    63    1
    67    64    65    1
    68    32    31    1
    69    56    59    1
    70    56    57    1
    71    59    60    1
    72    61    60    1
    73    82    83    1
    74    83    86    1
    75    83    84    1
    76    74    71    1
    77    74    75    1
    78    74    76    1
    79    86    87    1
    80    71    70    1
    81    28    31    1
    82    28    27    1
    83    28    29    1
    84    77    75    1
    85    65    66    2
    86    60    62    1
    87    57    58    2
    88    84    85    2
    89    29    30    2
