@<TRIPOS>MOLECULE
tmp/3e3uA00.pdb
 142 136 0 0 0
SMALL
GASTEIGER

@<TRIPOS>ATOM
      1  N         23.8050   51.2100   10.3920 N.3    47  ASN47      -0.1225
      2  CA        24.3990   51.0420   11.7120 C.3    47  ASN47       0.1785
      3  C         23.4780   51.5110   12.8280 C.2    47  ASN47       0.2598
      4  O         23.9000   52.0990   13.8040 O.2    47  ASN47      -0.2718
      5  CB        25.7850   51.6900   11.7830 C.3    47  ASN47       0.1169
      6  CG        26.7810   50.9920   10.8880 C.2    47  ASN47       0.2627
      7  OD1       26.8940   49.7800   10.9110 O.2    47  ASN47      -0.2716
      8  ND2       27.4530   51.7510   10.0570 N.am   47  ASN47      -0.0877
      9  N         22.2000   51.2340   12.6260 N.am   48  GLY48      -0.1942
     10  CA        21.1690   51.5770   13.6000 C.3    48  GLY48       0.2014
     11  C         20.9150   50.5200   14.6590 C.2    48  GLY48       0.2639
     12  O         21.2140   49.3290   14.4560 O.2    48  GLY48      -0.2714
     13  N         20.3460   50.9500   15.7950 N.am   49  VAL49      -0.1963
     14  CA        19.8240   50.0310   16.8220 C.3    49  VAL49       0.1727
     15  C         18.3060   49.8760   16.7300 C.2    49  VAL49       0.2616
     16  O         17.7050   49.0750   17.4440 O.2    49  VAL49      -0.2715
     17  CB        20.1690   50.4590   18.2950 C.3    49  VAL49       0.0290
     18  CG1       21.6730   50.4180   18.5430 C.3    49  VAL49       0.0023
     19  CG2       19.5890   51.8160   18.6540 C.3    49  VAL49       0.0023
     20  N         17.7120   50.6600   15.8330 N.am   50  GLY50      -0.1955
     21  CA        16.2620   50.6470   15.6000 C.3    50  GLY50       0.1869
     22  C         15.9880   51.3040   14.2510 C.2    50  GLY50       0.2309
     23  O         16.8440   52.0180   13.7190 O.2    50  GLY50      -0.2863
     24  N         10.5210   55.9420    8.4140 N.3    55  GLN55      -0.1245
     25  CA        11.8580   56.4270    8.0570 C.3    55  GLN55       0.1566
     26  C         12.2940   56.0090    6.6590 C.2    55  GLN55       0.2260
     27  O         13.2370   56.5990    6.1160 O.2    55  GLN55      -0.2867
     28  CB        12.9000   55.9370    9.0460 C.3    55  GLN55       0.0367
     29  CG        12.8140   56.5890   10.4050 C.3    55  GLN55       0.0905
     30  CD        13.9290   56.0950   11.2950 C.2    55  GLN55       0.2608
     31  OE1       13.8780   54.9780   11.8070 O.2    55  GLN55      -0.2717
     32  NE2       14.9730   56.9150   11.4500 N.am   55  GLN55      -0.0878
     33  N         21.1520   61.6570   22.3670 N.3   103  GLU103     -0.1231
     34  CA        20.3310   60.8150   21.5010 C.3   103  GLU103      0.1699
     35  C         20.3690   61.3940   20.0920 C.2   103  GLU103      0.2593
     36  O         20.3640   62.6180   19.9140 O.2   103  GLU103     -0.2718
     37  CB        18.8870   60.8110   22.0040 C.3   103  GLU103      0.0402
     38  CG        17.9990   59.7870   21.2920 C.3   103  GLU103      0.1161
     39  CD        16.5910   59.6850   21.8520 C.2   103  GLU103      0.3649
     40  OE1       16.3880   59.8790   23.0630 O.co2 103  GLU103     -0.2457
     41  OE2       15.6720   59.4030   21.0630 O.co2 103  GLU103     -0.2457
     42  N         20.3950   60.5100   19.0970 N.am  104  GLY104     -0.1942
     43  CA        20.3080   60.9200   17.7040 C.3   104  GLY104      0.2014
     44  C         19.3010   60.0920   16.9230 C.2   104  GLY104      0.2639
     45  O         18.6140   59.2230   17.4750 O.2   104  GLY104     -0.2714
     46  N         19.2300   60.3730   15.6260 N.am  105  CYS105     -0.1953
     47  CA        18.2590   59.7420   14.7430 C.3   105  CYS105      0.1843
     48  C         18.8380   59.6880   13.3400 C.2   105  CYS105      0.2625
     49  O         19.4600   60.6590   12.8640 O.2   105  CYS105     -0.2714
     50  CB        16.9720   60.5830   14.7140 C.3   105  CYS105      0.0997
     51  SG        15.6310   59.8910   13.6900 S.3   105  CYS105     -0.0797
     52  N         18.6290   58.5620   12.6770 N.am  106  LEU106     -0.1977
     53  CA        19.0940   58.4450   11.3040 C.3   106  LEU106      0.1596
     54  C         18.3600   59.3900   10.3490 C.2   106  LEU106      0.2287
     55  O         18.8660   59.6670    9.2540 O.2   106  LEU106     -0.2864
     56  CB        19.0390   56.9930   10.8240 C.3   106  LEU106      0.0297
     57  CG        19.9110   56.0150   11.6200 C.3   106  LEU106      0.0022
     58  CD1       19.4650   54.5940   11.3290 C.3   106  LEU106      0.0001
     59  CD2       21.3870   56.1930   11.2880 C.3   106  LEU106      0.0001
     60  N         23.1910   64.8860   17.3260 N.3   112  SER112     -0.1217
     61  CA        22.6220   64.3020   18.5310 C.3   112  SER112      0.1889
     62  C         22.4700   65.4090   19.5590 C.2   112  SER112      0.2288
     63  O         23.2270   66.3700   19.5270 O.2   112  SER112     -0.2866
     64  CB        23.5240   63.1940   19.0790 C.3   112  SER112      0.2089
     65  OG        24.8000   63.7040   19.4530 O.3   112  SER112     -0.2183
     66  N         19.2330   52.3890   27.4900 N.3   140  LEU140     -0.1245
     67  CA        19.2810   52.4970   26.0290 C.3   140  LEU140      0.1561
     68  C         18.1070   51.8010   25.3550 C.2   140  LEU140      0.2260
     69  O         17.5300   52.3300   24.3920 O.2   140  LEU140     -0.2867
     70  CB        20.6020   51.9340   25.4760 C.3   140  LEU140      0.0270
     71  CG        20.7540   51.8470   23.9480 C.3   140  LEU140      0.0019
     72  CD1       20.7810   53.2510   23.2970 C.3   140  LEU140      0.0001
     73  CD2       22.0100   51.0150   23.5830 C.3   140  LEU140      0.0001
     74  N         15.0650   53.8270   25.7880 N.3   143  ARG143     -0.1231
     75  CA        15.1760   55.0170   24.9370 C.3   143  ARG143      0.1694
     76  C         14.7990   54.6550   23.4930 C.2   143  ARG143      0.2591
     77  O         14.0340   55.3790   22.8420 O.2   143  ARG143     -0.2718
     78  CB        16.5930   55.5650   24.9970 C.3   143  ARG143      0.0321
     79  CG        16.7880   56.8150   24.1720 C.3   143  ARG143      0.0489
     80  CD        18.2240   57.3490   24.3430 C.3   143  ARG143      0.2205
     81  NE        18.5310   57.7090   25.7360 N.pl3 143  ARG143     -0.0865
     82  CZ        18.2660   58.8940   26.2850 C.cat 143  ARG143      0.5346
     83  NH1       17.6900   59.8750   25.5780 N.pl3 143  ARG143      0.1354
     84  NH2       18.6100   59.1030   27.5630 N.pl3 143  ARG143      0.1354
     85  N         15.3180   53.5220   23.0190 N.am  144  MET144     -0.1979
     86  CA        15.0280   53.0350   21.6600 C.3   144  MET144      0.1605
     87  C         13.5160   52.8270   21.4860 C.2   144  MET144      0.2287
     88  O         12.9230   53.2820   20.5060 O.2   144  MET144     -0.2864
     89  CB        15.8010   51.7410   21.3960 C.3   144  MET144      0.0413
     90  CG        15.5680   51.1520   20.0100 C.3   144  MET144      0.0598
     91  SD        14.0880   50.1100   19.9720 S.3   144  MET144     -0.1393
     92  CE        14.6780   48.7490   21.0030 C.3   144  MET144      0.0692
     93  N         11.8190   56.1200   21.2130 N.3   147  HIS147     -0.1226
     94  CA        12.2230   56.7370   19.9640 C.3   147  HIS147      0.1752
     95  C         11.4730   56.1470   18.7640 C.2   147  HIS147      0.2595
     96  O         10.9570   56.8720   17.9550 O.2   147  HIS147     -0.2718
     97  CB        13.7390   56.5450   19.8180 C.3   147  HIS147      0.0759
     98  CG        14.3290   57.1320   18.5790 C.ar  147  HIS147      0.0818
     99  ND1       15.2390   58.1650   18.6030 N.ar  147  HIS147     -0.2268
    100  CD2       14.1820   56.7890   17.2830 C.ar  147  HIS147      0.1154
    101  CE1       15.6100   58.4420   17.3670 C.ar  147  HIS147      0.1986
    102  NE2       14.9800   57.6220   16.5520 N.ar  147  HIS147     -0.2212
    103  N         11.3870   54.8220   18.6810 N.am  148  GLU148     -0.1979
    104  CA        10.7130   54.2180   17.5130 C.3   148  GLU148      0.1602
    105  C          9.2130   54.4520   17.5420 C.2   148  GLU148      0.2287
    106  O          8.6060   54.7830   16.5260 O.2   148  GLU148     -0.2864
    107  CB        10.9740   52.7150   17.4180 C.3   148  GLU148      0.0415
    108  CG        12.4430   52.3080   17.4450 C.3   148  GLU148      0.1163
    109  CD        13.3360   53.1540   16.5490 C.2   148  GLU148      0.3649
    110  OE1       12.8430   53.7410   15.5400 O.co2 148  GLU148     -0.2457
    111  OE2       14.5540   53.2020   16.8320 O.co2 148  GLU148     -0.2457
    112  N          8.4890   57.8580   16.2360 N.3   151  HIS151     -0.1241
    113  CA         8.4310   57.9260   14.7790 C.3   151  HIS151      0.1621
    114  C          7.0390   57.5090   14.3250 C.2   151  HIS151      0.2264
    115  O          6.4430   58.1670   13.5040 O.2   151  HIS151     -0.2867
    116  CB         9.4380   56.9620   14.1220 C.3   151  HIS151      0.0745
    117  CG        10.8360   57.4830   14.0150 C.ar  151  HIS151      0.0817
    118  ND1       11.1550   58.6550   13.3640 N.ar  151  HIS151     -0.2268
    119  CD2       12.0020   56.9690   14.4590 C.ar  151  HIS151      0.1154
    120  CE1       12.4610   58.8370   13.4180 C.ar  151  HIS151      0.1986
    121  NE2       12.9930   57.8310   14.0760 N.ar  151  HIS151     -0.2212
    122  N         27.3570   59.1130   11.0960 N.3   194  PHE194     -0.1241
    123  CA        27.6870   59.0850   12.5240 C.3   194  PHE194      0.1605
    124  C         29.1090   58.5950   12.8370 C.2   194  PHE194      0.2264
    125  O         29.4220   58.2390   13.9820 O.2   194  PHE194     -0.2867
    126  CB        26.6360   58.2770   13.2910 C.3   194  PHE194      0.0534
    127  CG        25.3230   58.9870   13.4120 C.ar  194  PHE194     -0.0203
    128  CD1       24.2550   58.6580   12.5800 C.ar  194  PHE194     -0.0042
    129  CD2       25.1620   60.0170   14.3430 C.ar  194  PHE194     -0.0042
    130  CE1       23.0280   59.3290   12.6840 C.ar  194  PHE194     -0.0003
    131  CE2       23.9340   60.7000   14.4630 C.ar  194  PHE194     -0.0003
    132  CZ        22.8710   60.3560   13.6220 C.ar  194  PHE194     -0.0000
    133  N         30.4270   55.9630   11.8820 N.3   196  HIS196     -0.1241
    134  CA        30.3920   54.5250   12.1400 C.3   196  HIS196      0.1621
    135  C         30.7150   53.7420   10.8590 C.2   196  HIS196      0.2264
    136  O         30.6530   52.5100   10.8420 O.2   196  HIS196     -0.2867
    137  CB        29.0320   54.0860   12.7190 C.3   196  HIS196      0.0745
    138  CG        28.6860   54.7050   14.0430 C.ar  196  HIS196      0.0817
    139  ND1       29.6330   55.1850   14.9260 N.ar  196  HIS196     -0.2268
    140  CD2       27.4870   54.8810   14.6500 C.ar  196  HIS196      0.1154
    141  CE1       29.0290   55.6520   16.0060 C.ar  196  HIS196      0.1986
    142  NE2       27.7260   55.4750   15.8650 N.ar  196  HIS196     -0.2212
@<TRIPOS>BOND
     1    27    26    2
     2    26    25    1
     3    25    24    1
     4    25    28    1
     5    28    29    1
     6    55    54    2
     7     8     6   am
     8    54    53    1
     9     1     2    1
    10    29    30    1
    11    56    53    1
    12    56    57    1
    13   136   135    2
    14   135   134    1
    15     6     7    2
    16     6     5    1
    17   122   123    1
    18    59    57    1
    19    30    32   am
    20    30    31    2
    21    53    52    1
    22    58    57    1
    23     2     5    1
    24     2     3    1
    25   133   134    1
    26   134   137    1
    27   123   124    1
    28   123   126    1
    29   128   130   ar
    30   128   127   ar
    31     9     3   am
    32     9    10    1
    33    52    48   am
    34   130   132   ar
    35   137   138    1
    36     3     4    2
    37   124   125    2
    38    49    48    2
    39   126   127    1
    40    48    47    1
    41   118   120   ar
    42   118   117   ar
    43   127   129   ar
    44   120   121   ar
    45   115   114    2
    46    10    11    1
    47   132   131   ar
    48    51    50    1
    49    23    22    2
    50   117   116    1
    51   117   119   ar
    52   138   140   ar
    53   138   139   ar
    54   121   119   ar
    55   116   113    1
    56    22    21    1
    57   114   113    1
    58   129   131   ar
    59    12    11    2
    60   140   142   ar
    61    11    13   am
    62    50    47    1
    63    47    46    1
    64   113   112    1
    65   139   141   ar
    66   110   109   ar
    67    21    20    1
    68    46    44   am
    69    13    14    1
    70    20    15   am
    71   142   141   ar
    72   106   105    2
    73   109   111   ar
    74   109   108    1
    75   102   100   ar
    76   102   101   ar
    77    15    14    1
    78    15    16    2
    79    14    17    1
    80    44    45    2
    81    44    43    1
    82   100    98   ar
    83    60    61    1
    84   101    99   ar
    85   107   108    1
    86   107   104    1
    87   104   105    1
    88   104   103    1
    89    43    42    1
    90    96    95    2
    91    17    18    1
    92    17    19    1
    93    61    64    1
    94    61    62    1
    95    98    99   ar
    96    98    97    1
    97   103    95   am
    98    95    94    1
    99    64    65    1
   100    42    35   am
   101    63    62    2
   102    97    94    1
   103    36    35    2
   104    94    93    1
   105    91    90    1
   106    91    92    1
   107    90    89    1
   108    35    34    1
   109    88    87    2
   110    41    39   ar
   111    38    39    1
   112    38    37    1
   113    89    86    1
   114    87    86    1
   115    34    37    1
   116    34    33    1
   117    86    85    1
   118    39    40   ar
   119    77    76    2
   120    85    76   am
   121    72    71    1
   122    76    75    1
   123    73    71    1
   124    71    70    1
   125    79    80    1
   126    79    78    1
   127    80    81    1
   128    69    68    2
   129    75    78    1
   130    75    74    1
   131    68    67    1
   132    70    67    1
   133    83    82    1
   134    81    82    2
   135    67    66    1
   136    82    84    1
