@<TRIPOS>MOLECULE
tmp/3e47K00.pdb
 188 179 0 0 0
SMALL
GASTEIGER

@<TRIPOS>ATOM
      1  N         11.6030 -141.5610    9.2310 N.3     1  THR1       -0.1218
      2  CA        11.3840 -140.2590    8.5410 C.3     1  THR1        0.1862
      3  C         11.9480 -140.2120    7.1440 C.2     1  THR1        0.2287
      4  O         13.0810 -140.6190    6.9060 O.2     1  THR1       -0.2866
      5  CB        12.0390 -139.1140    9.2960 C.3     1  THR1        0.1770
      6  OG1       11.2160 -138.7520   10.4050 O.3     1  THR1       -0.2211
      7  CG2       12.2020 -137.9010    8.3900 C.3     1  THR1        0.0375
      8  N          5.0340 -139.9940    9.9020 N.3    19  ARG19      -0.1231
      9  CA         5.1270 -140.9190   11.0290 C.3    19  ARG19       0.1694
     10  C          6.1250 -140.4660   12.1080 C.2    19  ARG19       0.2592
     11  O          7.1550 -139.8590   11.8150 O.2    19  ARG19      -0.2718
     12  CB         5.5010 -142.3250   10.5330 C.3    19  ARG19       0.0321
     13  CG         5.7790 -143.3270   11.6540 C.3    19  ARG19       0.0489
     14  CD         5.8590 -144.7490   11.1470 C.3    19  ARG19       0.2205
     15  NE         4.5680 -145.1770   10.6230 N.pl3  19  ARG19      -0.0865
     16  CZ         4.3320 -146.3470   10.0350 C.cat  19  ARG19       0.5346
     17  NH1        5.3060 -147.2370    9.8800 N.pl3  19  ARG19       0.1354
     18  NH2        3.1070 -146.6250    9.6070 N.pl3  19  ARG19       0.1354
     19  N          5.7920 -140.7670   13.3590 N.am   20  ALA20      -0.1966
     20  CA         6.6280 -140.4360   14.5010 C.3    20  ALA20       0.1728
     21  C          6.6010 -141.6130   15.4770 C.2    20  ALA20       0.2616
     22  O          5.5370 -142.0750   15.8910 O.2    20  ALA20      -0.2715
     23  CB         6.1140 -139.2040   15.1660 C.3    20  ALA20       0.0334
     24  N          7.7830 -142.0810   15.8560 N.am   21  THR21      -0.1951
     25  CA         7.8990 -143.2220   16.7470 C.3    21  THR21       0.1897
     26  C          8.8080 -143.0430   17.9580 C.2    21  THR21       0.2313
     27  O          9.7980 -142.3200   17.9130 O.2    21  THR21      -0.2863
     28  CB         8.4110 -144.4260   15.9610 C.3    21  THR21       0.1794
     29  OG1        9.4980 -144.0130   15.1160 O.3    21  THR21      -0.2208
     30  CG2        7.3000 -145.0110   15.1190 C.3    21  THR21       0.0378
     31  N          1.8600 -136.3340   11.6350 N.3    31  VAL31      -0.1245
     32  CA         2.8290 -135.2880   11.9810 C.3    31  VAL31       0.1561
     33  C          3.1970 -134.3860   10.7970 C.2    31  VAL31       0.2260
     34  O          3.3980 -134.8670    9.6820 O.2    31  VAL31      -0.2867
     35  CB         4.1350 -135.9150   12.5610 C.3    31  VAL31       0.0252
     36  CG1        5.1860 -134.8550   12.7670 C.3    31  VAL31       0.0019
     37  CG2        3.8410 -136.5900   13.8680 C.3    31  VAL31       0.0019
     38  N          5.7860 -132.5390    8.9150 N.3    33  LYS33      -0.1245
     39  CA         7.2290 -132.4930    8.8350 C.3    33  LYS33       0.1561
     40  C          7.7200 -131.4020    7.9080 C.2    33  LYS33       0.2260
     41  O          8.8770 -131.3950    7.4990 O.2    33  LYS33      -0.2867
     42  CB         7.7760 -133.8540    8.4150 C.3    33  LYS33       0.0271
     43  CG         7.5630 -134.9440    9.4750 C.3    33  LYS33       0.0035
     44  CD         8.1350 -136.2850    9.0390 C.3    33  LYS33       0.0206
     45  CE         7.9180 -137.3520   10.0890 C.3    33  LYS33       0.1093
     46  NZ         8.4130 -138.6730    9.6250 N.3    33  LYS33      -0.1314
     47  N         11.5150 -131.1710    8.1520 N.3    45  MET45      -0.1230
     48  CA        11.8330 -131.5890    9.5080 C.3    45  MET45       0.1702
     49  C         12.4080 -133.0150    9.5550 C.2    45  MET45       0.2592
     50  O         11.7620 -133.9550    9.1230 O.2    45  MET45      -0.2718
     51  CB        10.5400 -131.5210   10.3080 C.3    45  MET45       0.0401
     52  CG        10.6260 -130.9100   11.6610 C.3    45  MET45       0.0596
     53  SD         9.0920 -131.2490   12.5570 S.3    45  MET45      -0.1393
     54  CE         8.4090 -129.5970   12.7380 C.3    45  MET45       0.0692
     55  N         13.6160 -133.1780   10.0770 N.am   46  ALA46      -0.1966
     56  CA        14.2400 -134.4980   10.1780 C.3    46  ALA46       0.1728
     57  C         15.2110 -134.5100   11.3520 C.2    46  ALA46       0.2617
     58  O         15.9750 -133.5580   11.5510 O.2    46  ALA46      -0.2715
     59  CB        14.9750 -134.8240    8.9110 C.3    46  ALA46       0.0334
     60  N         15.1960 -135.5910   12.1250 N.am   47  GLY47      -0.1940
     61  CA        16.0660 -135.6790   13.2860 C.3    47  GLY47       0.2014
     62  C         15.2330 -135.4100   14.5190 C.2    47  GLY47       0.2639
     63  O         14.3890 -136.2290   14.8740 O.2    47  GLY47      -0.2714
     64  N         15.4540 -134.2650   15.1630 N.am   48  GLY48      -0.1939
     65  CA        14.6780 -133.9160   16.3440 C.3    48  GLY48       0.2014
     66  C         13.5330 -132.9830   15.9820 C.2    48  GLY48       0.2638
     67  O         13.7590 -131.8920   15.4510 O.2    48  GLY48      -0.2714
     68  N         12.3000 -133.4090   16.2490 N.am   49  ALA49      -0.1977
     69  CA        11.1300 -132.5990   15.9410 C.3    49  ALA49       0.1597
     70  C         11.2200 -131.2280   16.6020 C.2    49  ALA49       0.2287
     71  O         11.1210 -130.1960   15.9380 O.2    49  ALA49      -0.2864
     72  CB         9.8990 -133.3010   16.3990 C.3    49  ALA49       0.0319
     73  N         19.7790 -131.9210   17.1170 N.3    96  SER96      -0.1202
     74  CA        19.7010 -132.9140   16.0630 C.3    96  SER96       0.2020
     75  C         18.7170 -132.4830   14.9890 C.2    96  SER96       0.2619
     76  O         17.5130 -132.4070   15.2320 O.2    96  SER96      -0.2717
     77  CB        19.2780 -134.2650   16.6260 C.3    96  SER96       0.2103
     78  OG        19.1930 -135.2280   15.5910 O.3    96  SER96      -0.2182
     79  N         19.2320 -132.2020   13.7960 N.am   97  MET97      -0.1965
     80  CA        18.3740 -131.7920   12.6980 C.3    97  MET97       0.1736
     81  C         19.0000 -131.8100   11.3120 C.2    97  MET97       0.2617
     82  O         20.0780 -131.2610   11.0880 O.2    97  MET97      -0.2715
     83  CB        17.8030 -130.4080   12.9900 C.3    97  MET97       0.0427
     84  CG        18.7860 -129.4770   13.6250 C.3    97  MET97       0.0599
     85  SD        17.9850 -128.0670   14.3860 S.3    97  MET97      -0.1393
     86  CE        18.0000 -126.9120   12.9920 C.3    97  MET97       0.0692
     87  N         18.3060 -132.4920   10.4030 N.am   98  GLY98      -0.1955
     88  CA        18.7030 -132.5730    9.0040 C.3    98  GLY98       0.1869
     89  C         17.5750 -131.8230    8.3150 C.2    98  GLY98       0.2309
     90  O         16.4130 -132.2200    8.4280 O.2    98  GLY98      -0.2863
     91  N         20.5230 -127.5010    1.9620 N.3   114  TYR114     -0.1241
     92  CA        20.5050 -128.5780    2.9460 C.3   114  TYR114      0.1605
     93  C         21.2690 -128.0700    4.1630 C.2   114  TYR114      0.2264
     94  O         22.4100 -127.6040    4.0380 O.2   114  TYR114     -0.2867
     95  CB        21.2050 -129.8220    2.3990 C.3   114  TYR114      0.0534
     96  CG        21.5700 -130.8400    3.4640 C.ar  114  TYR114     -0.0201
     97  CD1       20.6100 -131.6940    4.0070 C.ar  114  TYR114     -0.0009
     98  CD2       22.8710 -130.9170    3.9620 C.ar  114  TYR114     -0.0009
     99  CE1       20.9330 -132.5980    5.0220 C.ar  114  TYR114      0.0417
    100  CE2       23.2050 -131.8170    4.9790 C.ar  114  TYR114      0.0417
    101  CZ        22.2310 -132.6530    5.5070 C.ar  114  TYR114      0.1957
    102  OH        22.5490 -133.5220    6.5300 O.3   114  TYR114     -0.2866
    103  N         22.2220 -129.1170    8.3150 N.3   116  ASP116     -0.1225
    104  CA        22.1120 -130.0840    9.4020 C.3   116  ASP116      0.1805
    105  C         22.8020 -129.5760   10.6520 C.2   116  ASP116      0.2598
    106  O         23.6150 -128.6470   10.6020 O.2   116  ASP116     -0.2718
    107  CB        22.6710 -131.4510    9.0120 C.3   116  ASP116      0.1424
    108  CG        24.1570 -131.4320    8.7920 C.2   116  ASP116      0.3668
    109  OD1       24.8140 -130.4980    9.2810 O.co2 116  ASP116     -0.2456
    110  OD2       24.6810 -132.3590    8.1440 O.co2 116  ASP116     -0.2456
    111  N         22.4650 -130.1960   11.7760 N.am  117  SER117     -0.1938
    112  CA        23.0030 -129.8090   13.0740 C.3   117  SER117      0.2055
    113  C         24.5050 -129.9480   13.2450 C.2   117  SER117      0.2643
    114  O         25.0240 -129.6780   14.3170 O.2   117  SER117     -0.2714
    115  CB        22.2840 -130.5680   14.1840 C.3   117  SER117      0.2130
    116  OG        22.1420 -131.9260   13.8370 O.3   117  SER117     -0.2179
    117  N         25.2070 -130.3650   12.1990 N.am  118  ASP118     -0.1971
    118  CA        26.6570 -130.4870   12.2740 C.3   118  ASP118      0.1709
    119  C         27.2730 -129.2060   11.7570 C.2   118  ASP118      0.2293
    120  O         28.4870 -129.0050   11.8420 O.2   118  ASP118     -0.2864
    121  CB        27.1620 -131.6430   11.4220 C.3   118  ASP118      0.1436
    122  CG        26.9100 -132.9890   12.0560 C.2   118  ASP118      0.3671
    123  OD1       27.2690 -134.0050   11.4120 O.co2 118  ASP118     -0.2456
    124  OD2       26.3640 -133.0290   13.1870 O.co2 118  ASP118     -0.2456
    125  N         16.4220 -136.7050    3.1020 N.3   129  VAL129     -0.1231
    126  CA        16.8840 -136.8190    4.4670 C.3   129  VAL129      0.1692
    127  C         15.9760 -137.6900    5.2960 C.2   129  VAL129      0.2593
    128  O         14.7650 -137.5250    5.2610 O.2   129  VAL129     -0.2718
    129  CB        16.9480 -135.4500    5.1380 C.3   129  VAL129      0.0266
    130  CG1       17.5070 -135.5860    6.5320 C.3   129  VAL129      0.0020
    131  CG2       17.8000 -134.5230    4.3240 C.3   129  VAL129      0.0020
    132  N         16.5680 -138.6130    6.0490 N.am  130  GLY130     -0.1942
    133  CA        15.7780 -139.4790    6.9080 C.3   130  GLY130      0.2014
    134  C         16.1110 -140.9500    6.7960 C.2   130  GLY130      0.2639
    135  O         16.8480 -141.3690    5.9050 O.2   130  GLY130     -0.2714
    136  N         15.5650 -141.7370    7.7150 N.am  131  SER131     -0.1949
    137  CA        15.7860 -143.1720    7.7230 C.3   131  SER131      0.1924
    138  C         15.2940 -143.8220    6.4300 C.2   131  SER131      0.2314
    139  O         15.6870 -144.9430    6.1100 O.2   131  SER131     -0.2863
    140  CB        15.0770 -143.8020    8.9220 C.3   131  SER131      0.2116
    141  OG        13.7220 -143.4120    8.9720 O.3   131  SER131     -0.2180
    142  N         15.5020 -142.1650    3.3950 N.3   133  GLN133     -0.1231
    143  CA        16.1380 -141.4770    2.2850 C.3   133  GLN133      0.1698
    144  C         16.5640 -142.3070    1.0710 C.2   133  GLN133      0.2593
    145  O         16.2070 -141.9860   -0.0480 O.2   133  GLN133     -0.2718
    146  CB        17.3500 -140.7120    2.7910 C.3   133  GLN133      0.0381
    147  CG        18.4770 -141.6160    3.1780 C.3   133  GLN133      0.0905
    148  CD        19.7510 -140.8650    3.3510 C.2   133  GLN133      0.2608
    149  OE1       19.9560 -140.1950    4.3660 O.2   133  GLN133     -0.2717
    150  NE2       20.6190 -140.9450    2.3510 N.am  133  GLN133     -0.0878
    151  N         17.3440 -143.3580    1.2820 N.am  134  THR134     -0.1939
    152  CA        17.8270 -144.1690    0.1690 C.3   134  THR134      0.2028
    153  C         16.7200 -144.7490   -0.7060 C.2   134  THR134      0.2642
    154  O         16.9490 -145.0250   -1.8900 O.2   134  THR134     -0.2714
    155  CB        18.7120 -145.3210    0.6710 C.3   134  THR134      0.1808
    156  OG1       17.9400 -146.1720    1.5230 O.3   134  THR134     -0.2208
    157  CG2       19.8980 -144.7790    1.4380 C.3   134  THR134      0.0379
    158  N         15.5350 -144.9440   -0.1300 N.am  135  PHE135     -0.1973
    159  CA        14.4090 -145.4790   -0.8820 C.3   135  PHE135      0.1639
    160  C         13.8710 -144.3960   -1.8050 C.2   135  PHE135      0.2290
    161  O         13.5940 -144.6430   -2.9730 O.2   135  PHE135     -0.2864
    162  CB        13.3170 -145.9640    0.0680 C.3   135  PHE135      0.0560
    163  CG        13.7700 -147.0750    0.9680 C.ar  135  PHE135     -0.0200
    164  CD1       14.1020 -148.3210    0.4400 C.ar  135  PHE135     -0.0042
    165  CD2       13.9520 -146.8560    2.3350 C.ar  135  PHE135     -0.0042
    166  CE1       14.6180 -149.3330    1.2570 C.ar  135  PHE135     -0.0003
    167  CE2       14.4680 -147.8590    3.1610 C.ar  135  PHE135     -0.0003
    168  CZ        14.8030 -149.1000    2.6190 C.ar  135  PHE135     -0.0000
    169  N         10.8670 -148.5790    4.6530 N.3   168  ASP168     -0.1239
    170  CA        11.3150 -148.0820    5.9470 C.3   168  ASP168      0.1674
    171  C         10.2460 -148.2320    7.0200 C.2   168  ASP168      0.2266
    172  O          9.1300 -147.7460    6.8760 O.2   168  ASP168     -0.2867
    173  CB        11.7070 -146.6130    5.8610 C.3   168  ASP168      0.1410
    174  CG        12.2960 -146.0990    7.1640 C.2   168  ASP168      0.3668
    175  OD1       12.2790 -144.8680    7.4020 O.co2 168  ASP168     -0.2456
    176  OD2       12.7870 -146.9390    7.9480 O.co2 168  ASP168     -0.2456
    177  N         10.2710 -146.8530    9.8570 N.3   170  TYR170     -0.1241
    178  CA        10.0800 -145.6000   10.5680 C.3   170  TYR170      0.1605
    179  C          9.4360 -144.4830    9.7720 C.2   170  TYR170      0.2264
    180  O          9.2610 -143.3710   10.2750 O.2   170  TYR170     -0.2867
    181  CB        11.4150 -145.1560   11.1820 C.3   170  TYR170      0.0534
    182  CG        11.8970 -146.1640   12.1950 C.ar  170  TYR170     -0.0201
    183  CD1       11.0210 -146.6470   13.1660 C.ar  170  TYR170     -0.0009
    184  CD2       13.1790 -146.7120   12.1330 C.ar  170  TYR170     -0.0009
    185  CE1       11.3920 -147.6590   14.0460 C.ar  170  TYR170      0.0417
    186  CE2       13.5670 -147.7330   13.0170 C.ar  170  TYR170      0.0417
    187  CZ        12.6580 -148.2060   13.9740 C.ar  170  TYR170      0.1957
    188  OH        12.9740 -149.2280   14.8640 O.3   170  TYR170     -0.2866
@<TRIPOS>BOND
     1   161   160    2
     2   154   153    2
     3   160   159    1
     4   159   158    1
     5   159   162    1
     6   153   158   am
     7   153   152    1
     8   145   144    2
     9   162   163    1
    10   152   155    1
    11   152   151    1
    12   164   163   ar
    13   164   166   ar
    14   155   157    1
    15   155   156    1
    16   163   165   ar
    17   144   151   am
    18   144   143    1
    19   166   168   ar
    20    91    92    1
    21   143   146    1
    22   143   142    1
    23   165   167   ar
    24   150   148   am
    25    95    92    1
    26    95    96    1
    27   168   167   ar
    28   146   147    1
    29    92    93    1
    30   125   126    1
    31   147   148    1
    32   148   149    2
    33    96    98   ar
    34    96    97   ar
    35    98   100   ar
    36    97    99   ar
    37    94    93    2
    38   131   129    1
    39   126   129    1
    40   126   127    1
    41   169   170    1
    42   100   101   ar
    43    99   101   ar
    44   129   130    1
    45   128   127    2
    46   127   132   am
    47   101   102    1
    48   173   170    1
    49   173   174    1
    50   135   134    2
    51   170   171    1
    52   132   133    1
    53   139   138    2
    54   138   137    1
    55   134   133    1
    56   134   136   am
    57   172   171    2
    58     4     3    2
    59     3     2    1
    60   174   175   ar
    61   174   176   ar
    62    41    40    2
    63   136   137    1
    64   137   140    1
    65    40    39    1
    66   110   108   ar
    67    47    48    1
    68   103   104    1
    69    89    90    2
    70    89    88    1
    71     7     5    1
    72    42    39    1
    73    42    43    1
    74     2     1    1
    75     2     5    1
    76   108   107    1
    77   108   109   ar
    78    39    38    1
    79    59    56    1
    80   140   141    1
    81    88    87    1
    82   107   104    1
    83    44    43    1
    84    44    45    1
    85    50    49    2
    86     5     6    1
    87   104   105    1
    88    48    49    1
    89    48    51    1
    90    49    55   am
    91    18    16    1
    92    46    45    1
    93    34    33    2
    94   179   180    2
    95   179   178    1
    96   177   178    1
    97    17    16    1
    98     8     9    1
    99    16    15    2
   100    55    56    1
   101    56    57    1
   102    51    52    1
   103    87    81   am
   104    12     9    1
   105    12    13    1
   106   178   181    1
   107   106   105    2
   108    15    14    1
   109   105   111   am
   110    33    32    1
   111     9    10    1
   112    82    81    2
   113    14    13    1
   114   181   182    1
   115    81    80    1
   116    57    58    2
   117    57    60   am
   118   123   122   ar
   119   121   122    1
   120   121   118    1
   121    31    32    1
   122    52    53    1
   123   119   120    2
   124   119   118    1
   125   111   112    1
   126    11    10    2
   127    32    35    1
   128   122   124   ar
   129    10    19   am
   130    60    61    1
   131   184   182   ar
   132   184   186   ar
   133   182   183   ar
   134   117   118    1
   135   117   113   am
   136    53    54    1
   137    35    36    1
   138    35    37    1
   139    80    83    1
   140    80    79    1
   141    83    84    1
   142    86    85    1
   143   186   187   ar
   144   112   113    1
   145   112   115    1
   146   183   185   ar
   147   113   114    2
   148    61    62    1
   149    19    20    1
   150    84    85    1
   151    79    75   am
   152   116   115    1
   153   187   185   ar
   154   187   188    1
   155    20    23    1
   156    20    21    1
   157    62    63    2
   158    62    64   am
   159    75    76    2
   160    75    74    1
   161    29    28    1
   162    30    28    1
   163    64    65    1
   164    67    66    2
   165    21    24   am
   166    21    22    2
   167    78    77    1
   168    24    25    1
   169    71    70    2
   170    69    68    1
   171    69    72    1
   172    69    70    1
   173    28    25    1
   174    66    68   am
   175    66    65    1
   176    74    77    1
   177    74    73    1
   178    25    26    1
   179    27    26    2
