@<TRIPOS>MOLECULE
tmp/3e4oB00.pdb
 103 100 0 0 0
SMALL
GASTEIGER

@<TRIPOS>ATOM
      1  N          7.5990   94.4520   47.5920 N.3    70  TYR70      -0.1241
      2  CA         8.4930   95.4560   48.1630 C.3    70  TYR70       0.1605
      3  C          8.7770   96.6040   47.2070 C.2    70  TYR70       0.2264
      4  O          8.6450   96.4450   45.9860 O.2    70  TYR70      -0.2867
      5  CB         9.7760   94.8040   48.7190 C.3    70  TYR70       0.0534
      6  CG        10.6270   93.9740   47.7670 C.ar   70  TYR70      -0.0201
      7  CD1       11.8930   94.4250   47.3900 C.ar   70  TYR70      -0.0009
      8  CD2       10.2100   92.7020   47.3160 C.ar   70  TYR70      -0.0009
      9  CE1       12.7110   93.6660   46.5580 C.ar   70  TYR70       0.0417
     10  CE2       11.0230   91.9380   46.4610 C.ar   70  TYR70       0.0417
     11  CZ        12.2730   92.4310   46.0930 C.ar   70  TYR70       0.1957
     12  OH        13.1080   91.7240   45.2480 O.3    70  TYR70      -0.2866
     13  N         13.5060   92.7960   53.5580 N.3    90  PHE90      -0.1241
     14  CA        14.2320   93.2370   52.3930 C.3    90  PHE90       0.1605
     15  C         14.5320   94.7160   52.4880 C.2    90  PHE90       0.2264
     16  O         15.2550   95.2180   51.6620 O.2    90  PHE90      -0.2867
     17  CB        13.4470   92.9560   51.0920 C.3    90  PHE90       0.0534
     18  CG        13.2410   91.4890   50.7770 C.ar   90  PHE90      -0.0203
     19  CD1       13.7970   90.4950   51.5610 C.ar   90  PHE90      -0.0042
     20  CD2       12.5140   91.1240   49.6680 C.ar   90  PHE90      -0.0042
     21  CE1       13.6020   89.1600   51.2810 C.ar   90  PHE90      -0.0003
     22  CE2       12.3080   89.7970   49.3550 C.ar   90  PHE90      -0.0003
     23  CZ        12.8590   88.8020   50.1670 C.ar   90  PHE90      -0.0000
     24  N         19.3780   96.5390   45.5700 N.3    95  TYR95      -0.1241
     25  CA        19.0570   95.5320   44.5450 C.3    95  TYR95       0.1605
     26  C         19.2450   96.0310   43.1400 C.2    95  TYR95       0.2264
     27  O         18.6910   95.4550   42.2200 O.2    95  TYR95      -0.2867
     28  CB        17.6470   94.9820   44.7300 C.3    95  TYR95       0.0534
     29  CG        17.4110   94.4280   46.1000 C.ar   95  TYR95      -0.0201
     30  CD1       18.0790   93.2800   46.5430 C.ar   95  TYR95      -0.0009
     31  CD2       16.5370   95.0760   46.9770 C.ar   95  TYR95      -0.0009
     32  CE1       17.8800   92.8030   47.8310 C.ar   95  TYR95       0.0417
     33  CE2       16.3250   94.6090   48.2600 C.ar   95  TYR95       0.0417
     34  CZ        16.9830   93.4770   48.6830 C.ar   95  TYR95       0.1957
     35  OH        16.7250   93.0250   49.9670 O.3    95  TYR95      -0.2866
     36  N         20.3280   93.6560   40.2360 N.3    98  ARG98      -0.1245
     37  CA        19.3360   92.7350   39.6990 C.3    98  ARG98       0.1563
     38  C         18.6680   93.2830   38.4240 C.2    98  ARG98       0.2260
     39  O         18.2760   94.4540   38.3710 O.2    98  ARG98      -0.2867
     40  CB        18.2560   92.4580   40.7420 C.3    98  ARG98       0.0307
     41  CG        18.6840   91.6880   41.9930 C.3    98  ARG98       0.0489
     42  CD        18.9700   90.2440   41.6920 C.3    98  ARG98       0.2205
     43  NE        18.7120   89.3700   42.8440 N.pl3  98  ARG98      -0.0865
     44  CZ        19.2950   88.1840   43.0180 C.cat  98  ARG98       0.5346
     45  NH1       20.1760   87.7320   42.1360 N.pl3  98  ARG98       0.1354
     46  NH2       19.0000   87.4460   44.0800 N.pl3  98  ARG98       0.1354
     47  N         15.7480   92.6330   37.3140 N.3   100  TYR100     -0.1241
     48  CA        14.3800   93.0830   37.6350 C.3   100  TYR100      0.1605
     49  C         14.2970   94.5540   38.1070 C.2   100  TYR100      0.2264
     50  O         13.2500   95.1920   37.9850 O.2   100  TYR100     -0.2867
     51  CB        13.6550   92.1420   38.6110 C.3   100  TYR100      0.0534
     52  CG        14.1230   92.1730   40.0640 C.ar  100  TYR100     -0.0201
     53  CD1       13.9740   93.3200   40.8670 C.ar  100  TYR100     -0.0009
     54  CD2       14.6790   91.0420   40.6500 C.ar  100  TYR100     -0.0009
     55  CE1       14.3990   93.3280   42.2080 C.ar  100  TYR100      0.0417
     56  CE2       15.0770   91.0360   41.9750 C.ar  100  TYR100      0.0417
     57  CZ        14.9430   92.1770   42.7520 C.ar  100  TYR100      0.1957
     58  OH        15.3480   92.1410   44.0720 O.3   100  TYR100     -0.2866
     59  N         17.2350   84.3510   45.9930 N.3   114  GLY114     -0.1210
     60  CA        17.2860   85.5250   46.8800 C.3   114  GLY114      0.1956
     61  C         18.5660   85.6350   47.6860 C.2   114  GLY114      0.2613
     62  O         19.1510   84.6170   48.0330 O.2   114  GLY114     -0.2717
     63  N         19.0130   86.8660   47.9650 N.am  115  THR115     -0.1938
     64  CA        20.2380   87.1330   48.7510 C.3   115  THR115      0.2028
     65  C         19.9630   87.2920   50.2540 C.2   115  THR115      0.2642
     66  O         20.8040   86.9470   51.0830 O.2   115  THR115     -0.2714
     67  CB        20.9740   88.4240   48.2670 C.3   115  THR115      0.1808
     68  OG1       20.0180   89.4770   48.0870 O.3   115  THR115     -0.2208
     69  CG2       21.7140   88.2070   46.9520 C.3   115  THR115      0.0379
     70  N         18.8030   87.8360   50.6060 N.am  116  VAL116     -0.1963
     71  CA        18.4170   87.9760   52.0080 C.3   116  VAL116      0.1727
     72  C         17.6720   86.7150   52.5150 C.2   116  VAL116      0.2616
     73  O         18.0480   86.1230   53.5290 O.2   116  VAL116     -0.2715
     74  CB        17.5370   89.2410   52.2370 C.3   116  VAL116      0.0290
     75  CG1       17.2100   89.4000   53.7280 C.3   116  VAL116      0.0023
     76  CG2       18.2290   90.5140   51.6890 C.3   116  VAL116      0.0023
     77  N         16.6210   86.3310   51.7870 N.am  117  SER117     -0.1950
     78  CA        15.7750   85.1880   52.1150 C.3   117  SER117      0.1924
     79  C         16.4740   83.8590   51.8960 C.2   117  SER117      0.2314
     80  O         16.1190   82.8720   52.5180 O.2   117  SER117     -0.2863
     81  CB        14.5240   85.1880   51.2270 C.3   117  SER117      0.2116
     82  OG        14.8700   84.9170   49.8610 O.3   117  SER117     -0.2180
     83  N         10.7630   87.0780   40.3060 N.3   123  TYR123     -0.1241
     84  CA        10.5290   88.4970   40.5780 C.3   123  TYR123      0.1605
     85  C          9.8650   89.1720   39.3880 C.2   123  TYR123      0.2264
     86  O         10.4070   89.1860   38.2850 O.2   123  TYR123     -0.2867
     87  CB        11.8560   89.2110   40.8730 C.3   123  TYR123      0.0534
     88  CG        12.6300   88.5470   41.9900 C.ar  123  TYR123     -0.0201
     89  CD1       12.6050   89.0620   43.2830 C.ar  123  TYR123     -0.0009
     90  CD2       13.3730   87.3840   41.7510 C.ar  123  TYR123     -0.0009
     91  CE1       13.3220   88.4550   44.3030 C.ar  123  TYR123      0.0417
     92  CE2       14.0520   86.7500   42.7700 C.ar  123  TYR123      0.0417
     93  CZ        14.0350   87.2970   44.0320 C.ar  123  TYR123      0.1957
     94  OH        14.7390   86.6760   45.0110 O.3   123  TYR123     -0.2866
     95  N          7.5530   89.0290   44.5370 N.3   141  LYS141     -0.1245
     96  CA         8.3080   87.7850   44.4640 C.3   141  LYS141      0.1561
     97  C          7.3870   86.5780   44.6540 C.2   141  LYS141      0.2260
     98  O          6.7760   86.4020   45.6980 O.2   141  LYS141     -0.2867
     99  CB         9.4870   87.7680   45.4650 C.3   141  LYS141      0.0271
    100  CG        10.3230   86.4730   45.4260 C.3   141  LYS141      0.0035
    101  CD        11.2470   86.3750   46.6290 C.3   141  LYS141      0.0206
    102  CE        12.2770   85.2920   46.4400 C.3   141  LYS141      0.1093
    103  NZ        13.1990   85.2150   47.5870 N.3   141  LYS141     -0.1314
@<TRIPOS>BOND
     1    47    48    1
     2    48    49    1
     3    48    51    1
     4    50    49    2
     5    86    85    2
     6    39    38    2
     7    38    37    1
     8    51    52    1
     9    85    84    1
    10    37    36    1
    11    37    40    1
    12    52    54   ar
    13    52    53   ar
    14    83    84    1
    15    84    87    1
    16    54    56   ar
    17    40    41    1
    18    53    55   ar
    19    87    88    1
    20    42    41    1
    21    42    43    1
    22    90    88   ar
    23    90    92   ar
    24    56    57   ar
    25    88    89   ar
    26    45    44    1
    27    55    57   ar
    28    27    26    2
    29    57    58    1
    30    92    93   ar
    31    43    44    2
    32    44    46    1
    33    26    25    1
    34    89    91   ar
    35    93    91   ar
    36    93    94    1
    37    96    95    1
    38    96    97    1
    39    96    99    1
    40    25    28    1
    41    25    24    1
    42    97    98    2
    43    28    29    1
    44    12    11    1
    45   100    99    1
    46   100   101    1
    47     4     3    2
    48    59    60    1
    49    11    10   ar
    50    11     9   ar
    51    29    30   ar
    52    29    31   ar
    53   102   101    1
    54   102   103    1
    55    10     8   ar
    56    30    32   ar
    57     9     7   ar
    58    60    61    1
    59    69    67    1
    60    31    33   ar
    61     3     2    1
    62     8     6   ar
    63     7     6   ar
    64     1     2    1
    65    61    63   am
    66    61    62    2
    67     6     5    1
    68    32    34   ar
    69    63    64    1
    70    68    67    1
    71     2     5    1
    72    33    34   ar
    73    67    64    1
    74    34    35    1
    75    64    65    1
    76    22    20   ar
    77    22    23   ar
    78    20    18   ar
    79    82    81    1
    80    23    21   ar
    81    65    70   am
    82    65    66    2
    83    70    71    1
    84    18    17    1
    85    18    19   ar
    86    17    14    1
    87    81    78    1
    88    21    19   ar
    89    16    15    2
    90    76    74    1
    91    77    78    1
    92    77    72   am
    93    79    78    1
    94    79    80    2
    95    71    74    1
    96    71    72    1
    97    74    75    1
    98    14    15    1
    99    14    13    1
   100    72    73    2
