@<TRIPOS>MOLECULE
tmp/3e4rA00.pdb
 134 126 0 0 0
SMALL
GASTEIGER

@<TRIPOS>ATOM
      1  N         24.2680   16.1050   32.6230 N.3    12  GLN12      -0.1245
      2  CA        24.0780   17.2370   31.7970 C.3    12  GLN12       0.1566
      3  C         23.5130   18.2920   32.7400 C.2    12  GLN12       0.2260
      4  O         22.5680   18.0210   33.4560 O.2    12  GLN12      -0.2867
      5  CB        23.0400   16.8770   30.7240 C.3    12  GLN12       0.0367
      6  CG        23.5160   15.7000   29.8370 C.3    12  GLN12       0.0905
      7  CD        22.5350   15.4020   28.7200 C.2    12  GLN12       0.2608
      8  OE1       22.0720   16.3190   28.0320 O.2    12  GLN12      -0.2717
      9  NE2       22.2060   14.1180   28.5390 N.am   12  GLN12      -0.0878
     10  N         21.6410   20.6330   32.0620 N.3    14  ALA14      -0.1231
     11  CA        20.2170   20.8970   31.7620 C.3    14  ALA14       0.1694
     12  C         19.2850   20.1570   32.7160 C.2    14  ALA14       0.2591
     13  O         18.1080   20.5150   32.8590 O.2    14  ALA14      -0.2718
     14  CB        19.8800   20.5220   30.3170 C.3    14  ALA14       0.0304
     15  N         19.8100   19.1030   33.3440 N.am   15  VAL15      -0.1980
     16  CA        19.0310   18.3240   34.2840 C.3    15  VAL15       0.1595
     17  C         19.2310   18.9260   35.6750 C.2    15  VAL15       0.2287
     18  O         20.2220   18.6400   36.3860 O.2    15  VAL15      -0.2864
     19  CB        19.3920   16.8280   34.2550 C.3    15  VAL15       0.0276
     20  CG1       18.3380   16.0240   35.0760 C.3    15  VAL15       0.0022
     21  CG2       19.4580   16.3440   32.8290 C.3    15  VAL15       0.0022
     22  N         25.7330   17.2620   26.0790 N.3    43  ALA43      -0.1231
     23  CA        24.4810   16.5860   25.7780 C.3    43  ALA43       0.1694
     24  C         24.7050   15.0860   25.9410 C.2    43  ALA43       0.2593
     25  O         25.7600   14.6780   26.3980 O.2    43  ALA43      -0.2718
     26  CB        23.9960   16.9200   24.3490 C.3    43  ALA43       0.0304
     27  N         23.6980   14.3060   25.5540 N.am   44  GLY44      -0.1943
     28  CA        23.6260   12.8540   25.7380 C.3    44  GLY44       0.1998
     29  C         24.6170   12.0480   24.9510 C.2    44  GLY44       0.2480
     30  O         25.2780   11.2060   25.5270 O.2    44  GLY44      -0.2729
     31  N         24.7110   12.2740   23.6220 N.am   45  PRO45      -0.2726
     32  CA        25.6480   11.4800   22.8050 C.3    45  PRO45       0.1402
     33  C         27.0950   11.5760   23.2840 C.2    45  PRO45       0.2269
     34  O         27.7820   10.5670   23.3140 O.2    45  PRO45      -0.2865
     35  CB        25.4900   12.0970   21.4100 C.3    45  PRO45       0.0296
     36  CG        24.0370   12.5180   21.4010 C.3    45  PRO45       0.0237
     37  CD        23.9480   13.2110   22.7730 C.3    45  PRO45       0.0939
     38  N         20.9040   10.3230   30.1390 N.3    61  ALA61      -0.1231
     39  CA        20.6670   10.9050   28.8410 C.3    61  ALA61       0.1694
     40  C         19.2240   10.7300   28.4490 C.2    61  ALA61       0.2592
     41  O         18.4600   10.0130   29.1040 O.2    61  ALA61      -0.2718
     42  CB        21.5550   10.2500   27.8060 C.3    61  ALA61       0.0304
     43  N         18.8850   11.3770   27.3420 N.am   62  GLY62      -0.1957
     44  CA        17.6000   11.2010   26.6640 C.3    62  GLY62       0.1869
     45  C         17.4350    9.7780   26.1260 C.2    62  GLY62       0.2309
     46  O         18.2970    8.9210   26.3030 O.2    62  GLY62      -0.2863
     47  N         20.1700    9.0280   22.6670 N.3    65  PRO65      -0.2116
     48  CA        21.6000    8.7220   22.6830 C.3    65  PRO65       0.1372
     49  C         21.9870    7.2300   22.8940 C.2    65  PRO65       0.2244
     50  O         22.8640    6.7640   22.2000 O.2    65  PRO65      -0.2868
     51  CB        22.1600    9.6410   23.7810 C.3    65  PRO65       0.0268
     52  CG        21.1860   10.8160   23.8100 C.3    65  PRO65       0.0207
     53  CD        19.8360   10.1620   23.5610 C.3    65  PRO65       0.0892
     54  N         13.7380    7.8900   33.1660 N.3    82  VAL82      -0.1245
     55  CA        13.3400    9.2070   33.5810 C.3    82  VAL82       0.1561
     56  C         12.1000    9.5480   32.7530 C.2    82  VAL82       0.2260
     57  O         12.1740    9.5060   31.5070 O.2    82  VAL82      -0.2867
     58  CB        14.4760   10.2070   33.2440 C.3    82  VAL82       0.0252
     59  CG1       14.0300   11.6440   33.4680 C.3    82  VAL82       0.0019
     60  CG2       15.7360    9.8590   34.0910 C.3    82  VAL82       0.0019
     61  N          9.5130   15.0500   29.7260 N.3    85  THR85      -0.1218
     62  CA         9.1280   16.4080   30.0280 C.3    85  THR85       0.1862
     63  C          8.9460   17.0520   28.6690 C.2    85  THR85       0.2287
     64  O          9.8320   17.7810   28.2060 O.2    85  THR85      -0.2866
     65  CB        10.2240   17.1530   30.8340 C.3    85  THR85       0.1770
     66  OG1       11.4610   17.0280   30.1390 O.3    85  THR85      -0.2211
     67  CG2       10.3910   16.5570   32.2070 C.3    85  THR85       0.0375
     68  N          9.3970   20.6280   27.6000 N.3    88  ALA88      -0.1231
     69  CA        10.7700   21.0970   27.6360 C.3    88  ALA88       0.1694
     70  C         11.5630   20.5950   26.4360 C.2    88  ALA88       0.2591
     71  O         12.7640   20.8380   26.3600 O.2    88  ALA88      -0.2718
     72  CB        11.4360   20.6400   28.9200 C.3    88  ALA88       0.0304
     73  N         10.9090   19.8660   25.5320 N.am   89  GLU89      -0.1979
     74  CA        11.5270   19.4150   24.2840 C.3    89  GLU89       0.1602
     75  C         10.8890   20.2170   23.1720 C.2    89  GLU89       0.2287
     76  O          9.6880   20.0760   22.9110 O.2    89  GLU89      -0.2864
     77  CB        11.2530   17.9230   24.0100 C.3    89  GLU89       0.0415
     78  CG        11.5520   16.9680   25.1840 C.3    89  GLU89       0.1163
     79  CD        13.0400   16.8400   25.5390 C.2    89  GLU89       0.3649
     80  OE1       13.9100   16.8460   24.6430 O.co2  89  GLU89      -0.2457
     81  OE2       13.3280   16.7010   26.7470 O.co2  89  GLU89      -0.2457
     82  N         20.2930   12.9600   19.8210 N.3   116  SER116     -0.1202
     83  CA        19.7400   13.4070   21.1140 C.3   116  SER116      0.2020
     84  C         18.2200   13.2570   21.0530 C.2   116  SER116      0.2619
     85  O         17.7150   12.8890   20.0390 O.2   116  SER116     -0.2717
     86  CB        20.1000   14.8710   21.3760 C.3   116  SER116      0.2103
     87  OG        19.4080   15.7180   20.4680 O.3   116  SER116     -0.2182
     88  N         17.5080   13.5400   22.1450 N.am  117  SER117     -0.1951
     89  CA        16.0280   13.5540   22.1540 C.3   117  SER117      0.1924
     90  C         15.4700   14.4880   21.0890 C.2   117  SER117      0.2314
     91  O         14.4150   14.2380   20.5100 O.2   117  SER117     -0.2863
     92  CB        15.5080   13.9840   23.5270 C.3   117  SER117      0.2116
     93  OG        16.1540   15.1830   23.9550 O.3   117  SER117     -0.2180
     94  N         16.3140   21.7540   24.1480 N.3   161  TRP161     -0.1227
     95  CA        15.5210   21.5120   25.3120 C.3   161  TRP161      0.1737
     96  C         15.7960   22.6620   26.2810 C.2   161  TRP161      0.2595
     97  O         16.5200   23.6040   25.9570 O.2   161  TRP161     -0.2718
     98  CB        15.9170   20.1460   25.8980 C.3   161  TRP161      0.0564
     99  CG        17.4100   19.9160   25.8540 C.ar  161  TRP161      0.0003
    100  CD1       18.3300   20.3700   26.7490 C.ar  161  TRP161      0.0946
    101  CD2       18.1560   19.1950   24.8510 C.ar  161  TRP161      0.0152
    102  NE1       19.5800   19.9690   26.3940 N.ar  161  TRP161     -0.2442
    103  CE2       19.5130   19.2530   25.2280 C.ar  161  TRP161      0.0810
    104  CE3       17.8040   18.5110   23.6770 C.ar  161  TRP161      0.0012
    105  CZ2       20.5260   18.6320   24.4980 C.ar  161  TRP161      0.0191
    106  CZ3       18.8210   17.8910   22.9420 C.ar  161  TRP161      0.0001
    107  CH2       20.1670   17.9590   23.3640 C.ar  161  TRP161      0.0015
    108  N         15.1920   22.6080   27.4500 N.am  162  ASP162     -0.1974
    109  CA        15.5480   23.5260   28.5200 C.3   162  ASP162      0.1709
    110  C         16.9780   23.2690   28.9860 C.2   162  ASP162      0.2293
    111  O         17.4500   22.1260   28.9590 O.2   162  ASP162     -0.2864
    112  CB        14.5700   23.4050   29.6900 C.3   162  ASP162      0.1436
    113  CG        13.4100   24.3830   29.5790 C.2   162  ASP162      0.3671
    114  OD1       13.6220   25.5140   29.0650 O.co2 162  ASP162     -0.2456
    115  OD2       12.3000   24.0140   29.9970 O.co2 162  ASP162     -0.2456
    116  N         10.8720    9.6040   27.3510 N.3   187  GLY187     -0.1210
    117  CA        11.5940   10.1500   28.4810 C.3   187  GLY187      0.1956
    118  C         13.0780    9.8750   28.2510 C.2   187  GLY187      0.2612
    119  O         13.5680    9.9170   27.1270 O.2   187  GLY187     -0.2717
    120  N         13.7980    9.6050   29.3160 N.am  188  GLY188     -0.1956
    121  CA        15.2170    9.3910   29.1900 C.3   188  GLY188      0.1869
    122  C         15.6480    8.2380   30.0540 C.2   188  GLY188      0.2309
    123  O         14.8110    7.5060   30.5880 O.2   188  GLY188     -0.2863
    124  N          8.2590   21.2230   33.5770 N.3   247  ARG247     -0.1245
    125  CA         8.5760   19.8730   34.0260 C.3   247  ARG247      0.1563
    126  C          7.5180   19.3810   34.9740 C.2   247  ARG247      0.2260
    127  O          7.2690   20.0340   35.9950 O.2   247  ARG247     -0.2867
    128  CB         9.8790   19.8780   34.8180 C.3   247  ARG247      0.0307
    129  CG        11.0950   20.0510   34.0020 C.3   247  ARG247      0.0489
    130  CD        12.3090   19.8520   34.8510 C.3   247  ARG247      0.2205
    131  NE        12.3720   18.5080   35.4110 N.pl3 247  ARG247     -0.0865
    132  CZ        12.9960   17.4770   34.8430 C.cat 247  ARG247      0.5346
    133  NH1       13.6160   17.6040   33.6580 N.pl3 247  ARG247      0.1354
    134  NH2       12.9940   16.3040   35.4670 N.pl3 247  ARG247      0.1354
@<TRIPOS>BOND
     1    82    83    1
     2    85    84    2
     3    87    86    1
     4    91    90    2
     5    84    83    1
     6    84    88   am
     7    90    89    1
     8    83    86    1
     9    36    35    1
    10    36    37    1
    11    35    32    1
    12    88    89    1
    13    89    92    1
    14    50    49    2
    15    47    48    1
    16    47    53    1
    17    48    49    1
    18    48    51    1
    19    37    31    1
    20    32    33    1
    21    32    31    1
    22    76    75    2
    23   106   107   ar
    24   106   104   ar
    25    75    74    1
    26    33    34    2
    27   107   105   ar
    28    92    93    1
    29    53    52    1
    30    31    29   am
    31   104   101   ar
    32    51    52    1
    33    77    74    1
    34    77    78    1
    35    94    95    1
    36    74    73    1
    37    26    23    1
    38   105   103   ar
    39    80    79   ar
    40   101   103   ar
    41   101    99   ar
    42    29    30    2
    43    29    28    1
    44    78    79    1
    45   103   102   ar
    46    95    98    1
    47    95    96    1
    48    73    70   am
    49    79    81   ar
    50    27    28    1
    51    27    24   am
    52    23    24    1
    53    23    22    1
    54    99    98    1
    55    99   100   ar
    56    24    25    2
    57    97    96    2
    58    45    46    2
    59    45    44    1
    60    96   108   am
    61    71    70    2
    62   102   100   ar
    63    70    69    1
    64    44    43    1
    65   119   118    2
    66    43    40   am
    67   116   117    1
    68   108   109    1
    69    68    69    1
    70    69    72    1
    71    42    39    1
    72     8     7    2
    73    64    63    2
    74   118   117    1
    75   118   120   am
    76    40    39    1
    77    40    41    2
    78   109   110    1
    79   109   112    1
    80     9     7   am
    81    63    62    1
    82     7     6    1
    83    39    38    1
    84   111   110    2
    85   114   113   ar
    86   121   120    1
    87   121   122    1
    88   113   112    1
    89   113   115   ar
    90    61    62    1
    91     6     5    1
    92    62    65    1
    93   122   123    2
    94    66    65    1
    95    14    11    1
    96     5     2    1
    97    65    67    1
    98    57    56    2
    99    11    10    1
   100    11    12    1
   101     2     1    1
   102     2     3    1
   103    12    13    2
   104    12    15   am
   105     3     4    2
   106    56    55    1
   107    21    19    1
   108    54    55    1
   109    58    59    1
   110    58    55    1
   111    58    60    1
   112    15    16    1
   113   124   125    1
   114   133   132    1
   115   129   128    1
   116   129   130    1
   117   125   128    1
   118   125   126    1
   119    19    16    1
   120    19    20    1
   121    16    17    1
   122   132   131    2
   123   132   134    1
   124   130   131    1
   125   126   127    2
   126    17    18    2
