@<TRIPOS>MOLECULE
tmp/3e4vB00.pdb
 183 177 0 0 0
SMALL
GASTEIGER

@<TRIPOS>ATOM
      1  N         25.3610   66.8000  -10.2020 N.3    17  ILE17      -0.1245
      2  CA        24.8480   65.8660  -11.2150 C.3    17  ILE17       0.1561
      3  C         26.0330   65.3790  -12.0320 C.2    17  ILE17       0.2260
      4  O         26.9830   66.1120  -12.2900 O.2    17  ILE17      -0.2867
      5  CB        23.7810   66.5150  -12.1300 C.3    17  ILE17       0.0252
      6  CG1       22.9830   65.4680  -12.9080 C.3    17  ILE17       0.0019
      7  CG2       24.3810   67.6170  -13.0350 C.3    17  ILE17       0.0019
      8  CD1       22.1370   64.4880  -12.0400 C.3    17  ILE17       0.0001
      9  N         28.5290   55.1140  -24.6920 N.3    30  ASN30      -0.1225
     10  CA        27.2410   55.7170  -24.3270 C.3    30  ASN30       0.1785
     11  C         27.4090   56.6270  -23.1310 C.2    30  ASN30       0.2597
     12  O         28.4390   56.6020  -22.4470 O.2    30  ASN30      -0.2718
     13  CB        26.2340   54.6070  -23.9890 C.3    30  ASN30       0.1169
     14  CG        24.7960   55.1100  -23.9240 C.2    30  ASN30       0.2627
     15  OD1       24.4280   56.0350  -24.6590 O.2    30  ASN30      -0.2716
     16  ND2       23.9860   54.5250  -23.0190 N.am   30  ASN30      -0.0877
     17  N         26.3650   57.4210  -22.9020 N.am   31  LEU31      -0.1980
     18  CA        26.2480   58.2770  -21.7300 C.3    31  LEU31       0.1596
     19  C         24.8500   58.1370  -21.1460 C.2    31  LEU31       0.2287
     20  O         23.8880   57.9950  -21.8900 O.2    31  LEU31      -0.2864
     21  CB        26.4780   59.7700  -22.0840 C.3    31  LEU31       0.0297
     22  CG        27.9000   60.0950  -22.5710 C.3    31  LEU31       0.0022
     23  CD1       27.9470   61.4010  -23.3940 C.3    31  LEU31       0.0001
     24  CD2       28.8960   60.1740  -21.3960 C.3    31  LEU31       0.0001
     25  N         22.6820   59.9900  -17.3750 N.3    32  THR32      -0.1218
     26  CA        22.7380   61.0050  -16.3350 C.3    32  THR32       0.1862
     27  C         22.3450   60.3890  -14.9740 C.2    32  THR32       0.2287
     28  O         21.4290   59.5830  -14.9030 O.2    32  THR32      -0.2866
     29  CB        21.7950   62.1620  -16.7050 C.3    32  THR32       0.1770
     30  OG1       22.2560   62.6810  -17.9590 O.3    32  THR32      -0.2211
     31  CG2       21.7450   63.2550  -15.6160 C.3    32  THR32       0.0375
     32  N         21.8830   61.2130  -10.7190 N.3    33  GLY33      -0.1210
     33  CA        21.8030   62.0300   -9.5290 C.3    33  GLY33       0.1956
     34  C         21.8000   61.2700   -8.2040 C.2    33  GLY33       0.2611
     35  O         21.9870   61.8630   -7.1440 O.2    33  GLY33      -0.2717
     36  N         21.5770   59.9450   -8.2760 N.am   34  PHE34      -0.1976
     37  CA        21.5580   59.1050   -7.0670 C.3    34  PHE34       0.1639
     38  C         22.9520   58.4940   -6.8670 C.2    34  PHE34       0.2290
     39  O         23.2780   57.4340   -7.4010 O.2    34  PHE34      -0.2864
     40  CB        20.4700   58.0020   -7.1460 C.3    34  PHE34       0.0560
     41  CG        19.0280   58.4860   -6.9260 C.ar   34  PHE34      -0.0200
     42  CD1       18.6500   59.8090   -7.0000 C.ar   34  PHE34      -0.0042
     43  CD2       18.0560   57.5560   -6.5910 C.ar   34  PHE34      -0.0042
     44  CE1       17.3260   60.1840   -6.7720 C.ar   34  PHE34      -0.0003
     45  CE2       16.7520   57.9330   -6.3490 C.ar   34  PHE34      -0.0003
     46  CZ        16.3910   59.2630   -6.4270 C.ar   34  PHE34      -0.0000
     47  N         23.5800   54.4730   -8.1210 N.3    45  ILE45      -0.1231
     48  CA        22.3680   53.7480   -8.5400 C.3    45  ILE45       0.1692
     49  C         22.2530   53.7920  -10.0630 C.2    45  ILE45       0.2592
     50  O         22.1430   54.8630  -10.6620 O.2    45  ILE45      -0.2718
     51  CB        21.0790   54.3620   -7.9780 C.3    45  ILE45       0.0266
     52  CG1       21.0960   54.3880   -6.4460 C.3    45  ILE45       0.0019
     53  CG2       19.8590   53.5870   -8.5260 C.3    45  ILE45       0.0020
     54  CD1       21.2390   53.0190   -5.7340 C.3    45  ILE45       0.0001
     55  N         22.3030   52.6140  -10.6580 N.am   46  ILE46      -0.1966
     56  CA        22.1280   52.4610  -12.1060 C.3    46  ILE46       0.1727
     57  C         21.2770   51.2190  -12.3000 C.2    46  ILE46       0.2616
     58  O         21.6870   50.1250  -11.9690 O.2    46  ILE46      -0.2715
     59  CB        23.4620   52.2980  -12.8680 C.3    46  ILE46       0.0290
     60  CG1       24.3040   53.5550  -12.7290 C.3    46  ILE46       0.0022
     61  CG2       23.2330   51.9370  -14.3710 C.3    46  ILE46       0.0023
     62  CD1       25.7280   53.4210  -13.1510 C.3    46  ILE46       0.0001
     63  N         20.0550   51.4260  -12.7760 N.am   47  GLY47      -0.1955
     64  CA        19.0710   50.3540  -12.8290 C.3    47  GLY47       0.1869
     65  C         18.7890   49.8430  -14.2380 C.2    47  GLY47       0.2309
     66  O         19.3090   50.3540  -15.2300 O.2    47  GLY47      -0.2863
     67  N         16.4230   49.9340  -16.1900 N.3    49  TRP49      -0.1227
     68  CA        15.7140   50.9000  -17.0480 C.3    49  TRP49       0.1737
     69  C         16.6800   51.6880  -17.9310 C.2    49  TRP49       0.2595
     70  O         16.2710   52.3470  -18.8870 O.2    49  TRP49      -0.2718
     71  CB        14.8070   51.8730  -16.2500 C.3    49  TRP49       0.0564
     72  CG        15.5660   52.6590  -15.2130 C.ar   49  TRP49       0.0003
     73  CD1       16.2020   53.8360  -15.4050 C.ar   49  TRP49       0.0946
     74  CD2       15.7560   52.3250  -13.8260 C.ar   49  TRP49       0.0152
     75  NE1       16.8300   54.2270  -14.2550 N.ar   49  TRP49      -0.2442
     76  CE2       16.5610   53.3280  -13.2640 C.ar   49  TRP49       0.0810
     77  CE3       15.3360   51.2700  -13.0240 C.ar   49  TRP49       0.0012
     78  CZ2       16.9280   53.3170  -11.9270 C.ar   49  TRP49       0.0191
     79  CZ3       15.6970   51.2560  -11.7210 C.ar   49  TRP49       0.0001
     80  CH2       16.4820   52.2850  -11.1730 C.ar   49  TRP49       0.0015
     81  N         17.9750   51.5830  -17.6170 N.am   50  ASP50      -0.1960
     82  CA        19.0130   52.2300  -18.4220 C.3    50  ASP50       0.1840
     83  C         19.6660   51.2240  -19.3470 C.2    50  ASP50       0.2622
     84  O         20.0870   50.1420  -18.8880 O.2    50  ASP50      -0.2715
     85  CB        20.1390   52.8020  -17.5530 C.3    50  ASP50       0.1450
     86  CG        19.6470   53.7460  -16.4670 C.2    50  ASP50       0.3671
     87  OD1       18.8000   54.6010  -16.7550 O.co2  50  ASP50      -0.2456
     88  OD2       20.1380   53.6270  -15.2920 O.co2  50  ASP50      -0.2456
     89  N         19.7600   51.5420  -20.6330 N.am   51  TYR51      -0.1960
     90  CA        20.5560   50.6890  -21.5400 C.3    51  TYR51       0.1771
     91  C         21.9630   50.4740  -20.9680 C.2    51  TYR51       0.2620
     92  O         22.5250   49.4110  -21.0950 O.2    51  TYR51      -0.2715
     93  CB        20.6530   51.3150  -22.9330 C.3    51  TYR51       0.0574
     94  CG        21.4770   50.4930  -23.9000 C.ar   51  TYR51      -0.0198
     95  CD1       21.0570   49.2350  -24.3000 C.ar   51  TYR51      -0.0009
     96  CD2       22.6660   50.9690  -24.3840 C.ar   51  TYR51      -0.0009
     97  CE1       21.8120   48.4620  -25.1660 C.ar   51  TYR51       0.0417
     98  CE2       23.4510   50.2250  -25.2510 C.ar   51  TYR51       0.0417
     99  CZ        23.0200   48.9600  -25.6350 C.ar   51  TYR51       0.1957
    100  OH        23.8120   48.2440  -26.5000 O.3    51  TYR51      -0.2866
    101  N         22.4960   51.5300  -20.3660 N.am   52  SER52      -0.1950
    102  CA        23.8460   51.5310  -19.8010 C.3    52  SER52       0.1924
    103  C         24.0910   50.4320  -18.7640 C.2    52  SER52       0.2314
    104  O         25.2330   50.0490  -18.4700 O.2    52  SER52      -0.2863
    105  CB        24.1450   52.8810  -19.1330 C.3    52  SER52       0.2116
    106  OG        24.1200   53.9810  -20.0390 O.3    52  SER52      -0.2180
    107  N         20.4230   67.1130  -19.0440 N.3    76  VAL76      -0.1245
    108  CA        19.0320   66.6710  -18.9050 C.3    76  VAL76       0.1561
    109  C         18.5910   65.8170  -20.0820 C.2    76  VAL76       0.2260
    110  O         17.9560   64.7690  -19.9240 O.2    76  VAL76      -0.2867
    111  CB        18.0480   67.8230  -18.7490 C.3    76  VAL76       0.0252
    112  CG1       16.5890   67.2800  -18.7450 C.3    76  VAL76       0.0019
    113  CG2       18.3100   68.5430  -17.4850 C.3    76  VAL76       0.0019
    114  N         20.3300   63.9780  -22.1140 N.3    78  ILE78      -0.1231
    115  CA        20.9860   62.6550  -22.0510 C.3    78  ILE78       0.1692
    116  C         20.1960   61.7090  -21.1350 C.2    78  ILE78       0.2593
    117  O         20.1300   60.4980  -21.3470 O.2    78  ILE78      -0.2718
    118  CB        22.5020   62.7870  -21.6270 C.3    78  ILE78       0.0266
    119  CG1       23.3250   63.2660  -22.8410 C.3    78  ILE78       0.0019
    120  CG2       23.0550   61.4680  -21.0490 C.3    78  ILE78       0.0020
    121  CD1       24.7550   63.7030  -22.5070 C.3    78  ILE78       0.0001
    122  N         19.5960   62.2910  -20.1050 N.am   79  GLY79      -0.1942
    123  CA        18.8200   61.5720  -19.1080 C.3    79  GLY79       0.2014
    124  C         17.3830   61.2820  -19.5010 C.2    79  GLY79       0.2639
    125  O         16.6140   60.7370  -18.7110 O.2    79  GLY79      -0.2714
    126  N         17.0370   61.6390  -20.7310 N.am   80  ASN80      -0.1958
    127  CA        15.6540   61.4830  -21.2500 C.3    80  ASN80       0.1819
    128  C         15.6020   60.7790  -22.6270 C.2    80  ASN80       0.2621
    129  O         14.5970   60.7820  -23.3400 O.2    80  ASN80      -0.2715
    130  CB        14.9390   62.8310  -21.2800 C.3    80  ASN80       0.1195
    131  CG        14.4680   63.2580  -19.8870 C.2    80  ASN80       0.2630
    132  OD1       13.3570   62.9100  -19.4810 O.2    80  ASN80      -0.2716
    133  ND2       15.3180   63.9860  -19.1440 N.am   80  ASN80      -0.0877
    134  N         16.7150   60.1730  -23.0000 N.am   81  CYS81      -0.1954
    135  CA        16.8060   59.3760  -24.2390 C.3    81  CYS81       0.1843
    136  C         17.7480   58.1960  -23.9940 C.2    81  CYS81       0.2626
    137  O         18.5330   58.2090  -23.0450 O.2    81  CYS81      -0.2714
    138  CB        17.2580   60.2140  -25.4520 C.3    81  CYS81       0.0997
    139  SG        18.9620   60.8720  -25.4280 S.3    81  CYS81      -0.0797
    140  N         17.6800   57.1700  -24.8420 N.am   82  SER82      -0.1936
    141  CA        18.4600   55.9600  -24.6370 C.3    82  SER82       0.2055
    142  C         19.4480   55.6970  -25.7460 C.2    82  SER82       0.2643
    143  O         19.1900   55.9160  -26.9250 O.2    82  SER82      -0.2714
    144  CB        17.5700   54.7340  -24.4520 C.3    82  SER82       0.2130
    145  OG        18.3820   53.5690  -24.1800 O.3    82  SER82      -0.2179
    146  N         20.5870   55.1980  -25.3220 N.am   83  GLY83      -0.1954
    147  CA        21.6960   54.8560  -26.1850 C.3    83  GLY83       0.1869
    148  C         21.5350   53.5290  -26.8890 C.2    83  GLY83       0.2309
    149  O         22.4050   53.1670  -27.6720 O.2    83  GLY83      -0.2863
    150  N         24.8440   59.0740  -28.5020 N.3    88  LYS88      -0.1245
    151  CA        24.7140   60.2980  -27.7420 C.3    88  LYS88       0.1561
    152  C         25.9410   61.2230  -27.8460 C.2    88  LYS88       0.2260
    153  O         25.8070   62.4290  -27.8580 O.2    88  LYS88      -0.2867
    154  CB        24.3890   60.0220  -26.2600 C.3    88  LYS88       0.0271
    155  CG        23.0540   59.2930  -26.0190 C.3    88  LYS88       0.0035
    156  CD        22.6260   59.3220  -24.5610 C.3    88  LYS88       0.0206
    157  CE        21.6120   58.2750  -24.1870 C.3    88  LYS88       0.1093
    158  NZ        21.3010   58.2510  -22.7220 N.3    88  LYS88      -0.1314
    159  N         21.1020   68.3390   -9.1050 N.3   151  HIS151     -0.1241
    160  CA        19.6870   68.0730   -9.3970 C.3   151  HIS151      0.1621
    161  C         18.8610   68.0980   -8.1160 C.2   151  HIS151      0.2264
    162  O         19.1640   67.4110   -7.1420 O.2   151  HIS151     -0.2867
    163  CB        19.5390   66.7050  -10.0590 C.3   151  HIS151      0.0745
    164  CG        18.1700   66.4610  -10.6240 C.ar  151  HIS151      0.0817
    165  ND1       17.5630   65.2270  -10.5940 N.ar  151  HIS151     -0.2268
    166  CD2       17.3270   67.2820  -11.3130 C.ar  151  HIS151      0.1154
    167  CE1       16.4010   65.3040  -11.2450 C.ar  151  HIS151      0.1986
    168  NE2       16.2280   66.5450  -11.6800 N.ar  151  HIS151     -0.2212
    169  N         13.9920   68.0550  -12.9600 N.3   155  GLY155     -0.1225
    170  CA        14.6600   68.8890  -13.9500 C.3   155  GLY155      0.1811
    171  C         15.0510   70.2630  -13.4210 C.2   155  GLY155      0.2280
    172  O         15.4890   71.1330  -14.1510 O.2   155  GLY155     -0.2866
    173  N         17.6380   72.4510  -11.1560 N.3   157  PHE157     -0.1241
    174  CA        19.0480   72.3720  -10.7410 C.3   157  PHE157      0.1605
    175  C         19.4990   73.6130   -9.9990 C.2   157  PHE157      0.2264
    176  O         19.2020   74.7220  -10.4310 O.2   157  PHE157     -0.2867
    177  CB        19.9950   72.2190  -11.9340 C.3   157  PHE157      0.0534
    178  CG        19.7950   70.9720  -12.7050 C.ar  157  PHE157     -0.0203
    179  CD1       18.8040   70.8830  -13.6680 C.ar  157  PHE157     -0.0042
    180  CD2       20.6010   69.8800  -12.4750 C.ar  157  PHE157     -0.0042
    181  CE1       18.5940   69.6960  -14.3600 C.ar  157  PHE157     -0.0003
    182  CE2       20.4000   68.7010  -13.1540 C.ar  157  PHE157     -0.0003
    183  CZ        19.4080   68.5930  -14.1040 C.ar  157  PHE157     -0.0000
@<TRIPOS>BOND
     1   150   151    1
     2   153   152    2
     3   152   151    1
     4   151   154    1
     5   149   148    2
     6   143   142    2
     7   148   147    1
     8   100    99    1
     9   154   155    1
    10   147   146    1
    11   155   156    1
    12   142   146   am
    13   142   141    1
    14    99    98   ar
    15    99    97   ar
    16   138   139    1
    17   138   135    1
    18    98    96   ar
    19    97    95   ar
    20   140   141    1
    21   140   136   am
    22     9    10    1
    23    15    14    2
    24   141   144    1
    25   156   157    1
    26   144   145    1
    27    96    94   ar
    28    10    13    1
    29    10    11    1
    30    95    94   ar
    31   135   136    1
    32   135   134    1
    33   157   158    1
    34   136   137    2
    35    13    14    1
    36    14    16   am
    37    94    93    1
    38    23    22    1
    39   129   128    2
    40    11    17   am
    41    11    12    2
    42   134   128   am
    43    93    90    1
    44    17    18    1
    45   119   121    1
    46   119   118    1
    47   128   127    1
    48    22    21    1
    49    22    24    1
    50   114   115    1
    51    21    18    1
    52   115   118    1
    53   115   116    1
    54    20    19    2
    55    18    19    1
    56   118   120    1
    57    90    91    1
    58    90    89    1
    59   117   116    2
    60   130   127    1
    61   130   131    1
    62   127   126    1
    63   116   122   am
    64    92    91    2
    65    91   101   am
    66   126   124   am
    67    89    83   am
    68   101   102    1
    69   122   123    1
    70   109   110    2
    71   109   108    1
    72   106   105    1
    73   131   132    2
    74   131   133   am
    75   102   105    1
    76   102   103    1
    77   124   123    1
    78   124   125    2
    79    83    84    2
    80    83    82    1
    81   107   108    1
    82   108   111    1
    83    70    69    2
    84   103   104    2
    85   111   112    1
    86   111   113    1
    87    82    81    1
    88    82    85    1
    89    30    29    1
    90    69    81   am
    91    69    68    1
    92    85    86    1
    93    25    26    1
    94    68    71    1
    95    68    67    1
    96    87    86   ar
    97    29    26    1
    98    29    31    1
    99    86    88   ar
   100    26    27    1
   101    71    72    1
   102    73    72   ar
   103    73    75   ar
   104    66    65    2
   105    72    74   ar
   106    27    28    2
   107    61    59    1
   108   181   183   ar
   109   181   179   ar
   110    75    76   ar
   111    65    64    1
   112   172   171    2
   113   183   182   ar
   114   170   171    1
   115   170   169    1
   116    74    76   ar
   117    74    77   ar
   118   179   178   ar
   119    76    78   ar
   120   182   180   ar
   121    62    60    1
   122     7     5    1
   123    77    79   ar
   124     6     5    1
   125     6     8    1
   126    59    60    1
   127    59    56    1
   128    64    63    1
   129    63    57   am
   130   178   180   ar
   131   178   177    1
   132    57    56    1
   133    57    58    2
   134     4     3    2
   135     5     2    1
   136    56    55    1
   137     3     2    1
   138   177   174    1
   139    78    80   ar
   140    79    80   ar
   141   168   166   ar
   142   168   167   ar
   143   166   164   ar
   144   167   165   ar
   145     2     1    1
   146   173   174    1
   147   174   175    1
   148    32    33    1
   149    50    49    2
   150    55    49   am
   151   164   165   ar
   152   164   163    1
   153   176   175    2
   154    49    48    1
   155   163   160    1
   156    33    34    1
   157   160   159    1
   158   160   161    1
   159    48    47    1
   160    48    51    1
   161    53    51    1
   162    36    34   am
   163    36    37    1
   164    34    35    2
   165   161   162    2
   166    51    52    1
   167    39    38    2
   168    40    37    1
   169    40    41    1
   170    37    38    1
   171    42    41   ar
   172    42    44   ar
   173    41    43   ar
   174    44    46   ar
   175    43    45   ar
   176    52    54    1
   177    46    45   ar
