@<TRIPOS>MOLECULE
tmp/3e4wA01.pdb
 90 83 0 0 0
SMALL
GASTEIGER

@<TRIPOS>ATOM
      1  N         -6.5130   32.1720   18.3560 N.3    24  LEU24      -0.1231
      2  CA        -6.1760   33.3960   19.0780 C.3    24  LEU24       0.1693
      3  C         -6.8650   34.4950   18.2790 C.2    24  LEU24       0.2592
      4  O         -7.2100   34.2810   17.1160 O.2    24  LEU24      -0.2718
      5  CB        -4.6630   33.6310   19.1290 C.3    24  LEU24       0.0284
      6  CG        -3.8680   32.8050   20.1520 C.3    24  LEU24       0.0019
      7  CD1       -2.4220   33.2830   20.1690 C.3    24  LEU24       0.0001
      8  CD2       -4.4780   32.9550   21.5400 C.3    24  LEU24       0.0001
      9  N         -7.0770   35.6560   18.8910 N.am   25  HIS25      -0.1976
     10  CA        -7.7610   36.7500   18.2080 C.3    25  HIS25       0.1656
     11  C         -9.1520   36.2810   17.7770 C.2    25  HIS25       0.2291
     12  O         -9.6400   36.6070   16.6870 O.2    25  HIS25      -0.2864
     13  CB        -6.9310   37.2160   17.0050 C.3    25  HIS25       0.0771
     14  CG        -5.7420   38.0420   17.3900 C.ar   25  HIS25       0.0820
     15  ND1       -5.7900   39.4170   17.4880 N.ar   25  HIS25      -0.2267
     16  CD2       -4.4890   37.6830   17.7600 C.ar   25  HIS25       0.1154
     17  CE1       -4.6190   39.8690   17.9010 C.ar   25  HIS25       0.1986
     18  NE2       -3.8120   38.8370   18.0740 N.ar   25  HIS25      -0.2212
     19  N         -6.7070   40.0890   21.1940 N.3    64  GLY64      -0.1225
     20  CA        -5.7920   38.9660   21.0750 C.3    64  GLY64       0.1811
     21  C         -6.1970   37.6670   21.7500 C.2    64  GLY64       0.2280
     22  O         -5.7060   36.6010   21.3860 O.2    64  GLY64      -0.2866
     23  N         -4.0790   42.5950   24.4250 N.3    77  VAL77      -0.1245
     24  CA        -3.5590   43.0530   23.1440 C.3    77  VAL77       0.1561
     25  C         -4.6990   43.2100   22.1490 C.2    77  VAL77       0.2260
     26  O         -5.6840   42.4710   22.2040 O.2    77  VAL77      -0.2867
     27  CB        -2.5390   42.0350   22.5810 C.3    77  VAL77       0.0252
     28  CG1       -2.1830   42.3800   21.1430 C.3    77  VAL77       0.0019
     29  CG2       -1.2890   42.0220   23.4490 C.3    77  VAL77       0.0019
     30  N         -0.3740   44.3550   15.7320 N.3    97  GLN97      -0.1245
     31  CA        -1.0350   44.3670   17.0270 C.3    97  GLN97       0.1566
     32  C         -0.4120   45.4410   17.9220 C.2    97  GLN97       0.2260
     33  O          0.5540   46.1070   17.5290 O.2    97  GLN97      -0.2867
     34  CB        -1.0020   42.9700   17.6610 C.3    97  GLN97       0.0367
     35  CG         0.3410   42.3050   17.6310 C.3    97  GLN97       0.0905
     36  CD         1.3250   42.9910   18.5300 C.2    97  GLN97       0.2608
     37  OE1        1.1640   42.9920   19.7510 O.2    97  GLN97      -0.2717
     38  NE2        2.3460   43.5980   17.9360 N.am   97  GLN97      -0.0878
     39  N          1.5370   45.5000   20.7690 N.3    99  ALA99      -0.1245
     40  CA         2.8820   45.4780   21.3610 C.3    99  ALA99       0.1562
     41  C          3.9070   46.0970   20.3980 C.2    99  ALA99       0.2260
     42  O          3.8420   45.8690   19.1900 O.2    99  ALA99      -0.2867
     43  CB         3.2870   44.0490   21.7070 C.3    99  ALA99       0.0290
     44  N          7.2180   45.5390   20.4020 N.3   101  LEU101     -0.1231
     45  CA         8.2220   44.5420   20.0560 C.3   101  LEU101      0.1693
     46  C          7.6460   43.1990   20.4620 C.2   101  LEU101      0.2592
     47  O          6.7560   43.1440   21.3080 O.2   101  LEU101     -0.2718
     48  CB         9.5210   44.7950   20.8290 C.3   101  LEU101      0.0284
     49  CG        10.3210   46.0600   20.5110 C.3   101  LEU101      0.0019
     50  CD1       11.4360   46.2310   21.5470 C.3   101  LEU101      0.0001
     51  CD2       10.9080   45.9610   19.1080 C.3   101  LEU101      0.0001
     52  N          8.1330   42.1190   19.8580 N.am  102  LEU102     -0.1966
     53  CA         7.6410   40.7950   20.2150 C.3   102  LEU102      0.1728
     54  C          8.2590   40.4160   21.5590 C.2   102  LEU102      0.2616
     55  O          9.3890   40.8070   21.8680 O.2   102  LEU102     -0.2715
     56  CB         8.0170   39.7730   19.1330 C.3   102  LEU102      0.0311
     57  CG         7.4810   38.3370   19.2440 C.3   102  LEU102      0.0022
     58  CD1        5.9930   38.3340   19.5190 C.3   102  LEU102      0.0001
     59  CD2        7.7680   37.5970   17.9450 C.3   102  LEU102      0.0001
     60  N          7.5090   39.6770   22.3680 N.am  103  VAL103     -0.1977
     61  CA         7.9920   39.2650   23.6790 C.3   103  VAL103      0.1596
     62  C          9.1560   38.2890   23.5810 C.2   103  VAL103      0.2287
     63  O          9.9870   38.2120   24.4840 O.2   103  VAL103     -0.2864
     64  CB         6.8750   38.5830   24.4980 C.3   103  VAL103      0.0276
     65  CG1        5.7920   39.5870   24.8450 C.3   103  VAL103      0.0022
     66  CG2        6.2950   37.4160   23.7090 C.3   103  VAL103      0.0022
     67  N          7.6960   32.5080   22.7970 N.3   110  PHE110     -0.1241
     68  CA         6.3450   33.0570   22.7800 C.3   110  PHE110      0.1605
     69  C          5.3760   32.1070   23.4800 C.2   110  PHE110      0.2264
     70  O          4.6520   32.5000   24.3970 O.2   110  PHE110     -0.2867
     71  CB         5.8840   33.2610   21.3380 C.3   110  PHE110      0.0534
     72  CG         4.4780   33.7720   21.2160 C.ar  110  PHE110     -0.0203
     73  CD1        4.2180   35.1380   21.2190 C.ar  110  PHE110     -0.0042
     74  CD2        3.4110   32.8860   21.0900 C.ar  110  PHE110     -0.0042
     75  CE1        2.9100   35.6170   21.0940 C.ar  110  PHE110     -0.0003
     76  CE2        2.1000   33.3540   20.9650 C.ar  110  PHE110     -0.0003
     77  CZ         1.8510   34.7240   20.9660 C.ar  110  PHE110     -0.0000
     78  N          1.4670   47.2580   25.7900 N.3   147  ALA147     -0.1245
     79  CA         0.7970   46.3580   24.8570 C.3   147  ALA147      0.1562
     80  C         -0.6020   45.9190   25.2790 C.2   147  ALA147      0.2260
     81  O         -1.4250   45.5560   24.4310 O.2   147  ALA147     -0.2867
     82  CB         1.6650   45.1300   24.6180 C.3   147  ALA147      0.0290
     83  N          5.8700   44.1520   13.6940 N.3   162  LEU162     -0.1245
     84  CA         7.0090   43.5030   14.3510 C.3   162  LEU162      0.1561
     85  C          8.1020   42.8660   13.4880 C.2   162  LEU162      0.2260
     86  O          9.2900   43.1280   13.6990 O.2   162  LEU162     -0.2867
     87  CB         6.4960   42.4660   15.3650 C.3   162  LEU162      0.0270
     88  CG         5.4600   43.0020   16.3670 C.3   162  LEU162      0.0019
     89  CD1        5.1740   41.9400   17.4410 C.3   162  LEU162      0.0001
     90  CD2        5.9820   44.2860   17.0130 C.3   162  LEU162      0.0001
@<TRIPOS>BOND
     1    85    86    2
     2    85    84    1
     3    83    84    1
     4    84    87    1
     5    87    88    1
     6    30    31    1
     7    88    90    1
     8    88    89    1
     9    12    11    2
    10    13    14    1
    11    13    10    1
    12    31    34    1
    13    31    32    1
    14     4     3    2
    15    14    15   ar
    16    14    16   ar
    17    15    17   ar
    18    33    32    2
    19    35    34    1
    20    35    36    1
    21    16    18   ar
    22    11    10    1
    23    17    18   ar
    24    38    36   am
    25    59    57    1
    26    10     9    1
    27     3     9   am
    28     3     2    1
    29     1     2    1
    30    36    37    2
    31     2     5    1
    32    51    49    1
    33     5     6    1
    34    56    57    1
    35    56    53    1
    36    42    41    2
    37    57    58    1
    38    52    53    1
    39    52    46   am
    40    45    44    1
    41    45    46    1
    42    45    48    1
    43     6     7    1
    44     6     8    1
    45    53    54    1
    46    41    40    1
    47    46    47    2
    48    49    48    1
    49    49    50    1
    50    39    40    1
    51    76    77   ar
    52    76    74   ar
    53    77    75   ar
    54    20    19    1
    55    20    21    1
    56    74    72   ar
    57    75    73   ar
    58    28    27    1
    59    72    73   ar
    60    72    71    1
    61    71    68    1
    62    40    43    1
    63    22    21    2
    64    54    55    2
    65    54    60   am
    66    25    26    2
    67    25    24    1
    68    60    61    1
    69    27    24    1
    70    27    29    1
    71    68    67    1
    72    68    69    1
    73    24    23    1
    74    69    70    2
    75    62    61    1
    76    62    63    2
    77    61    64    1
    78    66    64    1
    79    81    80    2
    80    64    65    1
    81    82    79    1
    82    79    80    1
    83    79    78    1
