@<TRIPOS>MOLECULE
tmp/3e4wA03.pdb
 90 84 0 0 0
SMALL
GASTEIGER

@<TRIPOS>ATOM
      1  N          1.5370   45.5000   20.7690 N.3    99  ALA99      -0.1231
      2  CA         2.8820   45.4780   21.3610 C.3    99  ALA99       0.1694
      3  C          3.9070   46.0970   20.3980 C.2    99  ALA99       0.2592
      4  O          3.8420   45.8690   19.1900 O.2    99  ALA99      -0.2718
      5  CB         3.2870   44.0490   21.7070 C.3    99  ALA99       0.0304
      6  N          4.8510   46.8700   20.9390 N.am  100  ARG100     -0.1966
      7  CA         5.8820   47.5370   20.1300 C.3   100  ARG100      0.1729
      8  C          6.9750   46.5970   19.6400 C.2   100  ARG100      0.2616
      9  O          7.6080   46.8470   18.6170 O.2   100  ARG100     -0.2715
     10  CB         6.5520   48.6630   20.9200 C.3   100  ARG100      0.0348
     11  CG         5.7330   49.9170   21.0860 C.3   100  ARG100      0.0492
     12  CD         6.5840   51.0000   21.7370 C.3   100  ARG100      0.2205
     13  NE         5.8670   52.2620   21.8580 N.pl3 100  ARG100     -0.0865
     14  CZ         6.4300   53.4020   22.2450 C.cat 100  ARG100      0.5346
     15  NH1        7.7220   53.4360   22.5470 N.pl3 100  ARG100      0.1354
     16  NH2        5.7020   54.5080   22.3280 N.pl3 100  ARG100      0.1354
     17  N          7.2180   45.5390   20.4020 N.am  101  LEU101     -0.1963
     18  CA         8.2220   44.5420   20.0560 C.3   101  LEU101      0.1728
     19  C          7.6460   43.1990   20.4620 C.2   101  LEU101      0.2616
     20  O          6.7560   43.1440   21.3080 O.2   101  LEU101     -0.2715
     21  CB         9.5210   44.7950   20.8290 C.3   101  LEU101      0.0311
     22  CG        10.3210   46.0600   20.5110 C.3   101  LEU101      0.0022
     23  CD1       11.4360   46.2310   21.5470 C.3   101  LEU101      0.0001
     24  CD2       10.9080   45.9610   19.1080 C.3   101  LEU101      0.0001
     25  N          8.1330   42.1190   19.8580 N.am  102  LEU102     -0.1963
     26  CA         7.6410   40.7950   20.2150 C.3   102  LEU102      0.1728
     27  C          8.2590   40.4160   21.5590 C.2   102  LEU102      0.2616
     28  O          9.3890   40.8070   21.8680 O.2   102  LEU102     -0.2715
     29  CB         8.0170   39.7730   19.1330 C.3   102  LEU102      0.0311
     30  CG         7.4810   38.3370   19.2440 C.3   102  LEU102      0.0022
     31  CD1        5.9930   38.3340   19.5190 C.3   102  LEU102      0.0001
     32  CD2        7.7680   37.5970   17.9450 C.3   102  LEU102      0.0001
     33  N          7.5090   39.6770   22.3680 N.am  103  VAL103     -0.1977
     34  CA         7.9920   39.2650   23.6790 C.3   103  VAL103      0.1596
     35  C          9.1560   38.2890   23.5810 C.2   103  VAL103      0.2287
     36  O          9.9870   38.2120   24.4840 O.2   103  VAL103     -0.2864
     37  CB         6.8750   38.5830   24.4980 C.3   103  VAL103      0.0276
     38  CG1        5.7920   39.5870   24.8450 C.3   103  VAL103      0.0022
     39  CG2        6.2950   37.4160   23.7090 C.3   103  VAL103      0.0022
     40  N         15.9900   39.6160   28.7890 N.3   136  ARG136     -0.1231
     41  CA        15.6640   40.7050   27.8760 C.3   136  ARG136      0.1694
     42  C         14.2480   41.2230   28.0990 C.2   136  ARG136      0.2591
     43  O         14.0160   42.4310   28.1250 O.2   136  ARG136     -0.2718
     44  CB        15.8240   40.2420   26.4270 C.3   136  ARG136      0.0321
     45  CG        17.2510   39.8780   26.0540 C.3   136  ARG136      0.0489
     46  CD        17.3170   39.3220   24.6420 C.3   136  ARG136      0.2205
     47  NE        16.9000   40.3070   23.6490 N.pl3 136  ARG136     -0.0865
     48  CZ        16.5920   40.0130   22.3900 C.cat 136  ARG136      0.5346
     49  NH1       16.6490   38.7570   21.9660 N.pl3 136  ARG136      0.1354
     50  NH2       16.2320   40.9770   21.5530 N.pl3 136  ARG136      0.1354
     51  N         13.3060   40.3000   28.2550 N.am  137  LEU137     -0.1980
     52  CA        11.9120   40.6610   28.4800 C.3   137  LEU137      0.1596
     53  C         11.7890   41.4170   29.7990 C.2   137  LEU137      0.2287
     54  O         11.0480   42.3980   29.9050 O.2   137  LEU137     -0.2864
     55  CB        11.0460   39.3970   28.5170 C.3   137  LEU137      0.0297
     56  CG         9.5390   39.5640   28.7330 C.3   137  LEU137      0.0022
     57  CD1        8.9430   40.4200   27.6250 C.3   137  LEU137      0.0001
     58  CD2        8.8790   38.1930   28.7600 C.3   137  LEU137      0.0001
     59  N         12.2310   45.1570   29.7130 N.3   140  ALA140     -0.1245
     60  CA        11.3130   45.9560   28.9090 C.3   140  ALA140      0.1562
     61  C          9.8990   45.8870   29.4710 C.2   140  ALA140      0.2260
     62  O          8.9230   45.9700   28.7270 O.2   140  ALA140     -0.2867
     63  CB        11.3260   45.4630   27.4640 C.3   140  ALA140      0.0290
     64  N          7.0020   47.9740   28.1950 N.3   143  LEU143     -0.1231
     65  CA         6.4320   47.6270   26.8990 C.3   143  LEU143      0.1693
     66  C          5.3320   46.5760   27.0240 C.2   143  LEU143      0.2591
     67  O          4.3760   46.5770   26.2490 O.2   143  LEU143     -0.2718
     68  CB         7.5290   47.1320   25.9460 C.3   143  LEU143      0.0284
     69  CG         8.6230   48.1460   25.5900 C.3   143  LEU143      0.0019
     70  CD1        9.5760   47.5380   24.5750 C.3   143  LEU143      0.0001
     71  CD2        7.9940   49.4090   25.0270 C.3   143  LEU143      0.0001
     72  N          5.4580   45.6840   28.0000 N.am  144  LEU144     -0.1980
     73  CA         4.4500   44.6470   28.1930 C.3   144  LEU144      0.1596
     74  C          3.1630   45.2980   28.6990 C.2   144  LEU144      0.2287
     75  O          2.0550   44.8670   28.3720 O.2   144  LEU144     -0.2864
     76  CB         4.9430   43.6070   29.2030 C.3   144  LEU144      0.0297
     77  CG         4.1290   42.3120   29.3050 C.3   144  LEU144      0.0022
     78  CD1        4.1920   41.5630   27.9800 C.3   144  LEU144      0.0001
     79  CD2        4.6820   41.4420   30.4230 C.3   144  LEU144      0.0001
     80  N          1.4670   47.2580   25.7900 N.3   147  ALA147     -0.1245
     81  CA         0.7970   46.3580   24.8570 C.3   147  ALA147      0.1562
     82  C         -0.6020   45.9190   25.2790 C.2   147  ALA147      0.2260
     83  O         -1.4250   45.5560   24.4310 O.2   147  ALA147     -0.2867
     84  CB         1.6650   45.1300   24.6180 C.3   147  ALA147      0.0290
     85  N         12.0920   40.7530   18.5810 N.3   235  SER235     -0.1217
     86  CA        12.0860   41.1960   19.9700 C.3   235  SER235      0.1889
     87  C         13.2010   42.2120   20.1860 C.2   235  SER235      0.2288
     88  O         13.2820   42.8490   21.2390 O.2   235  SER235     -0.2866
     89  CB        12.2860   40.0080   20.9270 C.3   235  SER235      0.2089
     90  OG        13.6220   39.5190   20.8930 O.3   235  SER235     -0.2183
@<TRIPOS>BOND
     1    32    30    1
     2    85    86    1
     3     9     8    2
     4    24    22    1
     5    29    30    1
     6    29    26    1
     7     4     3    2
     8    30    31    1
     9     8     7    1
    10     8    17   am
    11    25    26    1
    12    25    19   am
    13    86    87    1
    14    86    89    1
    15    18    17    1
    16    18    19    1
    17    18    21    1
    18     7    10    1
    19     7     6    1
    20    87    88    2
    21    26    27    1
    22     3     6   am
    23     3     2    1
    24    19    20    2
    25    22    21    1
    26    22    23    1
    27     1     2    1
    28    90    89    1
    29    10    11    1
    30    11    12    1
    31     2     5    1
    32    50    48    1
    33    27    28    2
    34    27    33   am
    35    12    13    1
    36    13    14    2
    37    49    48    1
    38    14    16    1
    39    14    15    1
    40    33    34    1
    41    48    47    2
    42    35    34    1
    43    35    36    2
    44    47    46    1
    45    34    37    1
    46    39    37    1
    47    83    82    2
    48    37    38    1
    49    70    69    1
    50    84    81    1
    51    46    45    1
    52    81    82    1
    53    81    80    1
    54    71    69    1
    55    69    68    1
    56    68    65    1
    57    45    44    1
    58    67    66    2
    59    44    41    1
    60    65    66    1
    61    65    64    1
    62    66    72   am
    63    63    60    1
    64    57    56    1
    65    41    42    1
    66    41    40    1
    67    78    77    1
    68    72    73    1
    69    42    43    2
    70    42    51   am
    71    73    74    1
    72    73    76    1
    73    51    52    1
    74    75    74    2
    75    52    55    1
    76    52    53    1
    77    55    56    1
    78    62    61    2
    79    56    58    1
    80    60    61    1
    81    60    59    1
    82    76    77    1
    83    77    79    1
    84    53    54    2
