@<TRIPOS>MOLECULE
tmp/3e4zA00.pdb
 222 218 0 0 0
SMALL
GASTEIGER

@<TRIPOS>ATOM
      1  N        108.0320  -29.8270   -8.8770 N.3    66  HIS66      -0.1241
      2  CA       107.1630  -30.5840   -9.7600 C.3    66  HIS66       0.1621
      3  C        106.3130  -29.6810  -10.6910 C.2    66  HIS66       0.2264
      4  O        106.1940  -29.9530  -11.8850 O.2    66  HIS66      -0.2867
      5  CB       106.2940  -31.5440   -8.9330 C.3    66  HIS66       0.0745
      6  CG       105.2720  -32.2880   -9.7350 C.ar   66  HIS66       0.0817
      7  ND1      103.9460  -32.3510   -9.3690 N.ar   66  HIS66      -0.2268
      8  CD2      105.3760  -32.9930  -10.8860 C.ar   66  HIS66       0.1154
      9  CE1      103.2710  -33.0530  -10.2560 C.ar   66  HIS66       0.1986
     10  NE2      104.1150  -33.4600  -11.1870 N.ar   66  HIS66      -0.2212
     11  N        108.4560  -28.4210  -13.3170 N.3    69  GLN69      -0.1231
     12  CA       108.6730  -29.4490  -14.3190 C.3    69  GLN69       0.1698
     13  C        107.5880  -29.3810  -15.4170 C.2    69  GLN69       0.2592
     14  O        107.9140  -29.3640  -16.5960 O.2    69  GLN69      -0.2718
     15  CB       108.7580  -30.8200  -13.6280 C.3    69  GLN69       0.0381
     16  CG       108.9230  -32.0460  -14.5370 C.3    69  GLN69       0.0905
     17  CD       107.7370  -32.9750  -14.4450 C.2    69  GLN69       0.2608
     18  OE1      106.8610  -32.9760  -15.3160 O.2    69  GLN69      -0.2717
     19  NE2      107.6860  -33.7550  -13.3820 N.am   69  GLN69      -0.0878
     20  N        106.3190  -29.2830  -15.0220 N.am   70  HIS70      -0.1976
     21  CA       105.2170  -29.0520  -15.9760 C.3    70  HIS70       0.1656
     22  C        105.4070  -27.7720  -16.7880 C.2    70  HIS70       0.2291
     23  O        105.1650  -27.7550  -18.0040 O.2    70  HIS70      -0.2864
     24  CB       103.8760  -28.9730  -15.2490 C.3    70  HIS70       0.0771
     25  CG       103.3420  -30.3030  -14.8190 C.ar   70  HIS70       0.0820
     26  ND1      102.1100  -30.7710  -15.2190 N.ar   70  HIS70      -0.2267
     27  CD2      103.8680  -31.2640  -14.0250 C.ar   70  HIS70       0.1154
     28  CE1      101.8980  -31.9660  -14.6970 C.ar   70  HIS70       0.1986
     29  NE2      102.9470  -32.2860  -13.9620 N.ar   70  HIS70      -0.2212
     30  N        107.6500  -26.9720  -20.2270 N.3    73  PHE73      -0.1227
     31  CA       107.1610  -27.3890  -21.5480 C.3    73  PHE73       0.1736
     32  C        106.3190  -26.3090  -22.2440 C.2    73  PHE73       0.2595
     33  O        105.9570  -26.4580  -23.4110 O.2    73  PHE73      -0.2718
     34  CB       106.3010  -28.6530  -21.4200 C.3    73  PHE73       0.0547
     35  CG       107.0840  -29.8920  -21.0130 C.ar   73  PHE73      -0.0202
     36  CD1      107.3850  -30.1410  -19.6610 C.ar   73  PHE73      -0.0042
     37  CD2      107.4980  -30.8140  -21.9750 C.ar   73  PHE73      -0.0042
     38  CE1      108.0940  -31.2690  -19.2830 C.ar   73  PHE73      -0.0003
     39  CE2      108.2160  -31.9460  -21.6080 C.ar   73  PHE73      -0.0003
     40  CZ       108.5160  -32.1760  -20.2550 C.ar   73  PHE73      -0.0000
     41  N        105.9920  -25.2550  -21.5000 N.am   74  LEU74      -0.1980
     42  CA       104.9790  -24.2980  -21.8990 C.3    74  LEU74       0.1596
     43  C        105.5240  -22.9700  -22.4230 C.2    74  LEU74       0.2287
     44  O        104.8490  -21.9590  -22.3530 O.2    74  LEU74      -0.2864
     45  CB       104.0010  -24.0670  -20.7380 C.3    74  LEU74       0.0297
     46  CG       103.2660  -25.3340  -20.2580 C.3    74  LEU74       0.0022
     47  CD1      102.2820  -25.0040  -19.1540 C.3    74  LEU74       0.0001
     48  CD2      102.5570  -26.0120  -21.4090 C.3    74  LEU74       0.0001
     49  N        107.2150  -26.8580  -28.4520 N.3    85  TYR85      -0.1227
     50  CA       108.0230  -28.0540  -28.1870 C.3    85  TYR85       0.1736
     51  C        107.2790  -29.3400  -28.5730 C.2    85  TYR85       0.2596
     52  O        107.7860  -30.1390  -29.3630 O.2    85  TYR85      -0.2718
     53  CB       108.4470  -28.0700  -26.7150 C.3    85  TYR85       0.0548
     54  CG       109.2140  -29.3080  -26.2500 C.ar   85  TYR85      -0.0200
     55  CD1      108.5920  -30.2700  -25.4640 C.ar   85  TYR85      -0.0009
     56  CD2      110.5790  -29.4670  -26.5340 C.ar   85  TYR85      -0.0009
     57  CE1      109.2960  -31.3930  -24.9900 C.ar   85  TYR85       0.0417
     58  CE2      111.2900  -30.5880  -26.0790 C.ar   85  TYR85       0.0417
     59  CZ       110.6350  -31.5460  -25.3050 C.ar   85  TYR85       0.1957
     60  OH       111.3140  -32.6470  -24.8460 O.3    85  TYR85      -0.2866
     61  N        106.0750  -29.5120  -28.0220 N.am   86  SER86      -0.1952
     62  CA       105.3050  -30.7320  -28.2200 C.3    86  SER86       0.1924
     63  C        104.7840  -30.8870  -29.6400 C.2    86  SER86       0.2314
     64  O        104.7910  -32.0080  -30.1700 O.2    86  SER86      -0.2863
     65  CB       104.1950  -30.8970  -27.1790 C.3    86  SER86       0.2116
     66  OG       103.3080  -29.8120  -27.2150 O.3    86  SER86      -0.2180
     67  N        107.7230  -37.0620  -25.5520 N.3    96  SER96      -0.1202
     68  CA       108.4990  -36.4810  -24.4750 C.3    96  SER96       0.2020
     69  C        107.7810  -36.7290  -23.1900 C.2    96  SER96       0.2619
     70  O        106.5670  -36.8750  -23.1850 O.2    96  SER96      -0.2717
     71  CB       108.6190  -34.9650  -24.6670 C.3    96  SER96       0.2103
     72  OG       109.5520  -34.4190  -23.7540 O.3    96  SER96      -0.2182
     73  N        108.5330  -36.7650  -22.0980 N.am   97  ASN97      -0.1960
     74  CA       107.9300  -36.7540  -20.7800 C.3    97  ASN97       0.1819
     75  C        108.9850  -36.2570  -19.7900 C.2    97  ASN97       0.2621
     76  O        110.0880  -35.8770  -20.1850 O.2    97  ASN97      -0.2715
     77  CB       107.3900  -38.1480  -20.4080 C.3    97  ASN97       0.1195
     78  CG       106.1240  -38.0840  -19.5420 C.2    97  ASN97       0.2630
     79  OD1      105.8660  -37.0970  -18.8640 O.2    97  ASN97      -0.2716
     80  ND2      105.3240  -39.1430  -19.5870 N.am   97  ASN97      -0.0877
     81  N        108.6330  -36.2420  -18.5180 N.am   98  ALA98      -0.1963
     82  CA       109.5210  -35.7650  -17.4820 C.3    98  ALA98       0.1728
     83  C        109.0170  -36.3030  -16.1760 C.2    98  ALA98       0.2616
     84  O        107.8320  -36.5780  -16.0390 O.2    98  ALA98      -0.2715
     85  CB       109.5310  -34.2330  -17.4410 C.3    98  ALA98       0.0334
     86  N        109.8960  -36.4240  -15.1940 N.am   99  PHE99      -0.1960
     87  CA       109.4210  -36.7300  -13.8480 C.3    99  PHE99       0.1771
     88  C        110.2130  -35.9980  -12.7930 C.2    99  PHE99       0.2620
     89  O        111.3420  -35.5760  -13.0420 O.2    99  PHE99      -0.2715
     90  CB       109.4090  -38.2430  -13.5750 C.3    99  PHE99       0.0574
     91  CG       110.7780  -38.8710  -13.5480 C.ar   99  PHE99      -0.0200
     92  CD1      111.2640  -39.5520  -14.6610 C.ar   99  PHE99      -0.0042
     93  CD2      111.5800  -38.7930  -12.4030 C.ar   99  PHE99      -0.0042
     94  CE1      112.5310  -40.1580  -14.6390 C.ar   99  PHE99      -0.0003
     95  CE2      112.8650  -39.3820  -12.3770 C.ar   99  PHE99      -0.0003
     96  CZ       113.3330  -40.0740  -13.4920 C.ar   99  PHE99      -0.0000
     97  N        109.5960  -35.8490  -11.6200 N.am  100  THR100     -0.1937
     98  CA       110.2230  -35.2520  -10.4480 C.3   100  THR100      0.2028
     99  C        110.2310  -36.2880   -9.3310 C.2   100  THR100      0.2642
    100  O        109.1860  -36.8630   -8.9950 O.2   100  THR100     -0.2714
    101  CB       109.4420  -33.9830   -9.9950 C.3   100  THR100      0.1808
    102  OG1      109.3430  -33.0760  -11.1000 O.3   100  THR100     -0.2208
    103  CG2      110.1350  -33.2620   -8.8320 C.3   100  THR100      0.0379
    104  N        111.4130  -36.5480   -8.7760 N.am  101  SER101     -0.1949
    105  CA       111.5060  -37.3360   -7.5520 C.3   101  SER101      0.1924
    106  C        112.0310  -36.4110   -6.4410 C.2   101  SER101      0.2314
    107  O        112.0570  -35.1620   -6.6140 O.2   101  SER101     -0.2863
    108  CB       112.4230  -38.5440   -7.7660 C.3   101  SER101      0.2116
    109  OG       113.7420  -38.1130   -8.0560 O.3   101  SER101     -0.2180
    110  N        113.0640  -35.7730  -20.9110 N.3   108  TYR108     -0.1241
    111  CA       113.5790  -36.5600  -22.0410 C.3   108  TYR108      0.1605
    112  C        112.6540  -36.4750  -23.2420 C.2   108  TYR108      0.2264
    113  O        111.4740  -36.1940  -23.1000 O.2   108  TYR108     -0.2867
    114  CB       113.7870  -38.0440  -21.6480 C.3   108  TYR108      0.0534
    115  CG       112.6300  -38.6340  -20.8650 C.ar  108  TYR108     -0.0201
    116  CD1      111.5780  -39.3180  -21.5150 C.ar  108  TYR108     -0.0009
    117  CD2      112.5800  -38.5000  -19.4770 C.ar  108  TYR108     -0.0009
    118  CE1      110.5180  -39.8540  -20.7780 C.ar  108  TYR108      0.0417
    119  CE2      111.5440  -39.0190  -18.7350 C.ar  108  TYR108      0.0417
    120  CZ       110.5130  -39.6880  -19.3820 C.ar  108  TYR108      0.1957
    121  OH       109.4870  -40.1750  -18.6140 O.3   108  TYR108     -0.2866
    122  N         97.7950  -24.6150  -15.9550 N.3   140  GLU140     -0.1245
    123  CA        98.5330  -25.8530  -15.6930 C.3   140  GLU140      0.1567
    124  C         98.4920  -26.3200  -14.2390 C.2   140  GLU140      0.2260
    125  O         98.7150  -27.4980  -13.9690 O.2   140  GLU140     -0.2867
    126  CB        99.9750  -25.7400  -16.1980 C.3   140  GLU140      0.0388
    127  CG       100.7620  -27.0630  -16.1810 C.3   140  GLU140      0.1160
    128  CD       100.2320  -28.1350  -17.1550 C.2   140  GLU140      0.3649
    129  OE1      100.7730  -29.2740  -17.1270 O.co2 140  GLU140     -0.2457
    130  OE2       99.2920  -27.8540  -17.9390 O.co2 140  GLU140     -0.2457
    131  N         96.3070  -34.5380  -11.3230 N.3   147  GLU147     -0.1245
    132  CA        97.3180  -35.5660  -11.0700 C.3   147  GLU147      0.1567
    133  C         97.3050  -36.0620   -9.6180 C.2   147  GLU147      0.2260
    134  O         97.3080  -37.2700   -9.3870 O.2   147  GLU147     -0.2867
    135  CB        98.6950  -35.0620  -11.4620 C.3   147  GLU147      0.0388
    136  CG        99.7990  -36.0900  -11.3260 C.3   147  GLU147      0.1160
    137  CD       101.1700  -35.5880  -11.7910 C.2   147  GLU147      0.3649
    138  OE1      101.2850  -34.4790  -12.3840 O.co2 147  GLU147     -0.2457
    139  OE2      102.1530  -36.3270  -11.5640 O.co2 147  GLU147     -0.2457
    140  N         95.7080  -39.8950   -7.4980 N.3   151  ASN151     -0.1240
    141  CA        96.5250  -40.5990   -6.5000 C.3   151  ASN151      0.1653
    142  C         95.8780  -40.7130   -5.1320 C.2   151  ASN151      0.2266
    143  O         96.2490  -41.5780   -4.3470 O.2   151  ASN151     -0.2867
    144  CB        97.8670  -39.8900   -6.3110 C.3   151  ASN151      0.1155
    145  CG        98.7140  -39.9050   -7.5550 C.2   151  ASN151      0.2627
    146  OD1       98.5300  -40.7610   -8.4200 O.2   151  ASN151     -0.2716
    147  ND2       99.6440  -38.9470   -7.6650 N.am  151  ASN151     -0.0877
    148  N         98.9240  -47.4290   -2.6930 N.3   156  ALA156     -0.1231
    149  CA       100.3780  -47.2610   -2.7670 C.3   156  ALA156      0.1694
    150  C        100.8270  -45.8310   -2.4770 C.2   156  ALA156      0.2592
    151  O        101.7690  -45.6220   -1.7100 O.2   156  ALA156     -0.2718
    152  CB       100.9180  -47.7310   -4.1240 C.3   156  ALA156      0.0304
    153  N        100.1660  -44.8510   -3.0910 N.am  157  TRP157     -0.1976
    154  CA       100.5020  -43.4330   -2.8710 C.3   157  TRP157      0.1640
    155  C        100.1920  -42.9710   -1.4450 C.2   157  TRP157      0.2290
    156  O        100.9280  -42.1600   -0.8760 O.2   157  TRP157     -0.2864
    157  CB        99.7780  -42.5420   -3.8760 C.3   157  TRP157      0.0576
    158  CG       100.4250  -42.5040   -5.2370 C.ar  157  TRP157      0.0006
    159  CD1      100.0920  -43.2660   -6.3260 C.ar  157  TRP157      0.0946
    160  CD2      101.5000  -41.6460   -5.6600 C.ar  157  TRP157      0.0152
    161  NE1      100.8890  -42.9340   -7.3930 N.ar  157  TRP157     -0.2442
    162  CE2      101.7580  -41.9410   -7.0170 C.ar  157  TRP157      0.0810
    163  CE3      102.2570  -40.6450   -5.0240 C.ar  157  TRP157      0.0012
    164  CZ2      102.7550  -41.2960   -7.7500 C.ar  157  TRP157      0.0191
    165  CZ3      103.2500  -39.9950   -5.7530 C.ar  157  TRP157      0.0001
    166  CH2      103.4840  -40.3210   -7.1090 C.ar  157  TRP157      0.0015
    167  N        103.0110  -44.4490    0.6960 N.3   160  PHE160     -0.1241
    168  CA       104.1840  -43.6340    0.3900 C.3   160  PHE160      0.1605
    169  C        104.1980  -42.3440    1.2420 C.2   160  PHE160      0.2264
    170  O        105.1670  -42.0770    1.9590 O.2   160  PHE160     -0.2867
    171  CB       104.1950  -43.3520   -1.1130 C.3   160  PHE160      0.0534
    172  CG       105.2490  -42.3770   -1.5600 C.ar  160  PHE160     -0.0203
    173  CD1      104.9110  -41.0540   -1.8350 C.ar  160  PHE160     -0.0042
    174  CD2      106.5720  -42.7970   -1.7610 C.ar  160  PHE160     -0.0042
    175  CE1      105.8790  -40.1560   -2.2770 C.ar  160  PHE160     -0.0003
    176  CE2      107.5510  -41.9060   -2.1980 C.ar  160  PHE160     -0.0003
    177  CZ       107.2020  -40.5790   -2.4660 C.ar  160  PHE160     -0.0000
    178  N        105.3830  -33.9370   -2.1140 N.3   177  GLY177     -0.1210
    179  CA       106.0230  -33.6010   -3.3950 C.3   177  GLY177      0.1956
    180  C        105.1230  -33.3050   -4.5840 C.2   177  GLY177      0.2612
    181  O        105.4970  -32.5450   -5.4680 O.2   177  GLY177     -0.2717
    182  N        103.9390  -33.9010   -4.6340 N.am  178  THR178     -0.1952
    183  CA       103.0820  -33.7240   -5.8070 C.3   178  THR178      0.1897
    184  C        102.6330  -32.2750   -5.9390 C.2   178  THR178      0.2313
    185  O        102.6810  -31.7060   -7.0260 O.2   178  THR178     -0.2863
    186  CB       101.8470  -34.6310   -5.7750 C.3   178  THR178      0.1794
    187  OG1      102.2380  -35.9560   -5.4070 O.3   178  THR178     -0.2208
    188  CG2      101.1570  -34.6740   -7.1510 C.3   178  THR178      0.0378
    189  N         95.5140  -33.1530  -26.9680 N.3   777  PHE777     -0.1241
    190  CA        96.1620  -32.9210  -25.6880 C.3   777  PHE777      0.1605
    191  C         96.2140  -31.4110  -25.4020 C.2   777  PHE777      0.2264
    192  O         95.8160  -30.9620  -24.3310 O.2   777  PHE777     -0.2867
    193  CB        97.5730  -33.5300  -25.6900 C.3   777  PHE777      0.0534
    194  CG        98.3050  -33.4190  -24.3540 C.ar  777  PHE777     -0.0203
    195  CD1       98.2110  -34.4290  -23.4050 C.ar  777  PHE777     -0.0042
    196  CD2       99.0950  -32.3100  -24.0650 C.ar  777  PHE777     -0.0042
    197  CE1       98.8840  -34.3360  -22.1990 C.ar  777  PHE777     -0.0003
    198  CE2       99.7750  -32.2020  -22.8520 C.ar  777  PHE777     -0.0003
    199  CZ        99.6740  -33.2260  -21.9230 C.ar  777  PHE777     -0.0000
    200  N         93.4930  -30.6830  -22.6410 N.3   781  ARG781     -0.1245
    201  CA        94.2200  -30.5680  -21.3950 C.3   781  ARG781      0.1563
    202  C         94.8570  -29.1850  -21.2040 C.2   781  ARG781      0.2260
    203  O         94.4880  -28.4430  -20.2810 O.2   781  ARG781     -0.2867
    204  CB        95.2700  -31.6840  -21.2250 C.3   781  ARG781      0.0307
    205  CG        96.0510  -31.4790  -19.9520 C.3   781  ARG781      0.0489
    206  CD        96.9030  -32.6310  -19.5580 C.3   781  ARG781      0.2205
    207  NE        98.1320  -32.1030  -18.9940 N.pl3 781  ARG781     -0.0865
    208  CZ        99.0870  -32.8340  -18.4330 C.cat 781  ARG781      0.5346
    209  NH1       98.9740  -34.1620  -18.3440 N.pl3 781  ARG781      0.1354
    210  NH2      100.1670  -32.2150  -17.9680 N.pl3 781  ARG781      0.1354
    211  N         94.0170  -34.3450  -15.9700 N.3   788  TYR788     -0.1241
    212  CA        95.3570  -34.8640  -16.1710 C.3   788  TYR788      0.1605
    213  C         95.3690  -35.9280  -17.2870 C.2   788  TYR788      0.2264
    214  O         96.2030  -35.8830  -18.1960 O.2   788  TYR788     -0.2867
    215  CB        95.8970  -35.4220  -14.8400 C.3   788  TYR788      0.0534
    216  CG        97.2700  -36.0320  -14.9600 C.ar  788  TYR788     -0.0201
    217  CD1       98.4100  -35.2200  -15.0840 C.ar  788  TYR788     -0.0009
    218  CD2       97.4400  -37.4190  -14.9610 C.ar  788  TYR788     -0.0009
    219  CE1       99.6740  -35.7760  -15.2050 C.ar  788  TYR788      0.0417
    220  CE2       98.7220  -37.9900  -15.0760 C.ar  788  TYR788      0.0417
    221  CZ        99.8210  -37.1600  -15.1960 C.ar  788  TYR788      0.1957
    222  OH       101.0760  -37.7060  -15.2980 O.3   788  TYR788     -0.2866
@<TRIPOS>BOND
     1    64    63    2
     2    63    62    1
     3    52    51    2
     4    51    50    1
     5    51    61   am
     6    49    50    1
     7    62    61    1
     8    62    65    1
     9    50    53    1
    10    66    65    1
    11   189   190    1
    12    53    54    1
    13    56    54   ar
    14    56    58   ar
    15    54    55   ar
    16    58    59   ar
    17   193   190    1
    18   193   194    1
    19   190   191    1
    20    67    68    1
    21    55    57   ar
    22   191   192    2
    23    59    57   ar
    24    59    60    1
    25    71    68    1
    26    71    72    1
    27    68    69    1
    28   194   196   ar
    29   194   195   ar
    30   196   198   ar
    31    33    32    2
    32   195   197   ar
    33   112   113    2
    34   112   111    1
    35    69    70    2
    36    69    73   am
    37   198   199   ar
    38   200   201    1
    39    43    44    2
    40    43    42    1
    41    32    31    1
    42    32    41   am
    43   197   199   ar
    44    73    74    1
    45   111   114    1
    46   111   110    1
    47    37    39   ar
    48    37    35   ar
    49    42    41    1
    50    42    45    1
    51   114   115    1
    52    39    40   ar
    53    31    34    1
    54    31    30    1
    55   116   115   ar
    56   116   118   ar
    57    34    35    1
    58    48    46    1
    59   201   204    1
    60   201   202    1
    61   204   205    1
    62   202   203    2
    63    35    36   ar
    64   115   117   ar
    65    74    77    1
    66    74    75    1
    67   118   120   ar
    68    45    46    1
    69    77    78    1
    70    46    47    1
    71    40    38   ar
    72    76    75    2
    73   205   206    1
    74    75    81   am
    75    36    38   ar
    76    80    78   am
    77   206   207    1
    78    78    79    2
    79   117   119   ar
    80   120   119   ar
    81   120   121    1
    82   207   208    2
    83    81    82    1
    84   208   209    1
    85   208   210    1
    86   214   213    2
    87    23    22    2
    88   130   128   ar
    89    82    85    1
    90    82    83    1
    91   213   212    1
    92   128   129   ar
    93   128   127    1
    94    22    21    1
    95    14    13    2
    96   126   127    1
    97   126   123    1
    98    83    84    2
    99    83    86   am
   100   212   211    1
   101   212   215    1
   102    21    24    1
   103    21    20    1
   104   122   123    1
   105   123   124    1
   106    13    20   am
   107    13    12    1
   108    18    17    2
   109   222   221    1
   110    24    25    1
   111    26    25   ar
   112    26    28   ar
   113   219   221   ar
   114   219   217   ar
   115   221   220   ar
   116    86    87    1
   117   217   216   ar
   118   220   218   ar
   119   218   216   ar
   120   216   215    1
   121    25    27   ar
   122    28    29   ar
   123    92    94   ar
   124    92    91   ar
   125    94    96   ar
   126    16    17    1
   127    16    15    1
   128    17    19   am
   129    12    15    1
   130    12    11    1
   131   124   125    2
   132    27    29   ar
   133    87    90    1
   134    87    88    1
   135    90    91    1
   136    91    93   ar
   137    96    95   ar
   138    89    88    2
   139    88    97   am
   140    93    95   ar
   141   138   137   ar
   142     4     3    2
   143   137   139   ar
   144   137   136    1
   145    97    98    1
   146   135   136    1
   147   135   132    1
   148   131   132    1
   149    10     8   ar
   150    10     9   ar
   151   102   101    1
   152   132   133    1
   153     8     6   ar
   154     3     2    1
   155    98   101    1
   156    98    99    1
   157     9     7   ar
   158   101   103    1
   159     2     5    1
   160     2     1    1
   161     6     7   ar
   162     6     5    1
   163   133   134    2
   164    99   100    2
   165    99   104   am
   166   104   105    1
   167   146   145    2
   168   109   108    1
   169   108   105    1
   170   164   166   ar
   171   164   162   ar
   172   147   145   am
   173   145   144    1
   174   105   106    1
   175   140   141    1
   176   161   162   ar
   177   161   159   ar
   178   188   186    1
   179   166   165   ar
   180   185   184    2
   181   162   160   ar
   182   107   106    2
   183   141   144    1
   184   141   142    1
   185   159   158   ar
   186   184   183    1
   187   183   186    1
   188   183   182    1
   189   186   187    1
   190   165   163   ar
   191   160   158   ar
   192   160   163   ar
   193   181   180    2
   194   158   157    1
   195   142   143    2
   196   182   180   am
   197   180   179    1
   198   152   149    1
   199   157   154    1
   200   179   178    1
   201   153   154    1
   202   153   150   am
   203   154   155    1
   204   149   148    1
   205   149   150    1
   206   150   151    2
   207   177   175   ar
   208   177   176   ar
   209   175   173   ar
   210   176   174   ar
   211   173   172   ar
   212   174   172   ar
   213   172   171    1
   214   155   156    2
   215   171   168    1
   216   168   167    1
   217   168   169    1
   218   169   170    2
