@<TRIPOS>MOLECULE
tmp/3e50A00.pdb
 115 110 0 0 0
SMALL
GASTEIGER

@<TRIPOS>ATOM
      1  N         13.1830 -133.0040   35.3150 N.3   290  HIS290     -0.1241
      2  CA        12.1050 -133.0360   34.3040 C.3   290  HIS290      0.1621
      3  C         10.9130 -133.9770   34.6910 C.2   290  HIS290      0.2264
      4  O          9.7350 -133.6360   34.5450 O.2   290  HIS290     -0.2867
      5  CB        12.7060 -133.4120   32.9130 C.3   290  HIS290      0.0745
      6  CG        11.6910 -133.7990   31.8610 C.ar  290  HIS290      0.0817
      7  ND1       10.6250 -132.9920   31.4960 N.ar  290  HIS290     -0.2268
      8  CD2       11.6350 -134.8810   31.0340 C.ar  290  HIS290      0.1154
      9  CE1        9.9300 -133.5800   30.5370 C.ar  290  HIS290      0.1986
     10  NE2       10.5200 -134.7260   30.2370 N.ar  290  HIS290     -0.2212
     11  N          9.1370 -132.0940   37.2500 N.3   293  GLY293     -0.1210
     12  CA         8.4550 -131.0080   36.6050 C.3   293  GLY293      0.1956
     13  C          7.2140 -131.4940   35.8680 C.2   293  GLY293      0.2611
     14  O          6.1380 -130.9170   36.0060 O.2   293  GLY293     -0.2717
     15  N          7.3410 -132.5630   35.1000 N.am  294  HIS294     -0.1975
     16  CA         6.1730 -133.2030   34.4770 C.3   294  HIS294      0.1656
     17  C          5.0590 -133.4790   35.4680 C.2   294  HIS294      0.2291
     18  O          3.9160 -133.1590   35.2230 O.2   294  HIS294     -0.2864
     19  CB         6.6370 -134.5150   33.8070 C.3   294  HIS294      0.0771
     20  CG         5.5210 -135.3910   33.3330 C.ar  294  HIS294      0.0820
     21  ND1        4.8340 -135.1370   32.1670 N.ar  294  HIS294     -0.2267
     22  CD2        4.9920 -136.5340   33.8390 C.ar  294  HIS294      0.1154
     23  CE1        3.9550 -136.1020   31.9530 C.ar  294  HIS294      0.1986
     24  NE2        3.9970 -136.9380   32.9690 N.ar  294  HIS294     -0.2212
     25  N          4.0970 -129.9680   37.5240 N.3   297  GLY297     -0.1225
     26  CA         3.4730 -129.0450   36.5530 C.3   297  GLY297      0.1811
     27  C          2.2840 -129.6330   35.7470 C.2   297  GLY297      0.2280
     28  O          1.7840 -128.9680   34.8420 O.2   297  GLY297     -0.2866
     29  N         -1.3610 -130.8750   34.4140 N.3   299  GLU299     -0.1245
     30  CA        -2.6140 -130.0890   34.3790 C.3   299  GLU299      0.1567
     31  C         -3.8310 -130.9880   34.1370 C.2   299  GLU299      0.2260
     32  O         -4.9460 -130.4810   33.9660 O.2   299  GLU299     -0.2867
     33  CB        -2.5380 -128.9960   33.2820 C.3   299  GLU299      0.0388
     34  CG        -1.3890 -128.0500   33.4150 C.3   299  GLU299      0.1160
     35  CD        -1.4990 -126.8500   32.4670 C.2   299  GLU299      0.3649
     36  OE1       -0.5600 -126.0160   32.4630 O.co2 299  GLU299     -0.2457
     37  OE2       -2.5260 -126.7330   31.7140 O.co2 299  GLU299     -0.2457
     38  N         -0.4330 -122.7000   36.1600 N.3   317  LEU317     -0.1231
     39  CA         0.6680 -123.1260   36.9810 C.3   317  LEU317      0.1693
     40  C          1.8510 -123.5230   36.0740 C.2   317  LEU317      0.2592
     41  O          1.6730 -124.2510   35.1010 O.2   317  LEU317     -0.2718
     42  CB         0.1900 -124.2940   37.8760 C.3   317  LEU317      0.0284
     43  CG         1.2290 -124.8440   38.8540 C.3   317  LEU317      0.0019
     44  CD1        0.5850 -125.4640   40.1670 C.3   317  LEU317      0.0001
     45  CD2        2.1510 -125.8370   38.2100 C.3   317  LEU317      0.0001
     46  N          3.0410 -123.0260   36.3860 N.am  318  VAL318     -0.1966
     47  CA         4.3160 -123.5330   35.8710 C.3   318  VAL318      0.1727
     48  C          5.1150 -124.2000   36.9950 C.2   318  VAL318      0.2617
     49  O          5.2160 -123.6660   38.0770 O.2   318  VAL318     -0.2715
     50  CB         5.2220 -122.3960   35.3300 C.3   318  VAL318      0.0290
     51  CG1        6.3470 -122.9960   34.4700 C.3   318  VAL318      0.0023
     52  CG2        4.4130 -121.3950   34.4980 C.3   318  VAL318      0.0023
     53  N          5.6720 -125.3840   36.7470 N.am  319  GLY319     -0.1940
     54  CA         6.5890 -126.0000   37.7180 C.3   319  GLY319      0.2014
     55  C          7.6810 -126.7710   37.0340 C.2   319  GLY319      0.2639
     56  O          7.4990 -127.3180   35.9630 O.2   319  GLY319     -0.2714
     57  N          8.8270 -126.8300   37.6790 N.am  320  GLY320     -0.1939
     58  CA         9.8500 -127.7680   37.3060 C.3   320  GLY320      0.2014
     59  C         11.1840 -127.1230   37.5290 C.2   320  GLY320      0.2639
     60  O         11.3040 -126.1290   38.2200 O.2   320  GLY320     -0.2714
     61  N         12.1970 -127.6400   36.8660 N.am  321  GLN321     -0.1963
     62  CA        13.5080 -127.0820   37.0790 C.3   321  GLN321      0.1733
     63  C         13.8150 -125.8660   36.2030 C.2   321  GLN321      0.2616
     64  O         13.3710 -125.7750   35.0710 O.2   321  GLN321     -0.2715
     65  CB        14.5490 -128.1690   36.8500 C.3   321  GLN321      0.0408
     66  CG        14.6060 -128.5820   35.4260 C.3   321  GLN321      0.0908
     67  CD        15.4360 -129.8620   35.2010 C.2   321  GLN321      0.2608
     68  OE1       16.2620 -130.2410   36.0370 O.2   321  GLN321     -0.2717
     69  NE2       15.2140 -130.5260   34.0360 N.am  321  GLN321     -0.0878
     70  N         14.7300 -125.0420   36.6940 N.am  322  LYS322     -0.1977
     71  CA        15.0880 -123.7750   36.1240 C.3   322  LYS322      0.1596
     72  C         16.6440 -123.6850   36.2350 C.2   322  LYS322      0.2287
     73  O         17.2300 -124.0270   37.2570 O.2   322  LYS322     -0.2864
     74  CB        14.3490 -122.7230   36.9470 C.3   322  LYS322      0.0298
     75  CG        14.4830 -121.2770   36.5370 C.3   322  LYS322      0.0038
     76  CD        14.1040 -120.3430   37.7740 C.3   322  LYS322      0.0206
     77  CE        14.3610 -118.8180   37.5040 C.3   322  LYS322      0.1093
     78  NZ        15.1850 -118.0480   38.5860 N.3   322  LYS322     -0.1314
     79  N         10.9860 -124.5250   40.7140 N.3   332  ILE332     -0.1245
     80  CA         9.9620 -123.4900   40.9160 C.3   332  ILE332      0.1561
     81  C          8.5570 -124.1000   40.8100 C.2   332  ILE332      0.2260
     82  O          8.3800 -125.1510   40.1960 O.2   332  ILE332     -0.2867
     83  CB        10.1220 -122.2930   39.8730 C.3   332  ILE332      0.0252
     84  CG1        9.9390 -122.8610   38.4370 C.3   332  ILE332      0.0019
     85  CG2       11.4950 -121.6430   40.0720 C.3   332  ILE332      0.0019
     86  CD1        9.3420 -122.0170   37.4740 C.3   332  ILE332      0.0001
     87  N         -4.5110 -131.2150   27.7560 N.3   567  TYR567     -0.1241
     88  CA        -3.1450 -131.2330   28.2340 C.3   567  TYR567      0.1605
     89  C         -2.4170 -132.5470   27.8430 C.2   567  TYR567      0.2264
     90  O         -1.2670 -132.5170   27.3460 O.2   567  TYR567     -0.2867
     91  CB        -3.0890 -130.9360   29.7370 C.3   567  TYR567      0.0534
     92  CG        -1.6480 -130.7670   30.2480 C.ar  567  TYR567     -0.0201
     93  CD1       -0.9350 -129.5650   30.0180 C.ar  567  TYR567     -0.0009
     94  CD2       -0.9980 -131.8060   30.9300 C.ar  567  TYR567     -0.0009
     95  CE1        0.3580 -129.4110   30.4550 C.ar  567  TYR567      0.0417
     96  CE2        0.3140 -131.6400   31.3880 C.ar  567  TYR567      0.0417
     97  CZ         0.9600 -130.4400   31.1490 C.ar  567  TYR567      0.1957
     98  OH         2.2380 -130.2850   31.5790 O.3   567  TYR567     -0.2866
     99  N         -1.5320 -132.3380   24.2830 N.3   570  GLU570     -0.1231
    100  CA        -0.4480 -131.4410   24.0940 C.3   570  GLU570      0.1699
    101  C          0.9620 -132.0630   24.4680 C.2   570  GLU570      0.2592
    102  O          1.9280 -131.9100   23.7280 O.2   570  GLU570     -0.2718
    103  CB        -0.7360 -130.1200   24.8360 C.3   570  GLU570      0.0402
    104  CG         0.5450 -129.3730   25.0240 C.3   570  GLU570      0.1161
    105  CD         0.3620 -127.9300   25.3960 C.2   570  GLU570      0.3649
    106  OE1        0.1170 -127.1260   24.4270 O.co2 570  GLU570     -0.2457
    107  OE2        0.5230 -127.6070   26.6220 O.co2 570  GLU570     -0.2457
    108  N          1.0620 -132.7760   25.5880 N.am  571  LEU571     -0.1980
    109  CA         2.2640 -133.5820   25.8800 C.3   571  LEU571      0.1596
    110  C          2.5740 -134.5850   24.7940 C.2   571  LEU571      0.2287
    111  O          3.7530 -134.8280   24.5080 O.2   571  LEU571     -0.2864
    112  CB         2.1220 -134.3360   27.2160 C.3   571  LEU571      0.0297
    113  CG         1.8310 -133.4530   28.4380 C.3   571  LEU571      0.0022
    114  CD1        1.4410 -134.3580   29.5750 C.3   571  LEU571      0.0001
    115  CD2        3.1070 -132.6690   28.8190 C.3   571  LEU571      0.0001
@<TRIPOS>BOND
     1   102   101    2
     2   100    99    1
     3   100   101    1
     4   100   103    1
     5   106   105   ar
     6   101   108   am
     7   111   110    2
     8   110   109    1
     9   103   104    1
    10   104   105    1
    11   105   107   ar
    12   108   109    1
    13   109   112    1
    14   112   113    1
    15    90    89    2
    16    87    88    1
    17    89    88    1
    18    88    91    1
    19   113   115    1
    20   113   114    1
    21    91    92    1
    22    93    92   ar
    23    93    95   ar
    24    10     9   ar
    25    10     8   ar
    26    92    94   ar
    27    95    97   ar
    28     9     7   ar
    29    94    96   ar
    30     8     6   ar
    31    97    96   ar
    32    97    98    1
    33     7     6   ar
    34    37    35   ar
    35     6     5    1
    36    23    21   ar
    37    23    24   ar
    38    21    20   ar
    39    36    35   ar
    40    35    34    1
    41     5     2    1
    42    24    22   ar
    43    33    34    1
    44    33    30    1
    45    20    19    1
    46    20    22   ar
    47    19    16    1
    48    32    31    2
    49    69    67   am
    50    31    30    1
    51     2     3    1
    52     2     1    1
    53    30    29    1
    54    51    50    1
    55    16    15    1
    56    16    17    1
    57    52    50    1
    58     4     3    2
    59    28    27    2
    60    64    63    2
    61    15    13   am
    62    41    40    2
    63    67    66    1
    64    67    68    2
    65    18    17    2
    66    50    47    1
    67    66    65    1
    68    27    26    1
    69    13    14    2
    70    13    12    1
    71    47    46    1
    72    47    48    1
    73    56    55    2
    74    40    46   am
    75    40    39    1
    76    71    72    1
    77    71    70    1
    78    71    74    1
    79    38    39    1
    80    63    70   am
    81    63    62    1
    82    72    73    2
    83    75    74    1
    84    75    76    1
    85    26    25    1
    86    12    11    1
    87    53    48   am
    88    53    54    1
    89    65    62    1
    90    61    62    1
    91    61    59   am
    92    39    42    1
    93    48    49    2
    94    55    57   am
    95    55    54    1
    96    58    59    1
    97    58    57    1
    98    86    84    1
    99    77    76    1
   100    77    78    1
   101    59    60    2
   102    42    43    1
   103    45    43    1
   104    84    83    1
   105    43    44    1
   106    83    85    1
   107    83    80    1
   108    82    81    2
   109    79    80    1
   110    81    80    1
