@<TRIPOS>MOLECULE
tmp/3e50B00.pdb
 150 142 0 0 0
SMALL
GASTEIGER

@<TRIPOS>ATOM
      1  N         39.1490 -109.1430  -19.6600 N.3   278  GLN278     -0.1245
      2  CA        38.3090 -107.9700  -19.6570 C.3   278  GLN278      0.1566
      3  C         36.8770 -108.2900  -19.2100 C.2   278  GLN278      0.2260
      4  O         36.2420 -107.4850  -18.4990 O.2   278  GLN278     -0.2867
      5  CB        38.2990 -107.2820  -21.0500 C.3   278  GLN278      0.0367
      6  CG        37.2330 -106.1560  -21.2530 C.3   278  GLN278      0.0905
      7  CD        37.3640 -105.0620  -20.1840 C.2   278  GLN278      0.2608
      8  OE1       38.4460 -104.8720  -19.6370 O.2   278  GLN278     -0.2717
      9  NE2       36.2790 -104.3560  -19.8750 N.am  278  GLN278     -0.0878
     10  N         43.9550 -107.7870  -11.5910 N.3   287  HIS287     -0.1241
     11  CA        44.3200 -106.7090  -10.6870 C.3   287  HIS287      0.1621
     12  C         44.6030 -107.2080   -9.2560 C.2   287  HIS287      0.2264
     13  O         45.5790 -106.8020   -8.6150 O.2   287  HIS287     -0.2867
     14  CB        43.2610 -105.6470  -10.6510 C.3   287  HIS287      0.0745
     15  CG        43.5700 -104.5290   -9.6840 C.ar  287  HIS287      0.0817
     16  ND1       44.6290 -103.6610   -9.8580 N.ar  287  HIS287     -0.2268
     17  CD2       42.9510 -104.1390   -8.5370 C.ar  287  HIS287      0.1154
     18  CE1       44.6670 -102.8010   -8.8540 C.ar  287  HIS287      0.1986
     19  NE2       43.6610 -103.0730   -8.0360 N.ar  287  HIS287     -0.2212
     20  N         48.1000 -108.8710   -9.5060 N.3   290  GLY290     -0.1210
     21  CA        49.0810 -107.8300   -9.7410 C.3   290  GLY290      0.1956
     22  C         49.3090 -106.9980   -8.4980 C.2   290  GLY290      0.2611
     23  O         50.4770 -106.7220   -8.1240 O.2   290  GLY290     -0.2717
     24  N         48.2300 -106.5490   -7.8520 N.am  291  HIS291     -0.1975
     25  CA        48.3860 -105.8800   -6.5660 C.3   291  HIS291      0.1656
     26  C         49.3520 -106.6840   -5.6400 C.2   291  HIS291      0.2291
     27  O         50.2420 -106.1230   -4.9740 O.2   291  HIS291     -0.2864
     28  CB        47.0160 -105.6410   -5.8820 C.3   291  HIS291      0.0771
     29  CG        47.1210 -105.3080   -4.4160 C.ar  291  HIS291      0.0820
     30  ND1       47.4420 -104.0390   -3.9520 N.ar  291  HIS291     -0.2267
     31  CD2       46.9870 -106.0850   -3.3150 C.ar  291  HIS291      0.1154
     32  CE1       47.4630 -104.0440   -2.6250 C.ar  291  HIS291      0.1986
     33  NE2       47.1980 -105.2720   -2.2120 N.ar  291  HIS291     -0.2212
     34  N         53.0150 -107.4930   -7.4510 N.3   294  GLY294     -0.1225
     35  CA        53.7240 -106.1890   -7.5850 C.3   294  GLY294      0.1811
     36  C         53.8610 -105.3970   -6.3000 C.2   294  GLY294      0.2280
     37  O         54.4040 -104.3160   -6.3140 O.2   294  GLY294     -0.2866
     38  N         55.1990 -103.8820   -2.7730 N.3   296  GLU296     -0.1245
     39  CA        56.5540 -103.4430   -2.3990 C.3   296  GLU296      0.1567
     40  C         56.7880 -103.3300   -0.8880 C.2   296  GLU296      0.2260
     41  O         57.8250 -102.8370   -0.4630 O.2   296  GLU296     -0.2867
     42  CB        56.8670 -102.1050   -3.0580 C.3   296  GLU296      0.0388
     43  CG        56.6130 -102.1600   -4.5230 C.3   296  GLU296      0.1160
     44  CD        57.2480 -101.0000   -5.2470 C.2   296  GLU296      0.3649
     45  OE1       57.0560 -100.9040   -6.4830 O.co2 296  GLU296     -0.2457
     46  OE2       57.9360 -100.1690   -4.5710 O.co2 296  GLU296     -0.2457
     47  N         60.4350 -103.4590   -9.3460 N.3   314  LEU314     -0.1231
     48  CA        59.6550 -104.5580   -9.8610 C.3   314  LEU314      0.1693
     49  C         58.2860 -104.0370  -10.3650 C.2   314  LEU314      0.2592
     50  O         57.6530 -103.1970   -9.7570 O.2   314  LEU314     -0.2718
     51  CB        59.4930 -105.6780   -8.8120 C.3   314  LEU314      0.0284
     52  CG        58.6600 -106.9400   -9.2080 C.3   314  LEU314      0.0019
     53  CD1       59.1450 -108.2330   -8.5160 C.3   314  LEU314      0.0001
     54  CD2       57.1150 -106.7920   -8.9860 C.3   314  LEU314      0.0001
     55  N         57.8500 -104.5460  -11.5070 N.am  315  VAL315     -0.1966
     56  CA        56.5190 -104.2310  -12.0340 C.3   315  VAL315      0.1727
     57  C         55.8350 -105.5810  -12.3040 C.2   315  VAL315      0.2617
     58  O         56.4190 -106.4660  -12.9250 O.2   315  VAL315     -0.2715
     59  CB        56.5610 -103.4550  -13.3510 C.3   315  VAL315      0.0290
     60  CG1       55.0830 -103.1260  -13.7730 C.3   315  VAL315      0.0023
     61  CG2       57.3390 -102.1240  -13.2220 C.3   315  VAL315      0.0023
     62  N         54.6320 -105.7580  -11.7850 N.am  316  GLY316     -0.1940
     63  CA        53.8890 -107.0330  -11.9900 C.3   316  GLY316      0.2014
     64  C         52.3930 -106.7430  -12.2550 C.2   316  GLY316      0.2639
     65  O         51.8700 -105.7030  -11.8260 O.2   316  GLY316     -0.2714
     66  N         51.7070 -107.6520  -12.9420 N.am  317  GLY317     -0.1939
     67  CA        50.2970 -107.4660  -13.1760 C.3   317  GLY317      0.2014
     68  C         49.9420 -107.8290  -14.5850 C.2   317  GLY317      0.2639
     69  O         50.7920 -108.3660  -15.3670 O.2   317  GLY317     -0.2714
     70  N         48.6920 -107.5430  -14.9280 N.am  318  GLN318     -0.1963
     71  CA        48.1700 -107.9440  -16.2070 C.3   318  GLN318      0.1733
     72  C         48.4450 -106.8300  -17.2000 C.2   318  GLN318      0.2616
     73  O         48.5370 -105.6790  -16.8370 O.2   318  GLN318     -0.2715
     74  CB        46.6590 -108.2030  -16.1130 C.3   318  GLN318      0.0408
     75  CG        45.9160 -106.9150  -15.7370 C.3   318  GLN318      0.0908
     76  CD        44.4460 -107.1470  -15.2550 C.2   318  GLN318      0.2608
     77  OE1       43.8960 -106.3540  -14.4370 O.2   318  GLN318     -0.2717
     78  NE2       43.8170 -108.1840  -15.7730 N.am  318  GLN318     -0.0878
     79  N         48.5050 -107.1850  -18.4620 N.am  319  LYS319     -0.1963
     80  CA        48.8580 -106.2470  -19.4910 C.3   319  LYS319      0.1728
     81  C         47.8900 -106.5580  -20.6480 C.2   319  LYS319      0.2616
     82  O         47.6690 -107.7150  -20.9860 O.2   319  LYS319     -0.2715
     83  CB        50.3480 -106.4720  -19.8230 C.3   319  LYS319      0.0311
     84  CG        50.9180 -105.7060  -20.9930 C.3   319  LYS319      0.0038
     85  CD        52.4090 -106.1120  -21.1430 C.3   319  LYS319      0.0206
     86  CE        52.9900 -106.1060  -22.5730 C.3   319  LYS319      0.1093
     87  NZ        54.1080 -107.1750  -22.5720 N.3   319  LYS319     -0.1314
     88  N         47.2320 -105.5420  -21.1620 N.am  320  GLU320     -0.1977
     89  CA        46.4460 -105.6710  -22.3920 C.3   320  GLU320      0.1602
     90  C         47.1580 -106.3010  -23.5610 C.2   320  GLU320      0.2287
     91  O         48.3570 -106.0630  -23.7560 O.2   320  GLU320     -0.2864
     92  CB        46.0500 -104.3000  -22.9060 C.3   320  GLU320      0.0415
     93  CG        45.3300 -103.4520  -21.9670 C.3   320  GLU320      0.1163
     94  CD        45.0670 -102.0790  -22.5970 C.2   320  GLU320      0.3649
     95  OE1       43.8740 -101.7020  -22.6060 O.co2 320  GLU320     -0.2457
     96  OE2       46.0480 -101.4280  -23.1180 O.co2 320  GLU320     -0.2457
     97  N         45.6000 -111.6920  -23.5330 N.3   326  MET326     -0.1301
     98  CA        46.2980 -110.7740  -22.6130 C.3   326  MET326      0.1256
     99  C         47.6390 -111.3880  -22.1300 C.3   326  MET326      0.2010
    100  O         47.9940 -112.5790  -22.4630 O.3   326  MET326     -0.2188
    101  CB        45.3690 -110.4710  -21.4150 C.3   326  MET326      0.0333
    102  CG        44.3660 -109.2960  -21.6580 C.3   326  MET326      0.0592
    103  SD        43.3780 -108.9060  -20.1520 S.3   326  MET326     -0.1393
    104  CE        42.7100 -107.3490  -20.6140 C.3   326  MET326      0.0692
    105  N         52.6560 -110.0200  -16.4850 N.3   329  ILE329     -0.1245
    106  CA        54.0820 -109.7550  -16.4820 C.3   329  ILE329      0.1561
    107  C         54.6430 -109.6700  -15.0790 C.2   329  ILE329      0.2260
    108  O         53.9150 -109.3560  -14.1030 O.2   329  ILE329     -0.2867
    109  CB        54.3910 -108.4980  -17.3010 C.3   329  ILE329      0.0252
    110  CG1       53.6140 -107.3060  -16.7370 C.3   329  ILE329      0.0019
    111  CG2       53.9730 -108.7950  -18.7720 C.3   329  ILE329      0.0019
    112  CD1       54.3250 -106.0010  -16.7070 C.3   329  ILE329      0.0001
    113  N         36.1400  -98.2830  -14.3180 N.3   408  GLU408     -0.1245
    114  CA        37.5090  -98.5840  -14.1130 C.3   408  GLU408      0.1567
    115  C         37.9520  -98.0460  -12.7570 C.2   408  GLU408      0.2260
    116  O         39.0990  -97.7100  -12.5330 O.2   408  GLU408     -0.2867
    117  CB        38.3280  -98.1610  -15.3630 C.3   408  GLU408      0.0388
    118  CG        38.6030  -99.3860  -16.4220 C.3   408  GLU408      0.1160
    119  CD        38.9090  -98.9240  -17.8920 C.2   408  GLU408      0.3649
    120  OE1       38.7940  -99.7420  -18.8730 O.co2 408  GLU408     -0.2457
    121  OE2       39.2620  -97.7220  -18.0530 O.co2 408  GLU408     -0.2457
    122  N         54.9890  -97.1910    0.4860 N.3   563  TYR563     -0.1241
    123  CA        54.2690  -97.8310   -0.5930 C.3   563  TYR563      0.1605
    124  C         52.7980  -98.0070   -0.1880 C.2   563  TYR563      0.2264
    125  O         51.8900  -97.6820   -0.9610 O.2   563  TYR563     -0.2867
    126  CB        54.8560  -99.2130   -0.8900 C.3   563  TYR563      0.0534
    127  CG        54.1740  -99.8130   -2.0770 C.ar  563  TYR563     -0.0201
    128  CD1       54.3430  -99.2630   -3.3880 C.ar  563  TYR563     -0.0009
    129  CD2       53.3160 -100.9300   -1.9200 C.ar  563  TYR563     -0.0009
    130  CE1       53.6930  -99.8540   -4.5170 C.ar  563  TYR563      0.0417
    131  CE2       52.7250 -101.5320   -3.0110 C.ar  563  TYR563      0.0417
    132  CZ        52.8910 -100.9980   -4.3010 C.ar  563  TYR563      0.1957
    133  OH        52.2430 -101.6580   -5.3300 O.3   563  TYR563     -0.2866
    134  N         51.0990  -94.6900   -0.4270 N.3   566  GLU566     -0.1231
    135  CA        50.7830  -94.3470   -1.7730 C.3   566  GLU566      0.1699
    136  C         49.5210  -95.1220   -2.3120 C.2   566  GLU566      0.2592
    137  O         48.7000  -94.5680   -3.0200 O.2   566  GLU566     -0.2718
    138  CB        51.9610  -94.6880   -2.6490 C.3   566  GLU566      0.0402
    139  CG        51.4650  -94.7100   -4.0450 C.3   566  GLU566      0.1161
    140  CD        52.4770  -94.2900   -5.0180 C.2   566  GLU566      0.3649
    141  OE1       52.3760  -93.0930   -5.4650 O.co2 566  GLU566     -0.2457
    142  OE2       53.3550  -95.1780   -5.3110 O.co2 566  GLU566     -0.2457
    143  N         49.4010  -96.4110   -1.9870 N.am  567  LEU567     -0.1980
    144  CA        48.1630  -97.1810   -2.3180 C.3   567  LEU567      0.1596
    145  C         46.9390  -96.4770   -1.7220 C.2   567  LEU567      0.2287
    146  O         45.9070  -96.4230   -2.3400 O.2   567  LEU567     -0.2864
    147  CB        48.2600  -98.6200   -1.8260 C.3   567  LEU567      0.0297
    148  CG        49.3230  -99.4540   -2.5890 C.3   567  LEU567      0.0022
    149  CD1       49.5150 -100.8360   -1.9180 C.3   567  LEU567      0.0001
    150  CD2       48.9400  -99.6340   -4.0780 C.3   567  LEU567      0.0001
@<TRIPOS>BOND
     1    91    90    2
     2    90    89    1
     3    97    98    1
     4    96    94   ar
     5    92    89    1
     6    92    93    1
     7    98    99    1
     8    98   101    1
     9    95    94   ar
    10    94    93    1
    11    86    87    1
    12    86    85    1
    13   100    99    1
    14    89    88    1
    15   102   101    1
    16   102   103    1
    17     6     5    1
    18     6     7    1
    19    88    81   am
    20    85    84    1
    21     5     2    1
    22    84    83    1
    23    82    81    2
    24    81    80    1
    25   104   103    1
    26     7     9   am
    27     7     8    2
    28    83    80    1
    29     1     2    1
    30     2     3    1
    31    80    79    1
    32     3     4    2
    33   120   119   ar
    34   111   109    1
    35    79    72   am
    36   121   119   ar
    37   119   118    1
    38   109   110    1
    39   109   106    1
    40    72    73    2
    41    72    71    1
    42   110   112    1
    43   105   106    1
    44   106   107    1
    45   118   117    1
    46    71    74    1
    47    71    70    1
    48    74    75    1
    49    78    76   am
    50    75    76    1
    51    69    68    2
    52   117   114    1
    53    76    77    2
    54   107   108    2
    55    70    68   am
    56    68    67    1
    57   113   114    1
    58   114   115    1
    59    60    59    1
    60    59    61    1
    61    59    56    1
    62    67    66    1
    63    66    64   am
    64    58    57    2
    65   115   116    2
    66    57    56    1
    67    57    62   am
    68    64    63    1
    69    64    65    2
    70    56    55    1
    71    63    62    1
    72    10    11    1
    73    55    49   am
    74    11    14    1
    75    11    12    1
    76    14    15    1
    77    49    48    1
    78    49    50    2
    79    48    47    1
    80    48    51    1
    81    16    15   ar
    82    16    18   ar
    83    21    20    1
    84    21    22    1
    85    15    17   ar
    86    12    13    2
    87    52    54    1
    88    52    51    1
    89    52    53    1
    90    18    19   ar
    91    17    19   ar
    92    22    23    2
    93    22    24   am
    94    24    25    1
    95    35    34    1
    96    35    36    1
    97    25    28    1
    98    25    26    1
    99    45    44   ar
   100    37    36    2
   101    28    29    1
   102    26    27    2
   103   141   140   ar
   104   133   132    1
   105   142   140   ar
   106    44    46   ar
   107    44    43    1
   108   140   139    1
   109    43    42    1
   110   130   132   ar
   111   130   128   ar
   112    29    30   ar
   113    29    31   ar
   114   132   131   ar
   115   150   148    1
   116   139   138    1
   117    30    32   ar
   118   128   127   ar
   119    31    33   ar
   120    42    39    1
   121   137   136    2
   122   131   129   ar
   123    38    39    1
   124   138   135    1
   125    32    33   ar
   126   148   149    1
   127   148   147    1
   128    39    40    1
   129   146   145    2
   130   144   143    1
   131   144   147    1
   132   144   145    1
   133   136   143   am
   134   136   135    1
   135   127   129   ar
   136   127   126    1
   137   135   134    1
   138   125   124    2
   139   126   123    1
   140    40    41    2
   141   123   124    1
   142   123   122    1
