@<TRIPOS>MOLECULE
tmp/3e51B00.pdb
 221 207 0 0 0
SMALL
GASTEIGER

@<TRIPOS>ATOM
      1  N         66.5250  -12.8780   43.9300 N.3   153  ARG153     -0.1245
      2  CA        65.5170  -12.2900   43.0540 C.3   153  ARG153      0.1563
      3  C         66.1290  -11.1200   42.2960 C.2   153  ARG153      0.2260
      4  O         67.1420  -10.5540   42.7210 O.2   153  ARG153     -0.2867
      5  CB        64.2810  -11.8520   43.8450 C.3   153  ARG153      0.0307
      6  CG        63.3210  -13.0030   44.1260 C.3   153  ARG153      0.0489
      7  CD        62.3070  -12.6750   45.2120 C.3   153  ARG153      0.2205
      8  NE        61.6770  -11.3690   45.0200 N.pl3 153  ARG153     -0.0865
      9  CZ        60.5790  -10.9680   45.6580 C.cat 153  ARG153      0.5346
     10  NH1       59.9760  -11.7750   46.5300 N.pl3 153  ARG153      0.1354
     11  NH2       60.0780   -9.7580   45.4230 N.pl3 153  ARG153      0.1354
     12  N         44.8070   -5.2740   49.0820 N.3   188  PHE188     -0.1241
     13  CA        45.6150   -4.2330   49.7210 C.3   188  PHE188      0.1605
     14  C         44.7750   -3.1570   50.4470 C.2   188  PHE188      0.2264
     15  O         45.3260   -2.2940   51.1480 O.2   188  PHE188     -0.2867
     16  CB        46.5930   -3.6080   48.7170 C.3   188  PHE188      0.0534
     17  CG        47.6840   -4.5480   48.2350 C.ar  188  PHE188     -0.0203
     18  CD1       48.5840   -5.1210   49.1300 C.ar  188  PHE188     -0.0042
     19  CD2       47.8310   -4.8230   46.8760 C.ar  188  PHE188     -0.0042
     20  CE1       49.6010   -5.9870   48.6870 C.ar  188  PHE188     -0.0003
     21  CE2       48.8470   -5.6890   46.4200 C.ar  188  PHE188     -0.0003
     22  CZ        49.7430   -6.2420   47.3440 C.ar  188  PHE188     -0.0000
     23  N         45.4720   -6.3870   58.4870 N.3   192  PRO192     -0.2116
     24  CA        45.4390   -7.8450   58.7010 C.3   192  PRO192      0.1372
     25  C         44.1370   -8.3300   59.3550 C.2   192  PRO192      0.2244
     26  O         43.6230   -9.3920   58.9960 O.2   192  PRO192     -0.2868
     27  CB        46.6500   -8.1020   59.6070 C.3   192  PRO192      0.0268
     28  CG        47.5580   -6.9150   59.3820 C.3   192  PRO192      0.0207
     29  CD        46.6250   -5.7580   59.1600 C.3   192  PRO192      0.0892
     30  N         41.5170   -8.3140   56.7050 N.3   195  ARG195     -0.1245
     31  CA        41.7280   -9.4700   55.8070 C.3   195  ARG195      0.1563
     32  C         41.1530  -10.7440   56.4170 C.2   195  ARG195      0.2260
     33  O         40.5170  -11.5400   55.7210 O.2   195  ARG195     -0.2867
     34  CB        43.2130   -9.6830   55.4780 C.3   195  ARG195      0.0307
     35  CG        43.4470  -10.7530   54.4180 C.3   195  ARG195      0.0489
     36  CD        44.9380  -11.1210   54.2960 C.3   195  ARG195      0.2205
     37  NE        45.1560  -12.2250   53.3540 N.pl3 195  ARG195     -0.0865
     38  CZ        45.3040  -12.0910   52.0300 C.cat 195  ARG195      0.5346
     39  NH1       45.2550  -10.8870   51.4350 N.pl3 195  ARG195      0.1354
     40  NH2       45.4890  -13.1720   51.2890 N.pl3 195  ARG195      0.1354
     41  N         56.0360  -12.5300   37.3890 N.3   220  ASP220     -0.1239
     42  CA        56.5280  -11.3900   36.6060 C.3   220  ASP220      0.1674
     43  C         56.9470  -11.8000   35.2030 C.2   220  ASP220      0.2266
     44  O         56.6450  -11.1080   34.2460 O.2   220  ASP220     -0.2867
     45  CB        57.6800  -10.6950   37.3180 C.3   220  ASP220      0.1410
     46  CG        57.2110   -9.7850   38.4480 C.2   220  ASP220      0.3668
     47  OD1       55.9920   -9.6980   38.7170 O.co2 220  ASP220     -0.2456
     48  OD2       58.0760   -9.1450   39.0660 O.co2 220  ASP220     -0.2456
     49  N         60.1000   -5.5600   37.9810 N.3   277  SER277     -0.1217
     50  CA        59.7430   -5.6350   39.3970 C.3   277  SER277      0.1889
     51  C         59.7970   -4.2850   40.1170 C.2   277  SER277      0.2288
     52  O         59.2140   -4.1210   41.1990 O.2   277  SER277     -0.2866
     53  CB        60.6680   -6.6100   40.1140 C.3   277  SER277      0.2089
     54  OG        62.0110   -6.1590   40.0270 O.3   277  SER277     -0.2183
     55  N         53.8650   -1.9590   39.1340 N.3   282  THR282     -0.1203
     56  CA        54.1100   -3.3970   39.3530 C.3   282  THR282      0.1994
     57  C         52.9850   -4.0660   40.1640 C.2   282  THR282      0.2618
     58  O         52.4310   -5.0820   39.7460 O.2   282  THR282     -0.2717
     59  CB        55.4780   -3.6610   40.0460 C.3   282  THR282      0.1784
     60  OG1       56.5540   -3.1540   39.2410 O.3   282  THR282     -0.2211
     61  CG2       55.6840   -5.1570   40.2520 C.3   282  THR282      0.0376
     62  N         52.6650   -3.4910   41.3230 N.am  283  SER283     -0.1951
     63  CA        51.6170   -4.0300   42.2050 C.3   283  SER283      0.1924
     64  C         50.2310   -3.9990   41.5590 C.2   283  SER283      0.2314
     65  O         49.5520   -5.0120   41.5230 O.2   283  SER283     -0.2863
     66  CB        51.5860   -3.2590   43.5230 C.3   283  SER283      0.2116
     67  OG        50.6080   -3.7780   44.4060 O.3   283  SER283     -0.2180
     68  N         50.1550   -6.2260   38.3080 N.3   286  ASN286     -0.1240
     69  CA        50.0850   -7.6610   38.6510 C.3   286  ASN286      0.1653
     70  C         48.7180   -8.0500   39.2290 C.2   286  ASN286      0.2266
     71  O         48.1770   -9.1160   38.8990 O.2   286  ASN286     -0.2867
     72  CB        51.1920   -8.0600   39.6170 C.3   286  ASN286      0.1155
     73  CG        52.5180   -8.3140   38.9250 C.2   286  ASN286      0.2627
     74  OD1       52.6150   -8.2620   37.7080 O.2   286  ASN286     -0.2716
     75  ND2       53.5420   -8.6130   39.7080 N.am  286  ASN286     -0.0877
     76  N         46.2250  -10.0770   45.8100 N.3   311  ASN311     -0.1225
     77  CA        47.2250   -9.1180   46.2170 C.3   311  ASN311      0.1785
     78  C         48.3720   -9.2640   45.2370 C.2   311  ASN311      0.2598
     79  O         49.2320  -10.1330   45.4140 O.2   311  ASN311     -0.2718
     80  CB        47.7340   -9.4170   47.6410 C.3   311  ASN311      0.1169
     81  CG        46.6730   -9.2160   48.7330 C.2   311  ASN311      0.2627
     82  OD1       45.6960   -9.9650   48.8360 O.2   311  ASN311     -0.2716
     83  ND2       46.8980   -8.2210   49.5830 N.am  311  ASN311     -0.0877
     84  N         48.3840   -8.4490   44.1820 N.am  312  GLY312     -0.1942
     85  CA        49.4380   -8.5400   43.1610 C.3   312  GLY312      0.2014
     86  C         49.4020   -9.9180   42.5140 C.2   312  GLY312      0.2639
     87  O         48.3820  -10.3240   41.9650 O.2   312  GLY312     -0.2714
     88  N         50.5070  -10.6450   42.5930 N.am  313  ASP313     -0.1957
     89  CA        50.5510  -12.0230   42.0640 C.3   313  ASP313      0.1840
     90  C         50.0040  -13.0920   43.0230 C.2   313  ASP313      0.2622
     91  O         49.9640  -14.2990   42.6790 O.2   313  ASP313     -0.2715
     92  CB        51.9830  -12.3700   41.6310 C.3   313  ASP313      0.1450
     93  CG        52.9960  -12.2930   42.7640 C.2   313  ASP313      0.3671
     94  OD1       52.6600  -11.8680   43.9090 O.co2 313  ASP313     -0.2456
     95  OD2       54.1660  -12.6560   42.4870 O.co2 313  ASP313     -0.2456
     96  N         49.5880  -12.6660   44.2180 N.am  314  ASP314     -0.1971
     97  CA        49.1120  -13.5930   45.2350 C.3   314  ASP314      0.1709
     98  C         47.5990  -13.7970   45.1530 C.2   314  ASP314      0.2293
     99  O         46.8270  -12.8370   45.2220 O.2   314  ASP314     -0.2864
    100  CB        49.5350  -13.1530   46.6450 C.3   314  ASP314      0.1436
    101  CG        49.3720  -14.2750   47.6720 C.2   314  ASP314      0.3671
    102  OD1       48.2180  -14.6810   47.9270 O.co2 314  ASP314     -0.2456
    103  OD2       50.3900  -14.7490   48.2240 O.co2 314  ASP314     -0.2456
    104  N         49.0880  -14.8020   50.8340 N.3   361  CYS361     -0.1221
    105  CA        50.0440  -13.7820   51.2580 C.3   361  CYS361      0.1808
    106  C         50.9430  -14.3280   52.3800 C.2   361  CYS361      0.2602
    107  O         51.1300  -13.6860   53.4160 O.2   361  CYS361     -0.2717
    108  CB        49.3270  -12.4950   51.6620 C.3   361  CYS361      0.0970
    109  SG        48.7340  -11.5650   50.2520 S.3   361  CYS361     -0.0800
    110  N         51.4440  -15.5500   52.1770 N.am  362  SER362     -0.1938
    111  CA        52.3680  -16.2040   53.1100 C.3   362  SER362      0.2055
    112  C         51.7960  -16.4100   54.5150 C.2   362  SER362      0.2643
    113  O         52.5530  -16.7120   55.4460 O.2   362  SER362     -0.2714
    114  CB        53.6790  -15.4080   53.2130 C.3   362  SER362      0.2130
    115  OG        54.3250  -15.3470   51.9560 O.3   362  SER362     -0.2179
    116  N         50.4800  -16.2410   54.6600 N.am  363  SER363     -0.1949
    117  CA        49.8380  -16.2010   55.9750 C.3   363  SER363      0.1924
    118  C         48.5810  -17.0590   56.0390 C.2   363  SER363      0.2314
    119  O         48.0380  -17.4680   55.0060 O.2   363  SER363     -0.2863
    120  CB        49.4510  -14.7620   56.3330 C.3   363  SER363      0.2116
    121  OG        50.4140  -13.8320   55.8800 O.3   363  SER363     -0.2180
    122  N         45.4060  -13.1530   62.1190 N.3   379  LEU379     -0.1245
    123  CA        46.3070  -13.6240   61.0700 C.3   379  LEU379      0.1561
    124  C         47.7060  -13.9220   61.5910 C.2   379  LEU379      0.2260
    125  O         48.2980  -13.1360   62.3440 O.2   379  LEU379     -0.2867
    126  CB        46.3680  -12.6270   59.9160 C.3   379  LEU379      0.0270
    127  CG        46.7190  -13.1320   58.5160 C.3   379  LEU379      0.0019
    128  CD1       45.5880  -13.9520   57.9350 C.3   379  LEU379      0.0001
    129  CD2       47.0280  -11.9570   57.6320 C.3   379  LEU379      0.0001
    130  N         51.5330  -16.4960   60.5690 N.3   381  ARG381     -0.1245
    131  CA        52.3520  -17.0840   59.5280 C.3   381  ARG381      0.1563
    132  C         53.4460  -17.9520   60.1530 C.2   381  ARG381      0.2260
    133  O         53.7000  -17.8720   61.3610 O.2   381  ARG381     -0.2867
    134  CB        52.9480  -15.9980   58.6170 C.3   381  ARG381      0.0307
    135  CG        54.0310  -15.1220   59.2360 C.3   381  ARG381      0.0489
    136  CD        54.9000  -14.5210   58.1290 C.3   381  ARG381      0.2205
    137  NE        55.8960  -15.4700   57.6250 N.pl3 381  ARG381     -0.0865
    138  CZ        56.4020  -15.4490   56.3930 C.cat 381  ARG381      0.5346
    139  NH1       56.0110  -14.5230   55.5140 N.pl3 381  ARG381      0.1354
    140  NH2       57.3090  -16.3480   56.0430 N.pl3 381  ARG381      0.1354
    141  N         62.5280   -5.2970   59.3080 N.3   402  SER402     -0.1217
    142  CA        61.4470   -6.2690   59.1960 C.3   402  SER402      0.1889
    143  C         60.8450   -6.6290   60.5430 C.2   402  SER402      0.2288
    144  O         59.6620   -6.9460   60.6100 O.2   402  SER402     -0.2866
    145  CB        61.9090   -7.5310   58.4690 C.3   402  SER402      0.2089
    146  OG        62.6550   -8.3540   59.3340 O.3   402  SER402     -0.2183
    147  N         58.0360   -4.0970   61.1030 N.3   405  GLY405     -0.1210
    148  CA        56.9260   -4.4500   60.2150 C.3   405  GLY405      0.1956
    149  C         56.1880   -5.7050   60.6790 C.2   405  GLY405      0.2611
    150  O         54.9460   -5.7440   60.6920 O.2   405  GLY405     -0.2717
    151  N         56.9460   -6.7290   61.0580 N.am  406  ASN406     -0.1974
    152  CA        56.3320   -7.9560   61.5730 C.3   406  ASN406      0.1688
    153  C         55.5760   -7.7800   62.8810 C.2   406  ASN406      0.2292
    154  O         54.4830   -8.3210   63.0280 O.2   406  ASN406     -0.2864
    155  CB        57.3350   -9.0920   61.6850 C.3   406  ASN406      0.1181
    156  CG        57.6180   -9.7350   60.3670 C.2   406  ASN406      0.2629
    157  OD1       56.7000   -9.9880   59.5670 O.2   406  ASN406     -0.2716
    158  ND2       58.8970   -9.9940   60.1070 N.am  406  ASN406     -0.0877
    159  N         52.2840   -6.0060   61.7630 N.3   409  MET409     -0.1230
    160  CA        51.3540   -6.8220   60.9980 C.3   409  MET409      0.1702
    161  C         50.8700   -8.0620   61.7620 C.2   409  MET409      0.2592
    162  O         49.7140   -8.4710   61.6080 O.2   409  MET409     -0.2718
    163  CB        51.9470   -7.1650   59.6240 C.3   409  MET409      0.0401
    164  CG        52.2120   -5.9330   58.7480 C.3   409  MET409      0.0596
    165  SD        50.7230   -5.0060   58.2710 S.3   409  MET409     -0.1393
    166  CE        50.4440   -5.6890   56.6440 C.3   409  MET409      0.0692
    167  N         51.7280   -8.6160   62.6180 N.am  410  TYR410     -0.1976
    168  CA        51.4470   -9.8810   63.3180 C.3   410  TYR410      0.1639
    169  C         51.3970   -9.7350   64.8400 C.2   410  TYR410      0.2290
    170  O         51.6150  -10.6990   65.5880 O.2   410  TYR410     -0.2864
    171  CB        52.4660  -10.9590   62.9170 C.3   410  TYR410      0.0560
    172  CG        52.3900  -11.3390   61.4590 C.ar  410  TYR410     -0.0198
    173  CD1       51.3380  -12.1270   60.9760 C.ar  410  TYR410     -0.0009
    174  CD2       53.3610  -10.9050   60.5570 C.ar  410  TYR410     -0.0009
    175  CE1       51.2600  -12.4720   59.6190 C.ar  410  TYR410      0.0417
    176  CE2       53.2960  -11.2370   59.1990 C.ar  410  TYR410      0.0417
    177  CZ        52.2480  -12.0240   58.7370 C.ar  410  TYR410      0.1957
    178  OH        52.2010  -12.3700   57.4060 O.3   410  TYR410     -0.2866
    179  N         58.6340   -1.4560   55.9420 N.3   441  GLN441     -0.1231
    180  CA        57.8440   -1.5030   54.7140 C.3   441  GLN441      0.1698
    181  C         56.5390   -2.2440   54.9220 C.2   441  GLN441      0.2592
    182  O         56.5380   -3.3590   55.4440 O.2   441  GLN441     -0.2718
    183  CB        58.6340   -2.1360   53.5670 C.3   441  GLN441      0.0381
    184  CG        59.5900   -1.1750   52.9110 C.3   441  GLN441      0.0905
    185  CD        60.0410   -1.6130   51.5260 C.2   441  GLN441      0.2608
    186  OE1       60.2940   -0.7740   50.6660 O.2   441  GLN441     -0.2717
    187  NE2       60.1520   -2.9220   51.3080 N.am  441  GLN441     -0.0878
    188  N         55.4390   -1.6000   54.5390 N.am  442  ILE442     -0.1966
    189  CA        54.1110   -2.2000   54.6090 C.3   442  ILE442      0.1727
    190  C         53.4360   -2.1070   53.2470 C.2   442  ILE442      0.2616
    191  O         53.2510   -1.0070   52.6990 O.2   442  ILE442     -0.2715
    192  CB        53.2210   -1.5750   55.6990 C.3   442  ILE442      0.0290
    193  CG1       53.8700   -1.7240   57.0850 C.3   442  ILE442      0.0022
    194  CG2       51.8310   -2.2230   55.6920 C.3   442  ILE442      0.0023
    195  CD1       53.1770   -0.9060   58.1830 C.3   442  ILE442      0.0001
    196  N         53.0720   -3.2750   52.7120 N.am  443  TYR443     -0.1960
    197  CA        52.5180   -3.3990   51.3560 C.3   443  TYR443      0.1771
    198  C         53.3980   -2.6620   50.3400 C.2   443  TYR443      0.2620
    199  O         52.8890   -1.9910   49.4230 O.2   443  TYR443     -0.2715
    200  CB        51.0710   -2.8870   51.2850 C.3   443  TYR443      0.0574
    201  CG        50.0370   -3.7450   51.9730 C.ar  443  TYR443     -0.0198
    202  CD1       50.2990   -5.0900   52.3000 C.ar  443  TYR443     -0.0009
    203  CD2       48.7670   -3.2360   52.2440 C.ar  443  TYR443     -0.0009
    204  CE1       49.3420   -5.8710   52.9040 C.ar  443  TYR443      0.0417
    205  CE2       47.7880   -4.0230   52.8540 C.ar  443  TYR443      0.0417
    206  CZ        48.0890   -5.3400   53.1880 C.ar  443  TYR443      0.1957
    207  OH        47.1340   -6.1260   53.7940 O.3   443  TYR443     -0.2866
    208  N         54.7150   -2.7660   50.5400 N.am  444  GLY444     -0.1954
    209  CA        55.7040   -2.2850   49.5840 C.3   444  GLY444      0.1869
    210  C         56.1310   -0.8440   49.7830 C.2   444  GLY444      0.2309
    211  O         57.1520   -0.4280   49.2360 O.2   444  GLY444     -0.2863
    212  N         48.8200   -1.4460   47.3680 N.3   549  GLY549     -0.1225
    213  CA        50.1800   -1.9890   47.3790 C.3   549  GLY549      0.1811
    214  C         51.0860   -1.2710   46.3970 C.2   549  GLY549      0.2280
    215  O         50.6270   -0.7930   45.3630 O.2   549  GLY549     -0.2866
    216  N         54.7030   -2.4620   45.9760 N.3   551  SER551     -0.1217
    217  CA        55.9380   -3.2230   45.8580 C.3   551  SER551      0.1889
    218  C         56.7200   -2.7660   44.6180 C.2   551  SER551      0.2288
    219  O         56.1770   -2.7520   43.5060 O.2   551  SER551     -0.2866
    220  CB        55.6270   -4.7320   45.7910 C.3   551  SER551      0.2089
    221  OG        56.7970   -5.4680   45.4950 O.3   551  SER551     -0.2183
@<TRIPOS>BOND
     1    44    43    2
     2    43    42    1
     3    42    45    1
     4    42    41    1
     5    45    46    1
     6    74    73    2
     7    49    50    1
     8    68    69    1
     9    46    47   ar
    10    46    48   ar
    11    69    70    1
    12    69    72    1
    13    71    70    2
    14    73    72    1
    15    73    75   am
    16    55    56    1
    17    60    59    1
    18    56    59    1
    19    56    57    1
    20    50    53    1
    21    50    51    1
    22    58    57    2
    23    54    53    1
    24    59    61    1
    25    51    52    2
    26    57    62   am
    27    62    63    1
    28    65    64    2
    29    64    63    1
    30    92    89    1
    31    92    93    1
    32    87    86    2
    33    89    88    1
    34    89    90    1
    35    63    66    1
    36     3     4    2
    37     3     2    1
    38    95    93   ar
    39    86    88   am
    40    86    85    1
    41    91    90    2
    42    93    94   ar
    43    90    96   am
    44     2     5    1
    45     2     1    1
    46    85    84    1
    47   219   218    2
    48    66    67    1
    49     5     6    1
    50     6     7    1
    51    84    78   am
    52    96    97    1
    53   218   217    1
    54     8     7    1
    55     8     9    2
    56    98    99    2
    57    98    97    1
    58    97   100    1
    59    78    79    2
    60    78    77    1
    61   215   214    2
    62    11     9    1
    63   221   220    1
    64     9    10    1
    65   220   217    1
    66    76    77    1
    67   217   216    1
    68    77    80    1
    69   214   213    1
    70    21    19   ar
    71    21    22   ar
    72   100   101    1
    73    19    17   ar
    74    22    20   ar
    75   212   213    1
    76    80    81    1
    77   101   102   ar
    78   101   103   ar
    79    17    16    1
    80    17    18   ar
    81    20    18   ar
    82    16    13    1
    83    81    82    2
    84    81    83   am
    85    12    13    1
    86   211   210    2
    87   199   198    2
    88   209   210    1
    89   209   208    1
    90    13    14    1
    91   109   108    1
    92   198   208   am
    93   198   197    1
    94    14    15    2
    95   186   185    2
    96   104   105    1
    97   105   108    1
    98   105   106    1
    99   200   197    1
   100   200   201    1
   101    40    38    1
   102   187   185   am
   103   197   196    1
   104    39    38    1
   105   185   184    1
   106   115   114    1
   107   201   203   ar
   108   201   202   ar
   109    38    37    2
   110   110   106   am
   111   110   111    1
   112   203   205   ar
   113   202   204   ar
   114   106   107    2
   115   191   190    2
   116   196   190   am
   117   205   206   ar
   118   204   206   ar
   119   184   183    1
   120   111   114    1
   121   111   112    1
   122   206   207    1
   123   190   189    1
   124    37    36    1
   125   183   180    1
   126    36    35    1
   127    35    34    1
   128   112   116   am
   129   112   113    2
   130   188   189    1
   131   188   181   am
   132   189   192    1
   133   116   117    1
   134   180   181    1
   135   180   179    1
   136   181   182    2
   137   119   118    2
   138    34    31    1
   139   139   138    1
   140   194   192    1
   141   192   193    1
   142    33    32    2
   143    31    32    1
   144    31    30    1
   145   121   120    1
   146   117   118    1
   147   117   120    1
   148   140   138    1
   149   138   137    2
   150   166   165    1
   151   193   195    1
   152   178   177    1
   153   137   136    1
   154   129   127    1
   155   128   127    1
   156   136   135    1
   157   165   164    1
   158   145   142    1
   159   145   146    1
   160    23    24    1
   161    23    29    1
   162   127   126    1
   163   134   135    1
   164   134   131    1
   165    24    25    1
   166    24    27    1
   167   177   176   ar
   168   177   175   ar
   169   164   163    1
   170    26    25    2
   171    29    28    1
   172   142   141    1
   173   142   143    1
   174   176   174   ar
   175    28    27    1
   176   131   132    1
   177   131   130    1
   178   157   156    2
   179   175   173   ar
   180   163   160    1
   181   126   123    1
   182   158   156   am
   183   132   133    2
   184   148   149    1
   185   148   147    1
   186   156   155    1
   187   143   144    2
   188   174   172   ar
   189   149   150    2
   190   149   151   am
   191   173   172   ar
   192   160   161    1
   193   160   159    1
   194   151   152    1
   195   123   124    1
   196   123   122    1
   197   172   171    1
   198   152   155    1
   199   152   153    1
   200   124   125    2
   201   162   161    2
   202   161   167   am
   203   167   168    1
   204   153   154    2
   205   171   168    1
   206   168   169    1
   207   169   170    2
