@<TRIPOS>MOLECULE
tmp/3e59B00.pdb
 140 140 0 0 0
SMALL
GASTEIGER

@<TRIPOS>ATOM
      1  N          1.1010  -20.4020  -27.1490 N.3    15  ARG15      -0.1245
      2  CA         0.1960  -21.1340  -26.2950 C.3    15  ARG15       0.1563
      3  C          0.9990  -22.1120  -25.4310 C.2    15  ARG15       0.2260
      4  O          1.6130  -23.0490  -25.9490 O.2    15  ARG15      -0.2867
      5  CB        -0.8380  -21.8660  -27.1410 C.3    15  ARG15       0.0307
      6  CG        -1.9880  -22.3610  -26.3370 C.3    15  ARG15       0.0489
      7  CD        -2.9800  -23.0960  -27.1860 C.3    15  ARG15       0.2205
      8  NE        -3.9290  -22.2060  -27.8320 N.pl3  15  ARG15      -0.0865
      9  CZ        -5.0210  -21.7020  -27.2630 C.cat  15  ARG15       0.5346
     10  NH1       -5.3190  -21.9580  -25.9940 N.pl3  15  ARG15       0.1354
     11  NH2       -5.8140  -20.9250  -27.9740 N.pl3  15  ARG15       0.1354
     12  N        -10.1750  -26.1670  -41.1020 N.3    53  PRO53      -0.2116
     13  CA       -10.5700  -27.2910  -41.9630 C.3    53  PRO53       0.1372
     14  C        -11.9670  -27.1110  -42.5390 C.2    53  PRO53       0.2244
     15  O        -12.2070  -27.4090  -43.7100 O.2    53  PRO53      -0.2868
     16  CB       -10.5500  -28.4940  -41.0020 C.3    53  PRO53       0.0268
     17  CG       -10.7980  -27.9180  -39.6370 C.3    53  PRO53       0.0207
     18  CD       -10.1150  -26.5650  -39.6750 C.3    53  PRO53       0.0892
     19  N        -10.0710  -35.8740  -43.3740 N.3   104  PHE104     -0.1241
     20  CA       -10.9100  -36.7820  -42.6170 C.3   104  PHE104      0.1605
     21  C        -11.9810  -37.5820  -43.3630 C.2   104  PHE104      0.2264
     22  O        -12.1140  -38.7510  -43.1790 O.2   104  PHE104     -0.2867
     23  CB       -11.4700  -36.0210  -41.4550 C.3   104  PHE104      0.0534
     24  CG       -10.4160  -35.4050  -40.6260 C.ar  104  PHE104     -0.0203
     25  CD1       -9.4990  -36.1710  -39.9960 C.ar  104  PHE104     -0.0042
     26  CD2      -10.3100  -34.0680  -40.5010 C.ar  104  PHE104     -0.0042
     27  CE1       -8.5390  -35.6070  -39.2580 C.ar  104  PHE104     -0.0003
     28  CE2       -9.3480  -33.5290  -39.7530 C.ar  104  PHE104     -0.0003
     29  CZ        -8.4680  -34.2860  -39.1470 C.ar  104  PHE104     -0.0000
     30  N        -15.2610  -36.9330  -39.2590 N.3   108  VAL108     -0.1245
     31  CA       -15.8090  -35.8250  -38.4740 C.3   108  VAL108      0.1561
     32  C        -17.2040  -35.3980  -38.9610 C.2   108  VAL108      0.2260
     33  O        -17.7560  -34.4060  -38.4770 O.2   108  VAL108     -0.2867
     34  CB       -14.8140  -34.6090  -38.3440 C.3   108  VAL108      0.0252
     35  CG1      -13.4890  -35.0450  -37.6950 C.3   108  VAL108      0.0019
     36  CG2      -14.5640  -33.9330  -39.6900 C.3   108  VAL108      0.0019
     37  N         -9.5130  -36.2340  -28.1220 N.3   187  ILE187     -0.1245
     38  CA       -10.1480  -36.3800  -29.4430 C.3   187  ILE187      0.1561
     39  C        -11.4630  -37.1510  -29.3620 C.2   187  ILE187      0.2260
     40  O        -12.4580  -36.7720  -29.9850 O.2   187  ILE187     -0.2867
     41  CB        -9.1510  -36.9800  -30.4740 C.3   187  ILE187      0.0252
     42  CG1       -8.0690  -35.9280  -30.7480 C.3   187  ILE187      0.0019
     43  CG2       -9.8580  -37.3930  -31.7780 C.3   187  ILE187      0.0019
     44  CD1       -6.8140  -36.4560  -31.3420 C.3   187  ILE187      0.0001
     45  N        -13.8950  -34.6040  -27.9190 N.3   190  PHE190     -0.1241
     46  CA       -14.2800  -33.6650  -28.9770 C.3   190  PHE190      0.1605
     47  C        -15.2660  -34.2440  -30.0060 C.2   190  PHE190      0.2264
     48  O        -16.1970  -33.5610  -30.4290 O.2   190  PHE190     -0.2867
     49  CB       -13.0560  -33.1100  -29.7190 C.3   190  PHE190      0.0534
     50  CG       -13.4160  -32.4340  -31.0160 C.ar  190  PHE190     -0.0203
     51  CD1      -13.3550  -33.1370  -32.2230 C.ar  190  PHE190     -0.0042
     52  CD2      -13.8880  -31.1240  -31.0200 C.ar  190  PHE190     -0.0042
     53  CE1      -13.7320  -32.5420  -33.4120 C.ar  190  PHE190     -0.0003
     54  CE2      -14.2620  -30.5110  -32.2100 C.ar  190  PHE190     -0.0003
     55  CZ       -14.1760  -31.2260  -33.4140 C.ar  190  PHE190     -0.0000
     56  N         -8.9700  -40.3200  -36.8100 N.3   218  VAL218     -0.1245
     57  CA        -8.7590  -38.8620  -36.8360 C.3   218  VAL218      0.1561
     58  C         -7.2950  -38.5540  -36.5030 C.2   218  VAL218      0.2260
     59  O         -6.6370  -37.7850  -37.2140 O.2   218  VAL218     -0.2867
     60  CB        -9.7670  -38.0920  -35.8980 C.3   218  VAL218      0.0252
     61  CG1       -9.3450  -36.6370  -35.6490 C.3   218  VAL218      0.0019
     62  CG2      -11.1650  -38.1070  -36.4910 C.3   218  VAL218      0.0019
     63  N         -2.1870  -25.1410  -33.4190 N.3   241  ILE241     -0.1231
     64  CA        -3.2490  -24.5730  -32.5890 C.3   241  ILE241      0.1692
     65  C         -3.1300  -25.0740  -31.1380 C.2   241  ILE241      0.2592
     66  O         -3.7270  -24.5020  -30.2260 O.2   241  ILE241     -0.2718
     67  CB        -4.6730  -24.8420  -33.1800 C.3   241  ILE241      0.0266
     68  CG1       -5.0010  -26.3470  -33.1760 C.3   241  ILE241      0.0019
     69  CG2       -4.8110  -24.1950  -34.5980 C.3   241  ILE241      0.0020
     70  CD1       -6.4450  -26.6690  -33.4990 C.3   241  ILE241      0.0001
     71  N         -2.3390  -26.1330  -30.9500 N.am  242  HIS242     -0.1962
     72  CA        -2.2080  -26.8140  -29.6630 C.3   242  HIS242      0.1772
     73  C         -0.9260  -26.4630  -28.9370 C.2   242  HIS242      0.2462
     74  O          0.0910  -26.1930  -29.5830 O.2   242  HIS242     -0.2730
     75  CB        -2.2690  -28.3400  -29.8540 C.3   242  HIS242      0.0785
     76  CG        -3.5510  -28.8120  -30.4580 C.ar  242  HIS242      0.0821
     77  ND1       -3.6350  -29.2900  -31.7490 N.ar  242  HIS242     -0.2267
     78  CD2       -4.8070  -28.8530  -29.9560 C.ar  242  HIS242      0.1154
     79  CE1       -4.8870  -29.6250  -32.0080 C.ar  242  HIS242      0.1986
     80  NE2       -5.6180  -29.3670  -30.9380 N.ar  242  HIS242     -0.2212
     81  N         -0.9660  -26.4810  -27.5880 N.am  243  PRO243     -0.2727
     82  CA         0.2670  -26.3650  -26.8100 C.3   243  PRO243      0.1402
     83  C          1.2420  -27.4450  -27.2430 C.2   243  PRO243      0.2269
     84  O          0.8190  -28.5420  -27.6060 O.2   243  PRO243     -0.2865
     85  CB        -0.1980  -26.6160  -25.3630 C.3   243  PRO243      0.0296
     86  CG        -1.6270  -26.2080  -25.3580 C.3   243  PRO243      0.0237
     87  CD        -2.1560  -26.5950  -26.7170 C.3   243  PRO243      0.0939
     88  N        -10.3660  -20.4730  -26.3200 N.3   262  TRP262     -0.1227
     89  CA       -10.3490  -21.8510  -25.8150 C.3   262  TRP262      0.1737
     90  C        -11.0630  -22.8230  -26.7350 C.2   262  TRP262      0.2595
     91  O        -10.9400  -24.0340  -26.6040 O.2   262  TRP262     -0.2718
     92  CB       -10.8920  -21.8930  -24.3850 C.3   262  TRP262      0.0564
     93  CG       -10.0950  -20.9630  -23.5480 C.ar  262  TRP262      0.0003
     94  CD1      -10.4820  -19.7390  -23.0760 C.ar  262  TRP262      0.0946
     95  CD2       -8.7280  -21.1360  -23.1530 C.ar  262  TRP262      0.0152
     96  NE1       -9.4440  -19.1520  -22.3810 N.ar  262  TRP262     -0.2442
     97  CE2       -8.3580  -19.9890  -22.4140 C.ar  262  TRP262      0.0810
     98  CE3       -7.7850  -22.1600  -23.3370 C.ar  262  TRP262      0.0012
     99  CZ2       -7.0850  -19.8370  -21.8550 C.ar  262  TRP262      0.0191
    100  CZ3       -6.5160  -22.0060  -22.7820 C.ar  262  TRP262      0.0001
    101  CH2       -6.1800  -20.8520  -22.0480 C.ar  262  TRP262      0.0015
    102  N        -11.8250  -22.2800  -27.6610 N.am  263  LEU263     -0.1966
    103  CA       -12.2460  -23.0330  -28.8180 C.3   263  LEU263      0.1728
    104  C        -11.6590  -22.3400  -30.0470 C.2   263  LEU263      0.2616
    105  O        -11.1770  -21.1990  -29.9710 O.2   263  LEU263     -0.2715
    106  CB       -13.7740  -23.1550  -28.9040 C.3   263  LEU263      0.0311
    107  CG       -14.7060  -21.9560  -28.7120 C.3   263  LEU263      0.0022
    108  CD1      -16.0630  -22.2980  -29.2900 C.3   263  LEU263      0.0001
    109  CD2      -14.8580  -21.5710  -27.2460 C.3   263  LEU263      0.0001
    110  N        -11.6940  -23.0400  -31.1660 N.am  264  THR264     -0.1951
    111  CA       -11.1640  -22.5290  -32.4040 C.3   264  THR264      0.1897
    112  C        -12.2200  -21.6770  -33.1220 C.2   264  THR264      0.2313
    113  O        -13.4340  -21.8770  -32.9200 O.2   264  THR264     -0.2863
    114  CB       -10.7590  -23.6890  -33.3270 C.3   264  THR264      0.1794
    115  OG1      -11.9350  -24.3100  -33.8400 O.3   264  THR264     -0.2208
    116  CG2       -9.9100  -24.7400  -32.5790 C.3   264  THR264      0.0378
    117  N        -13.3670  -22.0600  -35.9950 N.3   266  TRP266     -0.1227
    118  CA       -14.2580  -22.9100  -36.8010 C.3   266  TRP266      0.1737
    119  C        -15.1640  -23.8470  -35.9710 C.2   266  TRP266      0.2595
    120  O        -16.0140  -24.5520  -36.5240 O.2   266  TRP266     -0.2718
    121  CB       -13.4650  -23.6740  -37.8840 C.3   266  TRP266      0.0564
    122  CG       -12.2820  -24.4700  -37.3580 C.ar  266  TRP266      0.0003
    123  CD1      -12.2720  -25.7890  -37.0150 C.ar  266  TRP266      0.0946
    124  CD2      -10.9440  -23.9820  -37.1160 C.ar  266  TRP266      0.0152
    125  NE1      -11.0170  -26.1580  -36.5620 N.ar  266  TRP266     -0.2442
    126  CE2      -10.1850  -25.0710  -36.6150 C.ar  266  TRP266      0.0810
    127  CE3      -10.3170  -22.7360  -37.2760 C.ar  266  TRP266      0.0012
    128  CZ2       -8.8300  -24.9490  -36.2730 C.ar  266  TRP266      0.0191
    129  CZ3       -8.9730  -22.6090  -36.9320 C.ar  266  TRP266      0.0001
    130  CH2       -8.2460  -23.7110  -36.4220 C.ar  266  TRP266      0.0015
    131  N        -14.9880  -23.8420  -34.6480 N.am  267  HIS267     -0.1975
    132  CA       -15.8350  -24.6430  -33.7440 C.3   267  HIS267      0.1656
    133  C        -16.7920  -23.8010  -32.9020 C.2   267  HIS267      0.2291
    134  O        -17.4180  -24.3070  -31.9780 O.2   267  HIS267     -0.2864
    135  CB       -14.9740  -25.5100  -32.8110 C.3   267  HIS267      0.0771
    136  CG       -14.2620  -26.6350  -33.5010 C.ar  267  HIS267      0.0820
    137  ND1      -13.0100  -27.0650  -33.1190 N.ar  267  HIS267     -0.2267
    138  CD2      -14.6220  -27.4120  -34.5510 C.ar  267  HIS267      0.1154
    139  CE1      -12.6360  -28.0690  -33.8930 C.ar  267  HIS267      0.1986
    140  NE2      -13.5920  -28.2930  -34.7760 N.ar  267  HIS267     -0.2212
@<TRIPOS>BOND
     1    15    14    2
     2    19    20    1
     3    21    22    2
     4    21    20    1
     5    20    23    1
     6    14    13    1
     7    13    12    1
     8    13    16    1
     9    23    24    1
    10    12    18    1
    11    16    17    1
    12    24    26   ar
    13    24    25   ar
    14    26    28   ar
    15    25    27   ar
    16    28    29   ar
    17    36    34    1
    18    18    17    1
    19    30    31    1
    20    27    29   ar
    21    32    33    2
    22    32    31    1
    23    31    34    1
    24    34    35    1
    25   121   122    1
    26   121   118    1
    27   122   124   ar
    28   122   123   ar
    29   127   124   ar
    30   127   129   ar
    31    59    58    2
    32   124   126   ar
    33   123   125   ar
    34   129   130   ar
    35    57    56    1
    36    57    58    1
    37    57    60    1
    38   118   117    1
    39   118   119    1
    40   126   125   ar
    41   126   128   ar
    42   120   119    2
    43    62    60    1
    44   130   128   ar
    45   119   131   am
    46    60    61    1
    47   140   138   ar
    48   140   139   ar
    49   131   132    1
    50    69    67    1
    51   138   136   ar
    52   139   137   ar
    53   115   114    1
    54   132   133    1
    55   132   135    1
    56   136   137   ar
    57   136   135    1
    58    70    68    1
    59    63    64    1
    60    55    53   ar
    61    55    54   ar
    62    53    51   ar
    63   114   116    1
    64   114   111    1
    65    67    68    1
    66    67    64    1
    67   112   113    2
    68   112   111    1
    69   133   134    2
    70    64    65    1
    71   111   110    1
    72    51    50   ar
    73    54    52   ar
    74    79    77   ar
    75    79    80   ar
    76    43    41    1
    77    77    76   ar
    78    44    42    1
    79   110   104   am
    80    65    71   am
    81    65    66    2
    82    52    50   ar
    83    50    49    1
    84    71    72    1
    85    80    78   ar
    86    42    41    1
    87    41    38    1
    88    76    78   ar
    89    76    75    1
    90    48    47    2
    91   104   105    2
    92   104   103    1
    93    47    46    1
    94    40    39    2
    95    75    72    1
    96    49    46    1
    97    72    73    1
    98    74    73    2
    99    38    39    1
   100    38    37    1
   101   108   107    1
   102    46    45    1
   103    73    81   am
   104   106   103    1
   105   106   107    1
   106   103   102    1
   107   107   109    1
   108    11     9    1
   109     8     9    2
   110     8     7    1
   111   102    90   am
   112    84    83    2
   113    81    82    1
   114    81    87    1
   115     9    10    1
   116    83    82    1
   117     7     6    1
   118     1     2    1
   119     5     6    1
   120     5     2    1
   121    82    85    1
   122    90    91    2
   123    90    89    1
   124    87    86    1
   125    88    89    1
   126     2     3    1
   127     4     3    2
   128    89    92    1
   129    85    86    1
   130    92    93    1
   131    93    95   ar
   132    93    94   ar
   133    98    95   ar
   134    98   100   ar
   135    95    97   ar
   136    94    96   ar
   137   100   101   ar
   138    97    96   ar
   139    97    99   ar
   140   101    99   ar
