@<TRIPOS>MOLECULE
tmp/3e59B01.pdb
 96 93 0 0 0
SMALL
GASTEIGER

@<TRIPOS>ATOM
      1  N         -6.8150  -29.2050  -42.9490 N.3   100  ASP100     -0.1239
      2  CA        -7.0330  -30.6440  -42.8400 C.3   100  ASP100      0.1674
      3  C         -8.4900  -31.0730  -43.0210 C.2   100  ASP100      0.2266
      4  O         -8.8650  -32.1700  -42.6110 O.2   100  ASP100     -0.2867
      5  CB        -6.4650  -31.2120  -41.5220 C.3   100  ASP100      0.1410
      6  CG        -6.8590  -30.4000  -40.2810 C.2   100  ASP100      0.3668
      7  OD1       -7.6010  -29.4000  -40.3620 O.co2 100  ASP100     -0.2456
      8  OD2       -6.3830  -30.7610  -39.1880 O.co2 100  ASP100     -0.2456
      9  N        -10.0710  -35.8740  -43.3740 N.3   104  PHE104     -0.1241
     10  CA       -10.9100  -36.7820  -42.6170 C.3   104  PHE104      0.1605
     11  C        -11.9810  -37.5820  -43.3630 C.2   104  PHE104      0.2264
     12  O        -12.1140  -38.7510  -43.1790 O.2   104  PHE104     -0.2867
     13  CB       -11.4700  -36.0210  -41.4550 C.3   104  PHE104      0.0534
     14  CG       -10.4160  -35.4050  -40.6260 C.ar  104  PHE104     -0.0203
     15  CD1       -9.4990  -36.1710  -39.9960 C.ar  104  PHE104     -0.0042
     16  CD2      -10.3100  -34.0680  -40.5010 C.ar  104  PHE104     -0.0042
     17  CE1       -8.5390  -35.6070  -39.2580 C.ar  104  PHE104     -0.0003
     18  CE2       -9.3480  -33.5290  -39.7530 C.ar  104  PHE104     -0.0003
     19  CZ        -8.4680  -34.2860  -39.1470 C.ar  104  PHE104     -0.0000
     20  N         -4.1260  -37.6110  -25.5280 N.3   183  LEU183     -0.1245
     21  CA        -4.5210  -37.2640  -26.8930 C.3   183  LEU183      0.1561
     22  C         -5.7600  -38.0400  -27.3430 C.2   183  LEU183      0.2260
     23  O         -6.7040  -37.4570  -27.8740 O.2   183  LEU183     -0.2867
     24  CB        -3.3630  -37.4810  -27.8830 C.3   183  LEU183      0.0270
     25  CG        -3.6740  -37.2200  -29.3640 C.3   183  LEU183      0.0019
     26  CD1       -4.0200  -35.7600  -29.5850 C.3   183  LEU183      0.0001
     27  CD2       -2.5190  -37.6110  -30.2760 C.3   183  LEU183      0.0001
     28  N         -8.8270  -36.7040  -25.4590 N.3   186  ALA186     -0.1231
     29  CA        -9.2060  -35.3550  -25.8810 C.3   186  ALA186      0.1694
     30  C         -9.9590  -35.3770  -27.2070 C.2   186  ALA186      0.2591
     31  O        -10.9280  -34.6430  -27.3850 O.2   186  ALA186     -0.2718
     32  CB        -7.9810  -34.4470  -25.9760 C.3   186  ALA186      0.0304
     33  N         -9.5130  -36.2340  -28.1220 N.am  187  ILE187     -0.1980
     34  CA       -10.1480  -36.3800  -29.4430 C.3   187  ILE187      0.1595
     35  C        -11.4630  -37.1510  -29.3620 C.2   187  ILE187      0.2287
     36  O        -12.4580  -36.7720  -29.9850 O.2   187  ILE187     -0.2864
     37  CB        -9.1510  -36.9800  -30.4740 C.3   187  ILE187      0.0276
     38  CG1       -8.0690  -35.9280  -30.7480 C.3   187  ILE187      0.0022
     39  CG2       -9.8580  -37.3930  -31.7780 C.3   187  ILE187      0.0022
     40  CD1       -6.8140  -36.4560  -31.3420 C.3   187  ILE187      0.0001
     41  N        -13.8950  -34.6040  -27.9190 N.3   190  PHE190     -0.1241
     42  CA       -14.2800  -33.6650  -28.9770 C.3   190  PHE190      0.1605
     43  C        -15.2660  -34.2440  -30.0060 C.2   190  PHE190      0.2264
     44  O        -16.1970  -33.5610  -30.4290 O.2   190  PHE190     -0.2867
     45  CB       -13.0560  -33.1100  -29.7190 C.3   190  PHE190      0.0534
     46  CG       -13.4160  -32.4340  -31.0160 C.ar  190  PHE190     -0.0203
     47  CD1      -13.3550  -33.1370  -32.2230 C.ar  190  PHE190     -0.0042
     48  CD2      -13.8880  -31.1240  -31.0200 C.ar  190  PHE190     -0.0042
     49  CE1      -13.7320  -32.5420  -33.4120 C.ar  190  PHE190     -0.0003
     50  CE2      -14.2620  -30.5110  -32.2100 C.ar  190  PHE190     -0.0003
     51  CZ       -14.1760  -31.2260  -33.4140 C.ar  190  PHE190     -0.0000
     52  N         -8.9700  -40.3200  -36.8100 N.3   218  VAL218     -0.1231
     53  CA        -8.7590  -38.8620  -36.8360 C.3   218  VAL218      0.1692
     54  C         -7.2950  -38.5540  -36.5030 C.2   218  VAL218      0.2591
     55  O         -6.6370  -37.7850  -37.2140 O.2   218  VAL218     -0.2718
     56  CB        -9.7670  -38.0920  -35.8980 C.3   218  VAL218      0.0266
     57  CG1       -9.3450  -36.6370  -35.6490 C.3   218  VAL218      0.0020
     58  CG2      -11.1650  -38.1070  -36.4910 C.3   218  VAL218      0.0020
     59  N         -6.7920  -39.1860  -35.4440 N.am  219  ILE219     -0.1980
     60  CA        -5.3900  -39.0830  -35.0440 C.3   219  ILE219      0.1595
     61  C         -4.4610  -39.6090  -36.1450 C.2   219  ILE219      0.2287
     62  O         -3.4800  -38.9550  -36.4920 O.2   219  ILE219     -0.2864
     63  CB        -5.1440  -39.8130  -33.7010 C.3   219  ILE219      0.0276
     64  CG1       -5.9140  -39.1090  -32.5700 C.3   219  ILE219      0.0022
     65  CG2       -3.6790  -39.8650  -33.3780 C.3   219  ILE219      0.0022
     66  CD1       -6.1200  -39.9630  -31.3110 C.3   219  ILE219      0.0001
     67  N         -4.6040  -37.0260  -39.0490 N.3   222  SER222     -0.1202
     68  CA        -3.9460  -35.8140  -38.5840 C.3   222  SER222      0.2020
     69  C         -2.4090  -35.9750  -38.6010 C.2   222  SER222      0.2618
     70  O         -1.7040  -35.1360  -39.1680 O.2   222  SER222     -0.2717
     71  CB        -4.4820  -35.4120  -37.2040 C.3   222  SER222      0.2103
     72  OG        -3.7340  -34.3430  -36.6440 O.3   222  SER222     -0.2182
     73  N         -1.9010  -37.0620  -38.0040 N.am  223  TRP223     -0.1975
     74  CA        -0.4700  -37.3630  -38.0230 C.3   223  TRP223      0.1640
     75  C          0.0960  -37.5370  -39.4420 C.2   223  TRP223      0.2290
     76  O          1.2090  -37.0960  -39.7280 O.2   223  TRP223     -0.2864
     77  CB        -0.1580  -38.6310  -37.2150 C.3   223  TRP223      0.0576
     78  CG        -0.3030  -38.4960  -35.7230 C.ar  223  TRP223      0.0006
     79  CD1       -0.5370  -37.3510  -35.0060 C.ar  223  TRP223      0.0946
     80  CD2       -0.1860  -39.5550  -34.7640 C.ar  223  TRP223      0.0152
     81  NE1       -0.5890  -37.6370  -33.6630 N.ar  223  TRP223     -0.2442
     82  CE2       -0.3690  -38.9810  -33.4850 C.ar  223  TRP223      0.0810
     83  CE3        0.0570  -40.9300  -34.8630 C.ar  223  TRP223      0.0012
     84  CZ2       -0.3230  -39.7410  -32.3110 C.ar  223  TRP223      0.0191
     85  CZ3        0.1090  -41.6900  -33.6910 C.ar  223  TRP223      0.0001
     86  CH2       -0.0890  -41.0920  -32.4340 C.ar  223  TRP223      0.0015
     87  N         -2.3390  -26.1330  -30.9500 N.3   242  HIS242     -0.1241
     88  CA        -2.2080  -26.8140  -29.6630 C.3   242  HIS242      0.1621
     89  C         -0.9260  -26.4630  -28.9370 C.2   242  HIS242      0.2264
     90  O          0.0910  -26.1930  -29.5830 O.2   242  HIS242     -0.2867
     91  CB        -2.2690  -28.3400  -29.8540 C.3   242  HIS242      0.0745
     92  CG        -3.5510  -28.8120  -30.4580 C.ar  242  HIS242      0.0817
     93  ND1       -3.6350  -29.2900  -31.7490 N.ar  242  HIS242     -0.2268
     94  CD2       -4.8070  -28.8530  -29.9560 C.ar  242  HIS242      0.1154
     95  CE1       -4.8870  -29.6250  -32.0080 C.ar  242  HIS242      0.1986
     96  NE2       -5.6180  -29.3670  -30.9380 N.ar  242  HIS242     -0.2212
@<TRIPOS>BOND
     1     9    10    1
     2    11    12    2
     3    11    10    1
     4     3     2    1
     5     3     4    2
     6     1     2    1
     7     2     5    1
     8    10    13    1
     9     5     6    1
    10    13    14    1
    11    14    16   ar
    12    14    15   ar
    13    16    18   ar
    14     7     6   ar
    15     6     8   ar
    16    15    17   ar
    17    18    19   ar
    18    76    75    2
    19    75    74    1
    20    17    19   ar
    21    70    69    2
    22    67    68    1
    23    69    68    1
    24    69    73   am
    25    68    71    1
    26    74    73    1
    27    74    77    1
    28    77    78    1
    29    55    54    2
    30    71    72    1
    31    53    52    1
    32    53    54    1
    33    53    56    1
    34    54    59   am
    35    62    61    2
    36    58    56    1
    37    61    60    1
    38    56    57    1
    39    78    79   ar
    40    78    80   ar
    41    59    60    1
    42    60    63    1
    43    79    81   ar
    44    83    80   ar
    45    83    85   ar
    46    80    82   ar
    47    63    65    1
    48    63    64    1
    49    85    86   ar
    50    81    82   ar
    51    82    84   ar
    52    51    49   ar
    53    51    50   ar
    54    49    47   ar
    55    64    66    1
    56    86    84   ar
    57    47    46   ar
    58    50    48   ar
    59    95    93   ar
    60    95    96   ar
    61    39    37    1
    62    93    92   ar
    63    40    38    1
    64    48    46   ar
    65    46    45    1
    66    87    88    1
    67    96    94   ar
    68    38    37    1
    69    37    34    1
    70    92    94   ar
    71    92    91    1
    72    44    43    2
    73    27    25    1
    74    43    42    1
    75    36    35    2
    76    91    88    1
    77    45    42    1
    78    88    89    1
    79    26    25    1
    80    90    89    2
    81    34    35    1
    82    34    33    1
    83    25    24    1
    84    42    41    1
    85    33    30   am
    86    24    21    1
    87    23    22    2
    88    31    30    2
    89    22    21    1
    90    30    29    1
    91    21    20    1
    92    32    29    1
    93    29    28    1
