@<TRIPOS>MOLECULE
tmp/3e5hA00.pdb
 182 176 0 0 0
SMALL
GASTEIGER

@<TRIPOS>ATOM
      1  N         11.6400    0.8160    2.1320 N.3    14  ASP14      -0.1225
      2  CA        10.4010    1.5170    1.8080 C.3    14  ASP14       0.1805
      3  C          9.2660    0.5560    1.4240 C.2    14  ASP14       0.2598
      4  O          9.5290   -0.5730    0.9990 O.2    14  ASP14      -0.2718
      5  CB        10.7250    2.4340    0.6220 C.3    14  ASP14       0.1424
      6  CG         9.5910    3.3480    0.2490 C.2    14  ASP14       0.3668
      7  OD1        9.4640    4.4100    0.8890 O.co2  14  ASP14      -0.2456
      8  OD2        8.8560    3.0250   -0.7090 O.co2  14  ASP14      -0.2456
      9  N          8.0220    1.0160    1.4980 N.am   15  GLY15      -0.1942
     10  CA         6.8880    0.1850    1.1350 C.3    15  GLY15       0.2014
     11  C          6.8330   -0.2720   -0.3120 C.2    15  GLY15       0.2638
     12  O          6.1370   -1.2340   -0.6240 O.2    15  GLY15      -0.2714
     13  N          7.5510    0.4070   -1.2000 N.am   16  ALA16      -0.1977
     14  CA         7.5820   -0.0030   -2.6020 C.3    16  ALA16       0.1597
     15  C          8.5920   -1.1090   -2.8900 C.2    16  ALA16       0.2287
     16  O          8.6150   -1.6580   -3.9900 O.2    16  ALA16      -0.2864
     17  CB         7.9060    1.1860   -3.4800 C.3    16  ALA16       0.0319
     18  N          9.3680   -4.2990   -1.9250 N.3    18  GLY18      -0.1210
     19  CA         9.0660   -5.7040   -2.1740 C.3    18  GLY18       0.1956
     20  C          9.6370   -6.6740   -1.1470 C.2    18  GLY18       0.2612
     21  O          9.9360   -7.8280   -1.4700 O.2    18  GLY18      -0.2717
     22  N          9.7820   -6.2070    0.0910 N.am   19  LYS19      -0.1965
     23  CA        10.3210   -7.0150    1.1900 C.3    19  LYS19       0.1728
     24  C          9.5200   -8.2780    1.4680 C.2    19  LYS19       0.2617
     25  O         10.0750   -9.3730    1.6010 O.2    19  LYS19      -0.2715
     26  CB        10.3790   -6.1740    2.4640 C.3    19  LYS19       0.0311
     27  CG        11.1880   -4.9060    2.2890 C.3    19  LYS19       0.0038
     28  CD        11.2580   -4.0650    3.5670 C.3    19  LYS19       0.0206
     29  CE         9.8830   -3.5860    4.0210 C.3    19  LYS19       0.1093
     30  NZ         9.2170   -2.6750    3.0450 N.3    19  LYS19      -0.1314
     31  N          8.2060   -8.1380    1.5690 N.am   20  THR20      -0.1937
     32  CA         7.3930   -9.2960    1.8660 C.3    20  THR20       0.2028
     33  C          7.4430  -10.2750    0.7030 C.2    20  THR20       0.2642
     34  O          7.5390  -11.4810    0.9110 O.2    20  THR20      -0.2714
     35  CB         5.9540   -8.8790    2.1630 C.3    20  THR20       0.1808
     36  OG1        5.9590   -8.0980    3.3610 O.3    20  THR20      -0.2208
     37  CG2        5.0580  -10.0920    2.3680 C.3    20  THR20       0.0379
     38  N          7.4030   -9.7490   -0.5200 N.am   21  SER21      -0.1949
     39  CA         7.4640  -10.5960   -1.7080 C.3    21  SER21       0.1924
     40  C          8.7830  -11.3680   -1.7800 C.2    21  SER21       0.2314
     41  O          8.8120  -12.5420   -2.1440 O.2    21  SER21      -0.2863
     42  CB         7.2690   -9.7590   -2.9750 C.3    21  SER21       0.2116
     43  OG         5.9850   -9.1530   -2.9880 O.3    21  SER21      -0.2180
     44  N          4.2680  -15.8400   -5.0130 N.3    31  PHE31      -0.1227
     45  CA         4.2480  -14.3970   -5.3150 C.3    31  PHE31       0.1736
     46  C          2.8420  -13.8230   -5.5490 C.2    31  PHE31       0.2596
     47  O          1.9920  -14.4610   -6.1670 O.2    31  PHE31      -0.2718
     48  CB         5.1280  -14.0970   -6.5340 C.3    31  PHE31       0.0547
     49  CG         5.1920  -12.6380   -6.8960 C.ar   31  PHE31      -0.0202
     50  CD1        6.0590  -11.7900   -6.2380 C.ar   31  PHE31      -0.0042
     51  CD2        4.3850  -12.1180   -7.8970 C.ar   31  PHE31      -0.0042
     52  CE1        6.1210  -10.4490   -6.5680 C.ar   31  PHE31      -0.0003
     53  CE2        4.4420  -10.7800   -8.2330 C.ar   31  PHE31      -0.0003
     54  CZ         5.3120   -9.9440   -7.5680 C.ar   31  PHE31      -0.0000
     55  N          2.6110  -12.6050   -5.0630 N.am   32  GLY32      -0.1942
     56  CA         1.3480  -11.9150   -5.2780 C.3    32  GLY32       0.2014
     57  C          1.5160  -10.5240   -5.8690 C.2    32  GLY32       0.2638
     58  O          2.3530   -9.7350   -5.4210 O.2    32  GLY32      -0.2714
     59  N          0.7120  -10.2200   -6.8830 N.am   33  LYS33      -0.1977
     60  CA         0.7600   -8.9220   -7.5500 C.3    33  LYS33       0.1596
     61  C          0.0670   -7.8160   -6.7590 C.2    33  LYS33       0.2287
     62  O          0.5180   -6.6640   -6.7580 O.2    33  LYS33      -0.2864
     63  CB         0.1670   -9.0280   -8.9580 C.3    33  LYS33       0.0298
     64  CG         1.2160   -8.9390  -10.0470 C.3    33  LYS33       0.0038
     65  CD         0.9950   -9.9470  -11.1610 C.3    33  LYS33       0.0206
     66  CE         1.5830  -11.3060  -10.8030 C.3    33  LYS33       0.1093
     67  NZ         0.6230  -12.1600  -10.0360 N.3    33  LYS33      -0.1314
     68  N         -0.7750   -5.5990   -3.8070 N.3    35  TYR35      -0.1227
     69  CA        -0.0390   -5.1190   -2.6550 C.3    35  TYR35       0.1736
     70  C         -0.8640   -5.2030   -1.3670 C.2    35  TYR35       0.2595
     71  O         -1.9570   -4.6350   -1.2680 O.2    35  TYR35      -0.2718
     72  CB         0.4000   -3.6890   -2.9470 C.3    35  TYR35       0.0548
     73  CG         1.0530   -2.9470   -1.8190 C.ar   35  TYR35      -0.0200
     74  CD1        1.9910   -3.5570   -1.0000 C.ar   35  TYR35      -0.0009
     75  CD2        0.7590   -1.6100   -1.6000 C.ar   35  TYR35      -0.0009
     76  CE1        2.5930   -2.8600    0.0220 C.ar   35  TYR35       0.0417
     77  CE2        1.3570   -0.9090   -0.5900 C.ar   35  TYR35       0.0417
     78  CZ         2.2730   -1.5340    0.2200 C.ar   35  TYR35       0.1957
     79  OH         2.8670   -0.8250    1.2330 O.3    35  TYR35      -0.2866
     80  N         -0.3380   -5.9390   -0.3930 N.am   36  LYS36      -0.1966
     81  CA        -0.9090   -5.9700    0.9480 C.3    36  LYS36       0.1728
     82  C          0.1510   -5.4980    1.9370 C.2    36  LYS36       0.2616
     83  O          1.1160   -6.2040    2.2350 O.2    36  LYS36      -0.2715
     84  CB        -1.4000   -7.3710    1.3000 C.3    36  LYS36       0.0311
     85  CG        -2.3340   -7.9420    0.2540 C.3    36  LYS36       0.0038
     86  CD        -2.8250   -9.3210    0.6440 C.3    36  LYS36       0.0206
     87  CE        -3.6960   -9.9160   -0.4480 C.3    36  LYS36       0.1093
     88  NZ        -4.3100  -11.2030   -0.0280 N.3    36  LYS36      -0.1314
     89  N         -0.0350   -4.2810    2.4270 N.am   37  GLN37      -0.1963
     90  CA         0.9310   -3.6340    3.2960 C.3    37  GLN37       0.1733
     91  C          1.1440   -4.4010    4.6050 C.2    37  GLN37       0.2617
     92  O          0.1920   -4.8420    5.2480 O.2    37  GLN37      -0.2715
     93  CB         0.4270   -2.2230    3.5860 C.3    37  GLN37       0.0408
     94  CG         1.2360   -1.4340    4.5750 C.3    37  GLN37       0.0908
     95  CD         0.6840   -0.0340    4.6980 C.2    37  GLN37       0.2608
     96  OE1       -0.5010    0.1570    4.9910 O.2    37  GLN37      -0.2717
     97  NE2        1.5180    0.9490    4.4300 N.am   37  GLN37      -0.0878
     98  N          2.4030   -4.5520    4.9960 N.am   38  THR38      -0.1951
     99  CA         2.7400   -5.1950    6.2630 C.3    38  THR38       0.1897
    100  C          2.6290   -4.1830    7.3910 C.2    38  THR38       0.2313
    101  O          3.2930   -3.1490    7.3750 O.2    38  THR38      -0.2863
    102  CB         4.1720   -5.7470    6.2280 C.3    38  THR38       0.1794
    103  OG1        4.2800   -6.6350    5.1130 O.3    38  THR38      -0.2208
    104  CG2        4.5150   -6.5130    7.5160 C.3    38  THR38       0.0378
    105  N          9.9590   -6.4980    8.0550 N.3    63  ILE63      -0.1231
    106  CA         9.5460   -5.2730    8.7310 C.3    63  ILE63       0.1692
    107  C          8.6330   -4.4270    7.8360 C.2    63  ILE63       0.2593
    108  O          8.8770   -4.2990    6.6420 O.2    63  ILE63      -0.2718
    109  CB        10.7920   -4.4520    9.1530 C.3    63  ILE63       0.0266
    110  CG1       11.7530   -5.3140    9.9770 C.3    63  ILE63       0.0019
    111  CG2       10.4000   -3.1950    9.9170 C.3    63  ILE63       0.0020
    112  CD1       11.0810   -6.0060   11.1280 C.3    63  ILE63       0.0001
    113  N          7.5720   -3.8580    8.3990 N.am   64  GLY64      -0.1942
    114  CA         6.7190   -2.9700    7.6270 C.3    64  GLY64       0.2014
    115  C          7.3910   -1.6410    7.3080 C.2    64  GLY64       0.2639
    116  O          8.0720   -1.0570    8.1480 O.2    64  GLY64      -0.2714
    117  N          7.1950   -1.1480    6.0900 N.am   65  GLY65      -0.1939
    118  CA         7.8160    0.1010    5.6830 C.3    65  GLY65       0.2014
    119  C          7.4670    1.3200    6.5260 C.2    65  GLY65       0.2638
    120  O          8.2460    2.2680    6.6040 O.2    65  GLY65      -0.2714
    121  N          6.3060    1.3160    7.1670 N.am   66  GLN66      -0.1977
    122  CA         5.8700    2.4460    7.9830 C.3    66  GLN66       0.1601
    123  C          6.6260    2.5360    9.3040 C.2    66  GLN66       0.2287
    124  O          6.5630    3.5590   10.0010 O.2    66  GLN66      -0.2864
    125  CB         4.3690    2.3470    8.2700 C.3    66  GLN66       0.0394
    126  CG         3.4840    2.4640    7.0400 C.3    66  GLN66       0.0908
    127  CD         2.0300    2.1310    7.3380 C.2    66  GLN66       0.2608
    128  OE1        1.7100    1.0250    7.7800 O.2    66  GLN66      -0.2717
    129  NE2        1.1440    3.0860    7.0910 N.am   66  GLN66      -0.0878
    130  N         15.7880   -4.9630   -5.7600 N.3   123  ASN123     -0.1225
    131  CA        14.6960   -5.8480   -6.1510 C.3   123  ASN123      0.1785
    132  C         13.9960   -5.3480   -7.4170 C.2   123  ASN123      0.2597
    133  O         14.1650   -4.1880   -7.8350 O.2   123  ASN123     -0.2718
    134  CB        13.7100   -6.0010   -4.9820 C.3   123  ASN123      0.1169
    135  CG        12.6450   -7.0550   -5.2320 C.2   123  ASN123      0.2627
    136  OD1       12.8940   -8.0890   -5.8610 O.2   123  ASN123     -0.2716
    137  ND2       11.4480   -6.8040   -4.7140 N.am  123  ASN123     -0.0877
    138  N         13.2220   -6.2470   -8.0160 N.am  124  LYS124     -0.1980
    139  CA        12.4630   -5.9500   -9.2190 C.3   124  LYS124      0.1596
    140  C         13.3540   -5.8640  -10.4510 C.2   124  LYS124      0.2287
    141  O         13.1510   -4.9960  -11.3000 O.2   124  LYS124     -0.2864
    142  CB        11.6800   -4.6470   -9.0470 C.3   124  LYS124      0.0298
    143  CG        10.9370   -4.5380   -7.7260 C.3   124  LYS124      0.0038
    144  CD         9.6500   -3.7440   -7.8790 C.3   124  LYS124      0.0206
    145  CE         8.9280   -3.6020   -6.5490 C.3   124  LYS124      0.1093
    146  NZ         7.8590   -2.5660   -6.6050 N.3   124  LYS124     -0.1314
    147  N         13.2790   -7.8400  -12.8300 N.3   126  ASP126     -0.1225
    148  CA        12.4140   -8.1440  -13.9690 C.3   126  ASP126      0.1805
    149  C         11.9720   -6.8570  -14.6780 C.2   126  ASP126      0.2597
    150  O         11.5510   -6.8980  -15.8340 O.2   126  ASP126     -0.2718
    151  CB        11.1870   -8.9570  -13.5340 C.3   126  ASP126      0.1424
    152  CG        10.3910   -8.2630  -12.4470 C.2   126  ASP126      0.3668
    153  OD1       10.8990   -8.1650  -11.3040 O.co2 126  ASP126     -0.2456
    154  OD2        9.2620   -7.8150  -12.7360 O.co2 126  ASP126     -0.2456
    155  N         12.0700   -5.7220  -13.9830 N.am  127  LEU127     -0.1979
    156  CA        11.6910   -4.4260  -14.5440 C.3   127  LEU127      0.1596
    157  C         12.9260   -3.6460  -14.9690 C.2   127  LEU127      0.2287
    158  O         12.9240   -2.4210  -14.9870 O.2   127  LEU127     -0.2864
    159  CB        10.8940   -3.6140  -13.5180 C.3   127  LEU127      0.0297
    160  CG         9.6390   -4.2910  -12.9580 C.3   127  LEU127      0.0022
    161  CD1        8.9270   -3.4030  -11.9470 C.3   127  LEU127      0.0001
    162  CD2        8.6880   -4.7200  -14.0970 C.3   127  LEU127      0.0001
    163  N         14.8020  -10.6670   -8.2370 N.3   153  SER153     -0.1202
    164  CA        13.3990  -10.4200   -8.5340 C.3   153  SER153      0.2020
    165  C         12.5390  -11.3640   -7.7160 C.2   153  SER153      0.2619
    166  O         12.5700  -12.5710   -7.9380 O.2   153  SER153     -0.2717
    167  CB        13.0910  -10.6250  -10.0190 C.3   153  SER153      0.2103
    168  OG        11.6850  -10.5880  -10.2500 O.3   153  SER153     -0.2182
    169  N         11.7770  -10.8210   -6.7710 N.am  154  ALA154     -0.1965
    170  CA        10.8280  -11.6400   -6.0250 C.3   154  ALA154      0.1728
    171  C          9.7840  -12.2350   -6.9550 C.2   154  ALA154      0.2616
    172  O          9.2710  -13.3300   -6.7040 O.2   154  ALA154     -0.2715
    173  CB        10.1450  -10.8180   -4.9270 C.3   154  ALA154      0.0334
    174  N          9.4690  -11.5080   -8.0260 N.am  155  LYS155     -0.1977
    175  CA         8.4310  -11.9330   -8.9610 C.3   155  LYS155      0.1596
    176  C          8.8160  -13.1690   -9.7780 C.2   155  LYS155      0.2287
    177  O          8.0260  -14.1110   -9.9050 O.2   155  LYS155     -0.2864
    178  CB         8.0560  -10.7820   -9.8900 C.3   155  LYS155      0.0298
    179  CG         6.9410  -11.1290  -10.8590 C.3   155  LYS155      0.0038
    180  CD         6.5360   -9.8980  -11.6550 C.3   155  LYS155      0.0206
    181  CE         5.4610  -10.2020  -12.6770 C.3   155  LYS155      0.1093
    182  NZ         5.1250   -8.9750  -13.4310 N.3   155  LYS155     -0.1314
@<TRIPOS>BOND
     1   150   149    2
     2   158   157    2
     3   157   156    1
     4   149   155   am
     5   149   148    1
     6   156   155    1
     7   156   159    1
     8   162   160    1
     9   148   151    1
    10   148   147    1
    11   151   152    1
    12   159   160    1
    13   182   181    1
    14   160   161    1
    15   154   152   ar
    16   181   180    1
    17   152   153   ar
    18   180   179    1
    19   141   140    2
    20    65    66    1
    21    65    64    1
    22   179   178    1
    23    66    67    1
    24   140   139    1
    25   168   167    1
    26    64    63    1
    27   167   164    1
    28   177   176    2
    29   178   175    1
    30   176   175    1
    31   139   142    1
    32   139   138    1
    33   142   143    1
    34   175   174    1
    35    63    60    1
    36   164   163    1
    37   164   165    1
    38    53    51   ar
    39    53    54   ar
    40   174   171   am
    41   138   132   am
    42   166   165    2
    43    51    49   ar
    44   144   143    1
    45   144   145    1
    46   133   132    2
    47   165   169   am
    48    54    52   ar
    49    60    59    1
    50    60    61    1
    51   132   131    1
    52   171   172    2
    53   171   170    1
    54    49    48    1
    55    49    50   ar
    56    59    57   am
    57   169   170    1
    58    61    62    2
    59   146   145    1
    60    52    50   ar
    61    48    45    1
    62    47    46    2
    63   131   130    1
    64   131   134    1
    65   170   173    1
    66    57    58    2
    67    57    56    1
    68   136   135    2
    69    46    45    1
    70    46    55   am
    71    45    44    1
    72    56    55    1
    73   135   134    1
    74   135   137   am
    75    16    15    2
    76    68    69    1
    77    17    14    1
    78    43    42    1
    79    42    39    1
    80    72    69    1
    81    72    73    1
    82    15    14    1
    83    69    70    1
    84    14    13    1
    85    19    18    1
    86    19    20    1
    87    41    40    2
    88    73    75   ar
    89    73    74   ar
    90    40    39    1
    91    39    38    1
    92    75    77   ar
    93    21    20    2
    94    70    71    2
    95    70    80   am
    96    13    11   am
    97    20    22   am
    98    74    76   ar
    99     8     6   ar
   100    12    11    2
   101    77    78   ar
   102    38    33   am
   103    87    88    1
   104    87    86    1
   105    80    81    1
   106    11    10    1
   107    76    78   ar
   108    22    23    1
   109    78    79    1
   110     6     5    1
   111     6     7   ar
   112    85    86    1
   113    85    84    1
   114     5     2    1
   115    33    34    2
   116    33    32    1
   117    81    84    1
   118    81    82    1
   119     4     3    2
   120    10     9    1
   121    23    24    1
   122    23    26    1
   123     3     9   am
   124     3     2    1
   125    24    31   am
   126    24    25    2
   127    31    32    1
   128     2     1    1
   129    32    35    1
   130    82    83    2
   131    82    89   am
   132    35    37    1
   133    35    36    1
   134    27    26    1
   135    27    28    1
   136    89    90    1
   137    30    29    1
   138    90    93    1
   139    90    91    1
   140    28    29    1
   141    93    94    1
   142    97    95   am
   143    94    95    1
   144    91    98   am
   145    91    92    2
   146    95    96    2
   147    98    99    1
   148   103   102    1
   149   118   117    1
   150   118   119    1
   151   117   115   am
   152   102    99    1
   153   102   104    1
   154    99   100    1
   155   119   120    2
   156   119   121   am
   157   108   107    2
   158   126   127    1
   159   126   125    1
   160   129   127   am
   161   121   122    1
   162   115   114    1
   163   115   116    2
   164   127   128    2
   165   101   100    2
   166   114   113    1
   167   107   113   am
   168   107   106    1
   169   122   125    1
   170   122   123    1
   171   105   106    1
   172   106   109    1
   173   109   111    1
   174   109   110    1
   175   123   124    2
   176   110   112    1
