@<TRIPOS>MOLECULE
tmp/3e5pB00.pdb
 137 129 0 0 0
SMALL
GASTEIGER

@<TRIPOS>ATOM
      1  N        -17.4160  -17.3930   10.5040 N.3    38  VAL38      -0.1245
      2  CA       -17.2250  -15.9930   10.8110 C.3    38  VAL38       0.1561
      3  C        -17.3090  -15.3000    9.4730 C.2    38  VAL38       0.2260
      4  O        -16.5130  -15.5550    8.5880 O.2    38  VAL38      -0.2867
      5  CB       -15.8710  -15.7480   11.5690 C.3    38  VAL38       0.0252
      6  CG1      -15.0590  -17.0450   11.6040 C.3    38  VAL38       0.0019
      7  CG2      -15.1000  -14.5730   10.9620 C.3    38  VAL38       0.0019
      8  N        -17.8940  -11.7430    8.9190 N.3    40  LYS40      -0.1245
      9  CA       -17.7460  -10.3210    9.1960 C.3    40  LYS40       0.1561
     10  C        -17.1170   -9.5980    8.0120 C.2    40  LYS40       0.2260
     11  O        -16.3860  -10.1960    7.2220 O.2    40  LYS40      -0.2867
     12  CB       -16.9020  -10.1050   10.4530 C.3    40  LYS40       0.0271
     13  CG       -15.4040  -10.2080   10.2200 C.3    40  LYS40       0.0035
     14  CD       -14.8310  -11.4640   10.8580 C.3    40  LYS40       0.0206
     15  CE       -13.3560  -11.2940   11.1820 C.3    40  LYS40       0.1093
     16  NZ       -13.0710  -11.5490   12.6210 N.3    40  LYS40      -0.1314
     17  N        -16.1650  -11.1840    4.3750 N.3    44  TYR44      -0.1241
     18  CA       -14.8090  -10.9570    3.9060 C.3    44  TYR44       0.1605
     19  C        -14.7840  -10.3340    2.5170 C.2    44  TYR44       0.2264
     20  O        -13.8080  -10.4720    1.7910 O.2    44  TYR44      -0.2867
     21  CB       -14.0220  -12.2690    3.8900 C.3    44  TYR44       0.0534
     22  CG       -13.5370  -12.7050    5.2450 C.ar   44  TYR44      -0.0201
     23  CD1      -14.4370  -13.0200    6.2540 C.ar   44  TYR44      -0.0009
     24  CD2      -12.1780  -12.8250    5.5120 C.ar   44  TYR44      -0.0009
     25  CE1      -13.9970  -13.4540    7.5200 C.ar   44  TYR44       0.0417
     26  CE2      -11.7210  -13.2540    6.7630 C.ar   44  TYR44       0.0417
     27  CZ       -12.6390  -13.5690    7.7660 C.ar   44  TYR44       0.1957
     28  OH       -12.2050  -14.0100    9.0000 O.3    44  TYR44      -0.2866
     29  N        -18.3090  -10.9000   17.8540 N.3    86  LEU86      -0.1245
     30  CA       -16.9410  -11.0270   18.3450 C.3    86  LEU86       0.1561
     31  C        -16.3040   -9.8150   19.0270 C.2    86  LEU86       0.2260
     32  O        -15.1770   -9.9080   19.5070 O.2    86  LEU86      -0.2867
     33  CB       -16.0410  -11.4900   17.2010 C.3    86  LEU86       0.0270
     34  CG       -16.3890  -12.8630   16.6270 C.3    86  LEU86       0.0019
     35  CD1      -15.7160  -13.0450   15.2950 C.3    86  LEU86       0.0001
     36  CD2      -15.9690  -13.9460   17.5950 C.3    86  LEU86       0.0001
     37  N        -14.2830  -13.3700   26.9720 N.3   132  LYS132     -0.1245
     38  CA       -13.0140  -13.4800   26.2640 C.3   132  LYS132      0.1561
     39  C        -11.8090  -13.2350   27.1590 C.2   132  LYS132      0.2260
     40  O        -11.7560  -12.2460   27.8800 O.2   132  LYS132     -0.2867
     41  CB       -12.9570  -12.5060   25.0870 C.3   132  LYS132      0.0271
     42  CG       -11.8460  -12.8700   24.1050 C.3   132  LYS132      0.0035
     43  CD       -11.5860  -11.7960   23.0640 C.3   132  LYS132      0.0206
     44  CE       -10.3730  -12.1650   22.2040 C.3   132  LYS132      0.1093
     45  NZ       -10.0790  -11.1320   21.1630 N.3   132  LYS132     -0.1314
     46  N         -5.6270   -7.3000   22.2930 N.3   139  ARG139     -0.1245
     47  CA        -6.6460   -6.3040   21.9800 C.3   139  ARG139      0.1563
     48  C         -7.7810   -6.1670   23.0110 C.2   139  ARG139      0.2260
     49  O         -8.0810   -5.0530   23.4310 O.2   139  ARG139     -0.2867
     50  CB        -7.2040   -6.5150   20.5670 C.3   139  ARG139      0.0307
     51  CG        -7.9920   -7.7710   20.3140 C.3   139  ARG139      0.0489
     52  CD        -8.2130   -7.8850   18.8160 C.3   139  ARG139      0.2205
     53  NE        -9.0560   -9.0150   18.4470 N.pl3 139  ARG139     -0.0865
     54  CZ        -9.1360   -9.5070   17.2150 C.cat 139  ARG139      0.5346
     55  NH1       -8.4210   -8.9680   16.2370 N.pl3 139  ARG139      0.1354
     56  NH2       -9.9280  -10.5370   16.9560 N.pl3 139  ARG139      0.1354
     57  N        -13.7590  -18.0070   25.4150 N.3   167  PHE167     -0.1241
     58  CA       -12.8450  -18.1840   24.2960 C.3   167  PHE167      0.1605
     59  C        -11.6340  -17.2850   24.3520 C.2   167  PHE167      0.2264
     60  O        -11.5080  -16.4490   25.2450 O.2   167  PHE167     -0.2867
     61  CB       -13.5650  -17.9300   22.9750 C.3   167  PHE167      0.0534
     62  CG       -14.0390  -16.5100   22.7950 C.ar  167  PHE167     -0.0203
     63  CD1      -13.6760  -15.7820   21.6630 C.ar  167  PHE167     -0.0042
     64  CD2      -14.8970  -15.9210   23.7230 C.ar  167  PHE167     -0.0042
     65  CE1      -14.1630  -14.5010   21.4560 C.ar  167  PHE167     -0.0003
     66  CE2      -15.3910  -14.6350   23.5240 C.ar  167  PHE167     -0.0003
     67  CZ       -15.0250  -13.9230   22.3870 C.ar  167  PHE167     -0.0000
     68  N         -8.2350  -15.7790   21.4070 N.3   169  HIS169     -0.1241
     69  CA        -7.7890  -15.6790   20.0230 C.3   169  HIS169      0.1621
     70  C         -6.2680  -15.7530   19.9170 C.2   169  HIS169      0.2264
     71  O         -5.5540  -15.1210   20.6890 O.2   169  HIS169     -0.2867
     72  CB        -8.3020  -14.3680   19.4140 C.3   169  HIS169      0.0745
     73  CG        -8.3940  -14.3860   17.9180 C.ar  169  HIS169      0.0817
     74  ND1       -8.7830  -15.5020   17.2090 N.ar  169  HIS169     -0.2268
     75  CD2       -8.2000  -13.4090   17.0000 C.ar  169  HIS169      0.1154
     76  CE1       -8.8240  -15.2120   15.9200 C.ar  169  HIS169      0.1986
     77  NE2       -8.4760  -13.9480   15.7660 N.ar  169  HIS169     -0.2212
     78  N         -9.2680  -20.5160   14.9980 N.3   206  ASN206     -0.1225
     79  CA        -9.5950  -19.7580   13.8030 C.3   206  ASN206      0.1785
     80  C         -9.1210  -20.6680   12.6720 C.2   206  ASN206      0.2598
     81  O         -8.8610  -21.8470   12.9100 O.2   206  ASN206     -0.2718
     82  CB        -8.8700  -18.3970   13.7860 C.3   206  ASN206      0.1169
     83  CG        -7.3510  -18.5220   13.7090 C.2   206  ASN206      0.2627
     84  OD1       -6.6550  -17.5110   13.6330 O.2   206  ASN206     -0.2716
     85  ND2       -6.8340  -19.7530   13.7270 N.am  206  ASN206     -0.0877
     86  N         -9.0090  -20.1440   11.4560 N.am  207  SER207     -0.1938
     87  CA        -8.5660  -20.9640   10.3300 C.3   207  SER207      0.2055
     88  C         -7.2010  -21.5810   10.5810 C.2   207  SER207      0.2642
     89  O         -7.0440  -22.8020   10.5440 O.2   207  SER207     -0.2714
     90  CB        -8.5170  -20.1390    9.0340 C.3   207  SER207      0.2130
     91  OG        -9.8200  -19.8990    8.5270 O.3   207  SER207     -0.2179
     92  N         -6.2210  -20.7270   10.8470 N.am  208  ALA208     -0.1977
     93  CA        -4.8580  -21.1760   11.0850 C.3   208  ALA208      0.1597
     94  C         -4.7500  -22.2970   12.1240 C.2   208  ALA208      0.2287
     95  O         -4.1500  -23.3370   11.8420 O.2   208  ALA208     -0.2864
     96  CB        -3.9850  -19.9950   11.4880 C.3   208  ALA208      0.0319
     97  N        -14.0180  -21.0450   15.0840 N.3   222  ARG222     -0.1245
     98  CA       -14.5420  -19.9020   14.3410 C.3   222  ARG222      0.1563
     99  C        -13.7990  -19.9090   13.0000 C.2   222  ARG222      0.2260
    100  O        -12.7550  -19.2740   12.8550 O.2   222  ARG222     -0.2867
    101  CB       -14.2590  -18.6010   15.1100 C.3   222  ARG222      0.0307
    102  CG       -14.7580  -18.6050   16.5600 C.3   222  ARG222      0.0489
    103  CD       -14.4250  -17.3120   17.3060 C.3   222  ARG222      0.2205
    104  NE       -12.9890  -17.1010   17.4990 N.pl3 222  ARG222     -0.0865
    105  CZ       -12.2280  -17.7290   18.4000 C.cat 222  ARG222      0.5346
    106  NH1      -12.7500  -18.6310   19.2230 N.pl3 222  ARG222      0.1354
    107  NH2      -10.9280  -17.4500   18.4830 N.pl3 222  ARG222      0.1354
    108  N        -12.8500  -18.8200    9.5770 N.3   224  GLY224     -0.1210
    109  CA       -12.9170  -17.5950    8.8040 C.3   224  GLY224      0.1956
    110  C        -12.4690  -17.7130    7.3630 C.2   224  GLY224      0.2611
    111  O        -13.1330  -18.3820    6.5710 O.2   224  GLY224     -0.2717
    112  N        -11.3460  -17.0720    7.0300 N.am  225  VAL225     -0.1979
    113  CA       -10.8150  -17.0500    5.6660 C.3   225  VAL225      0.1595
    114  C        -10.7980  -18.3190    4.8500 C.2   225  VAL225      0.2287
    115  O        -11.1130  -18.2820    3.6640 O.2   225  VAL225     -0.2864
    116  CB        -9.3790  -16.5220    5.6030 C.3   225  VAL225      0.0276
    117  CG1       -9.3870  -15.0300    5.4290 C.3   225  VAL225      0.0022
    118  CG2       -8.6180  -16.9370    6.8360 C.3   225  VAL225      0.0022
    119  N         -4.8870  -19.0040    5.0780 N.3   232  PRO232     -0.2116
    120  CA        -4.7300  -18.0610    6.1930 C.3   232  PRO232      0.1372
    121  C         -3.2900  -17.6810    6.5290 C.2   232  PRO232      0.2244
    122  O         -3.0530  -16.9040    7.4600 O.2   232  PRO232     -0.2868
    123  CB        -5.4270  -18.7730    7.3490 C.3   232  PRO232      0.0268
    124  CG        -5.1930  -20.2080    7.0410 C.3   232  PRO232      0.0207
    125  CD        -5.4280  -20.2920    5.5510 C.3   232  PRO232      0.0892
    126  N         -6.7440  -10.9230    3.0140 N.3   356  TYR356     -0.1241
    127  CA        -7.8650  -10.4650    3.8390 C.3   356  TYR356      0.1605
    128  C         -8.2140   -9.0380    3.4650 C.2   356  TYR356      0.2264
    129  O         -9.3760   -8.7000    3.2960 O.2   356  TYR356     -0.2867
    130  CB        -7.5100  -10.4270    5.3270 C.3   356  TYR356      0.0534
    131  CG        -7.3300  -11.7430    6.0200 C.ar  356  TYR356     -0.0201
    132  CD1       -6.2500  -12.5720    5.7150 C.ar  356  TYR356     -0.0009
    133  CD2       -8.1980  -12.1310    7.0430 C.ar  356  TYR356     -0.0009
    134  CE1       -6.0310  -13.7540    6.4160 C.ar  356  TYR356      0.0417
    135  CE2       -7.9850  -13.3180    7.7540 C.ar  356  TYR356      0.0417
    136  CZ        -6.8930  -14.1150    7.4290 C.ar  356  TYR356      0.1957
    137  OH        -6.6410  -15.2550    8.1380 O.3   356  TYR356     -0.2866
@<TRIPOS>BOND
     1    20    19    2
     2    19    18    1
     3   126   127    1
     4   129   128    2
     5   128   127    1
     6   115   114    2
     7   127   130    1
     8    21    18    1
     9    21    22    1
    10    18    17    1
    11   114   113    1
    12   119   125    1
    13   119   120    1
    14    22    24   ar
    15    22    23   ar
    16   130   131    1
    17   117   116    1
    18    24    26   ar
    19   125   124    1
    20   116   113    1
    21   116   118    1
    22   113   112    1
    23   132   131   ar
    24   132   134   ar
    25   131   133   ar
    26   120   121    1
    27   120   123    1
    28    23    25   ar
    29   134   136   ar
    30   121   122    2
    31   111   110    2
    32    26    27   ar
    33   112   110   am
    34   124   123    1
    35   133   135   ar
    36    11    10    2
    37   110   109    1
    38   136   135   ar
    39   136   137    1
    40    25    27   ar
    41    27    28    1
    42    10     9    1
    43    91    90    1
    44     4     3    2
    45   109   108    1
    46     8     9    1
    47    90    87    1
    48     9    12    1
    49     3     2    1
    50    13    12    1
    51    13    14    1
    52    87    88    1
    53    87    86    1
    54     1     2    1
    55    89    88    2
    56    88    92   am
    57     2     5    1
    58    92    93    1
    59    14    15    1
    60     7     5    1
    61    93    96    1
    62    93    94    1
    63    15    16    1
    64    86    80   am
    65     5     6    1
    66    95    94    2
    67    80    81    2
    68    80    79    1
    69   100    99    2
    70    99    98    1
    71    84    83    2
    72    83    85   am
    73    83    82    1
    74    82    79    1
    75    79    78    1
    76    98    97    1
    77    98   101    1
    78   101   102    1
    79    35    34    1
    80    77    76   ar
    81    77    75   ar
    82    76    74   ar
    83    55    54    1
    84   102   103    1
    85    34    33    1
    86    34    36    1
    87    56    54    1
    88    75    73   ar
    89    33    30    1
    90    74    73   ar
    91    54    53    2
    92   103   104    1
    93   104   105    2
    94    29    30    1
    95    73    72    1
    96    30    31    1
    97   105   107    1
    98   105   106    1
    99    53    52    1
   100    52    51    1
   101    31    32    2
   102    72    69    1
   103    70    69    1
   104    70    71    2
   105    69    68    1
   106    51    50    1
   107    50    47    1
   108    45    44    1
   109    65    63   ar
   110    65    67   ar
   111    63    62   ar
   112    47    46    1
   113    47    48    1
   114    44    43    1
   115    67    66   ar
   116    62    61    1
   117    62    64   ar
   118    61    58    1
   119    48    49    2
   120    43    42    1
   121    66    64   ar
   122    42    41    1
   123    58    59    1
   124    58    57    1
   125    59    60    2
   126    41    38    1
   127    38    37    1
   128    38    39    1
   129    39    40    2
