@<TRIPOS>MOLECULE
tmp/3e62A00.pdb
 88 81 0 0 0
SMALL
GASTEIGER

@<TRIPOS>ATOM
      1  N         32.5100   40.8630   43.8230 N.3    17  LEU17      -0.1245
      2  CA        31.8030   40.8320   42.5430 C.3    17  LEU17       0.1561
      3  C         31.0220   39.5440   42.2920 C.2    17  LEU17       0.2260
      4  O         30.0220   39.5590   41.5700 O.2    17  LEU17      -0.2867
      5  CB        32.7530   41.1350   41.3760 C.3    17  LEU17       0.0270
      6  CG        33.3210   42.5540   41.2460 C.3    17  LEU17       0.0019
      7  CD1       34.3480   42.6130   40.1190 C.3    17  LEU17       0.0001
      8  CD2       32.2220   43.6080   41.0300 C.3    17  LEU17       0.0001
      9  N         35.4910   36.4050   43.0870 N.3    25  VAL25      -0.1245
     10  CA        35.9650   37.5660   42.3300 C.3    25  VAL25       0.1561
     11  C         35.7430   38.8720   43.0950 C.2    25  VAL25       0.2260
     12  O         34.6550   39.1160   43.6330 O.2    25  VAL25      -0.2867
     13  CB        35.3490   37.6410   40.9090 C.3    25  VAL25       0.0252
     14  CG1       35.9270   38.8170   40.1360 C.3    25  VAL25       0.0019
     15  CG2       35.6070   36.3440   40.1380 C.3    25  VAL25       0.0019
     16  N         39.2630   43.4370   37.9170 N.3    42  ALA42      -0.1245
     17  CA        38.5980   42.3210   38.5870 C.3    42  ALA42       0.1562
     18  C         39.6590   41.2870   38.9150 C.2    42  ALA42       0.2260
     19  O         40.5130   40.9960   38.0760 O.2    42  ALA42      -0.2867
     20  CB        37.5460   41.7200   37.6980 C.3    42  ALA42       0.0290
     21  N         35.8870   38.1440   28.1250 N.3    73  VAL73      -0.1245
     22  CA        36.5570   39.0320   29.0940 C.3    73  VAL73       0.1561
     23  C         38.0840   38.9850   28.9100 C.2    73  VAL73       0.2260
     24  O         38.6620   37.9070   28.6910 O.2    73  VAL73      -0.2867
     25  CB        36.1310   38.7220   30.5680 C.3    73  VAL73       0.0252
     26  CG1       36.6860   37.3750   31.0630 C.3    73  VAL73       0.0019
     27  CG2       36.5400   39.8730   31.5240 C.3    73  VAL73       0.0019
     28  N         41.8080   40.4260   35.6220 N.3    91  MET91      -0.1230
     29  CA        40.9970   40.6170   34.4170 C.3    91  MET91       0.1702
     30  C         40.4990   42.0380   34.3530 C.2    91  MET91       0.2592
     31  O         40.4480   42.7190   35.3720 O.2    91  MET91      -0.2718
     32  CB        39.7750   39.6980   34.4450 C.3    91  MET91       0.0401
     33  CG        40.1090   38.2240   34.4320 C.3    91  MET91       0.0596
     34  SD        38.6690   37.1790   34.7510 S.3    91  MET91      -0.1393
     35  CE        38.5600   37.2750   36.5510 C.3    91  MET91       0.0692
     36  N         40.0960   42.4730   33.1630 N.am   92  GLU92      -0.1966
     37  CA        39.4380   43.7780   33.0170 C.3    92  GLU92       0.1733
     38  C         38.1660   43.7950   33.8600 C.2    92  GLU92       0.2616
     39  O         37.5090   42.7620   34.0390 O.2    92  GLU92      -0.2715
     40  CB        39.1250   44.0800   31.5490 C.3    92  GLU92       0.0429
     41  CG        38.1210   43.0910   30.9010 C.3    92  GLU92       0.1163
     42  CD        37.7060   43.4810   29.4870 C.2    92  GLU92       0.3649
     43  OE1       37.9310   44.6470   29.0910 O.co2  92  GLU92      -0.2457
     44  OE2       37.1770   42.6100   28.7530 O.co2  92  GLU92      -0.2457
     45  N         37.8460   44.9650   34.4020 N.am   93  TYR93      -0.1960
     46  CA        36.6140   45.1480   35.1510 C.3    93  TYR93       0.1771
     47  C         35.5230   45.6420   34.2120 C.2    93  TYR93       0.2619
     48  O         35.6850   46.6610   33.5460 O.2    93  TYR93      -0.2715
     49  CB        36.8190   46.1420   36.3040 C.3    93  TYR93       0.0574
     50  CG        35.5420   46.4790   37.0390 C.ar   93  TYR93      -0.0198
     51  CD1       34.8370   45.4950   37.7090 C.ar   93  TYR93      -0.0009
     52  CD2       35.0390   47.7880   37.0590 C.ar   93  TYR93      -0.0009
     53  CE1       33.6620   45.7770   38.3750 C.ar   93  TYR93       0.0417
     54  CE2       33.8580   48.0870   37.7410 C.ar   93  TYR93       0.0417
     55  CZ        33.1790   47.0730   38.3940 C.ar   93  TYR93       0.1957
     56  OH        32.0060   47.3180   39.0730 O.3    93  TYR93      -0.2866
     57  N         34.4170   44.9080   34.1580 N.am   94  LEU94      -0.1977
     58  CA        33.2800   45.2790   33.3200 C.3    94  LEU94       0.1596
     59  C         32.1980   45.8270   34.2460 C.2    94  LEU94       0.2287
     60  O         31.6020   45.0820   35.0230 O.2    94  LEU94      -0.2864
     61  CB        32.7810   44.0810   32.4910 C.3    94  LEU94       0.0297
     62  CG        33.8070   43.4290   31.5390 C.3    94  LEU94       0.0022
     63  CD1       33.1310   42.4080   30.6190 C.3    94  LEU94       0.0001
     64  CD2       34.5480   44.4530   30.7180 C.3    94  LEU94       0.0001
     65  N         28.2840   44.7780   35.4090 N.3    97  GLY97      -0.1225
     66  CA        28.0850   43.5270   36.1570 C.3    97  GLY97       0.1811
     67  C         27.5740   42.3560   35.3270 C.2    97  GLY97       0.2280
     68  O         27.7070   42.3490   34.1060 O.2    97  GLY97      -0.2866
     69  N         29.0070   38.8650   31.2670 N.3   145  LEU145     -0.1245
     70  CA        29.1840   40.1820   31.8840 C.3   145  LEU145      0.1561
     71  C         28.7870   41.2850   30.9150 C.2   145  LEU145      0.2260
     72  O         28.8910   41.1280   29.7090 O.2   145  LEU145     -0.2867
     73  CB        30.6500   40.3920   32.2980 C.3   145  LEU145      0.0270
     74  CG        31.1820   39.4340   33.3600 C.3   145  LEU145      0.0019
     75  CD1       32.6990   39.5120   33.4320 C.3   145  LEU145      0.0001
     76  CD2       30.5470   39.7380   34.6930 C.3   145  LEU145      0.0001
     77  N         32.3470   35.6430   30.7380 N.3   155  GLY155     -0.1210
     78  CA        33.1200   36.2250   31.8450 C.3   155  GLY155      0.1956
     79  C         33.8080   35.2810   32.7950 C.2   155  GLY155      0.2611
     80  O         34.6000   35.7210   33.6420 O.2   155  GLY155     -0.2717
     81  N         33.5100   33.9880   32.6830 N.am  156  ASP156     -0.1973
     82  CA        34.1120   33.0110   33.5810 C.3   156  ASP156      0.1709
     83  C         34.3580   31.7120   32.8470 C.2   156  ASP156      0.2293
     84  O         33.5500   31.3140   31.9990 O.2   156  ASP156     -0.2864
     85  CB        33.2220   32.7340   34.7980 C.3   156  ASP156      0.1436
     86  CG        33.9550   31.9400   35.8780 C.2   156  ASP156      0.3671
     87  OD1       34.7230   32.5530   36.6580 O.co2 156  ASP156     -0.2456
     88  OD2       33.7870   30.7050   35.9380 O.co2 156  ASP156     -0.2456
@<TRIPOS>BOND
     1    21    22    1
     2    24    23    2
     3    44    42   ar
     4    23    22    1
     5    43    42   ar
     6    22    25    1
     7    42    41    1
     8    72    71    2
     9    25    26    1
    10    25    27    1
    11    63    62    1
    12    64    62    1
    13    77    78    1
    14    41    40    1
    15    71    70    1
    16    69    70    1
    17    62    61    1
    18    40    37    1
    19    78    79    1
    20    70    73    1
    21    84    83    2
    22    73    74    1
    23    61    58    1
    24    81    79   am
    25    81    82    1
    26    79    80    2
    27    83    82    1
    28    37    36    1
    29    37    38    1
    30    36    30   am
    31    58    57    1
    32    58    59    1
    33    74    75    1
    34    74    76    1
    35    48    47    2
    36    82    85    1
    37    38    39    2
    38    38    45   am
    39    68    67    2
    40    57    47   am
    41    47    46    1
    42    59    60    2
    43    30    29    1
    44    30    31    2
    45    45    46    1
    46    29    32    1
    47    29    28    1
    48    33    32    1
    49    33    34    1
    50    34    35    1
    51    85    86    1
    52    46    49    1
    53    67    66    1
    54    65    66    1
    55    86    88   ar
    56    86    87   ar
    57    49    50    1
    58    50    52   ar
    59    50    51   ar
    60    52    54   ar
    61    20    17    1
    62    51    53   ar
    63    54    55   ar
    64    16    17    1
    65    19    18    2
    66    53    55   ar
    67    55    56    1
    68    17    18    1
    69     7     6    1
    70    14    13    1
    71    15    13    1
    72    13    10    1
    73     8     6    1
    74     6     5    1
    75     5     2    1
    76     4     3    2
    77     3     2    1
    78    10     9    1
    79    10    11    1
    80     2     1    1
    81    11    12    2
