@<TRIPOS>MOLECULE
tmp/3e63A00.pdb
 124 116 0 0 0
SMALL
GASTEIGER

@<TRIPOS>ATOM
      1  N         32.4270   41.1360   43.6900 N.3    16  LEU16      -0.1231
      2  CA        31.6870   41.0150   42.4420 C.3    16  LEU16       0.1693
      3  C         30.9430   39.6860   42.3270 C.2    16  LEU16       0.2593
      4  O         30.1230   39.5090   41.4230 O.2    16  LEU16      -0.2718
      5  CB        32.6040   41.2490   41.2320 C.3    16  LEU16       0.0284
      6  CG        33.2100   42.6450   41.0550 C.3    16  LEU16       0.0019
      7  CD1       34.1610   42.6540   39.8730 C.3    16  LEU16       0.0001
      8  CD2       32.1450   43.7380   40.8870 C.3    16  LEU16       0.0001
      9  N         31.2220   38.7600   43.2420 N.am   17  GLY17      -0.1942
     10  CA        30.4890   37.4950   43.3050 C.3    17  GLY17       0.2014
     11  C         31.3560   36.2500   43.3590 C.2    17  GLY17       0.2639
     12  O         32.5880   36.3300   43.3410 O.2    17  GLY17      -0.2714
     13  N         30.7010   35.0930   43.4250 N.am   18  LYS18      -0.1963
     14  CA        31.3920   33.8060   43.4950 C.3    18  LYS18       0.1728
     15  C         31.2870   33.0580   42.1700 C.2    18  LYS18       0.2616
     16  O         30.2050   32.9580   41.5890 O.2    18  LYS18      -0.2715
     17  CB        30.8300   32.9480   44.6370 C.3    18  LYS18       0.0311
     18  CG        30.8400   33.6170   46.0150 C.3    18  LYS18       0.0038
     19  CD        32.2280   33.6380   46.6510 C.3    18  LYS18       0.0206
     20  CE        32.2200   34.4380   47.9460 C.3    18  LYS18       0.1093
     21  NZ        33.4740   34.2630   48.7240 N.3    18  LYS18      -0.1314
     22  N         32.4180   32.5410   41.6970 N.am   19  GLY19      -0.1955
     23  CA        32.4740   31.7980   40.4410 C.3    19  GLY19       0.1869
     24  C         32.9700   30.3800   40.6510 C.2    19  GLY19       0.2309
     25  O         34.1340   30.0800   40.3710 O.2    19  GLY19      -0.2863
     26  N         35.4230   36.7320   42.9380 N.3    24  VAL24      -0.1245
     27  CA        35.8780   37.8790   42.1520 C.3    24  VAL24       0.1561
     28  C         35.6460   39.1850   42.9160 C.2    24  VAL24       0.2260
     29  O         34.5630   39.4130   43.4660 O.2    24  VAL24      -0.2867
     30  CB        35.2100   37.9310   40.7570 C.3    24  VAL24       0.0252
     31  CG1       35.7970   39.0620   39.9120 C.3    24  VAL24       0.0019
     32  CG2       35.3630   36.5900   40.0320 C.3    24  VAL24       0.0019
     33  N         39.2150   43.6240   37.7760 N.3    41  ALA41      -0.1245
     34  CA        38.5830   42.4770   38.4390 C.3    41  ALA41       0.1562
     35  C         39.6320   41.4300   38.8050 C.2    41  ALA41       0.2260
     36  O         40.4410   41.0360   37.9630 O.2    41  ALA41      -0.2867
     37  CB        37.5300   41.8690   37.5530 C.3    41  ALA41       0.0290
     38  N         35.8580   38.2990   28.0320 N.3    72  VAL72      -0.1245
     39  CA        36.4990   39.1850   29.0140 C.3    72  VAL72       0.1561
     40  C         38.0260   39.2030   28.8300 C.2    72  VAL72       0.2260
     41  O         38.6490   38.1650   28.5980 O.2    72  VAL72      -0.2867
     42  CB        36.0880   38.8380   30.4860 C.3    72  VAL72       0.0252
     43  CG1       36.6890   37.4870   30.9480 C.3    72  VAL72       0.0019
     44  CG2       36.4390   39.9760   31.4500 C.3    72  VAL72       0.0019
     45  N         41.7660   40.6760   35.4850 N.3    90  MET90      -0.1230
     46  CA        40.9600   40.8430   34.2710 C.3    90  MET90       0.1702
     47  C         40.4780   42.2680   34.2030 C.2    90  MET90       0.2592
     48  O         40.4840   42.9620   35.2150 O.2    90  MET90      -0.2718
     49  CB        39.7360   39.9230   34.2890 C.3    90  MET90       0.0401
     50  CG        40.0520   38.4370   34.2150 C.3    90  MET90       0.0596
     51  SD        38.6080   37.4160   34.5620 S.3    90  MET90      -0.1393
     52  CE        38.5810   37.3800   36.3550 C.3    90  MET90       0.0692
     53  N         40.0450   42.7050   33.0220 N.am   91  GLU91      -0.1966
     54  CA        39.3850   44.0100   32.8980 C.3    91  GLU91       0.1733
     55  C         38.1180   44.0270   33.7420 C.2    91  GLU91       0.2616
     56  O         37.4690   43.0010   33.9250 O.2    91  GLU91      -0.2715
     57  CB        39.0320   44.3320   31.4450 C.3    91  GLU91       0.0429
     58  CG        38.0020   43.3770   30.8210 C.3    91  GLU91       0.1163
     59  CD        37.5930   43.7730   29.4130 C.2    91  GLU91       0.3649
     60  OE1       37.8420   44.9290   29.0090 O.co2  91  GLU91      -0.2457
     61  OE2       37.0190   42.9220   28.7010 O.co2  91  GLU91      -0.2457
     62  N         37.7840   45.1980   34.2630 N.am   92  TYR92      -0.1960
     63  CA        36.5380   45.3920   34.9730 C.3    92  TYR92       0.1771
     64  C         35.4590   45.9130   34.0210 C.2    92  TYR92       0.2619
     65  O         35.6570   46.9100   33.3220 O.2    92  TYR92      -0.2715
     66  CB        36.7350   46.3400   36.1610 C.3    92  TYR92       0.0574
     67  CG        35.4510   46.6390   36.8990 C.ar   92  TYR92      -0.0198
     68  CD1       34.7560   45.6230   37.5500 C.ar   92  TYR92      -0.0009
     69  CD2       34.9340   47.9350   36.9470 C.ar   92  TYR92      -0.0009
     70  CE1       33.5760   45.8800   38.2150 C.ar   92  TYR92       0.0417
     71  CE2       33.7520   48.2100   37.6290 C.ar   92  TYR92       0.0417
     72  CZ        33.0800   47.1720   38.2610 C.ar   92  TYR92       0.1957
     73  OH        31.9050   47.4030   38.9390 O.3    92  TYR92      -0.2866
     74  N         34.3320   45.2090   33.9920 N.am   93  LEU93      -0.1977
     75  CA        33.1830   45.5610   33.1750 C.3    93  LEU93       0.1596
     76  C         32.1150   46.0960   34.1360 C.2    93  LEU93       0.2287
     77  O         31.5810   45.3520   34.9630 O.2    93  LEU93      -0.2864
     78  CB        32.6980   44.3450   32.3540 C.3    93  LEU93       0.0297
     79  CG        33.6870   43.6900   31.3670 C.3    93  LEU93       0.0022
     80  CD1       32.9650   42.7380   30.4340 C.3    93  LEU93       0.0001
     81  CD2       34.4360   44.7140   30.5310 C.3    93  LEU93       0.0001
     82  N         28.2100   45.0140   35.3910 N.3    96  GLY96      -0.1225
     83  CA        28.0050   43.7230   36.0750 C.3    96  GLY96       0.1811
     84  C         27.5660   42.5650   35.1900 C.2    96  GLY96       0.2280
     85  O         27.7410   42.6120   33.9710 O.2    96  GLY96      -0.2866
     86  N         24.5660   34.2570   34.3540 N.3   141  ARG141     -0.1231
     87  CA        25.4070   34.6760   35.4850 C.3   141  ARG141      0.1694
     88  C         26.9030   34.7110   35.1250 C.2   141  ARG141      0.2592
     89  O         27.6930   35.3590   35.8180 O.2   141  ARG141     -0.2718
     90  CB        25.1670   33.8000   36.7220 C.3   141  ARG141      0.0321
     91  CG        25.5790   32.3520   36.5610 C.3   141  ARG141      0.0489
     92  CD        25.5940   31.6350   37.9050 C.3   141  ARG141      0.2205
     93  NE        25.6550   30.1830   37.7310 N.pl3 141  ARG141     -0.0865
     94  CZ        26.7720   29.4800   37.5490 C.cat 141  ARG141      0.5346
     95  NH1       27.9570   30.0810   37.5180 N.pl3 141  ARG141      0.1354
     96  NH2       26.7040   28.1640   37.3980 N.pl3 141  ARG141      0.1354
     97  N         27.2790   34.0260   34.0400 N.am  142  ASN142     -0.1974
     98  CA        28.6710   33.9930   33.5850 C.3   142  ASN142      0.1688
     99  C         28.9570   34.9080   32.3940 C.2   142  ASN142      0.2292
    100  O         30.0010   34.7890   31.7520 O.2   142  ASN142     -0.2864
    101  CB        29.0870   32.5510   33.2600 C.3   142  ASN142      0.1181
    102  CG        29.2460   31.7010   34.5000 C.2   142  ASN142      0.2629
    103  OD1       29.7230   32.1710   35.5260 O.2   142  ASN142     -0.2716
    104  ND2       28.8450   30.4410   34.4130 N.am  142  ASN142     -0.0877
    105  N         28.9350   39.0160   31.0900 N.3   144  LEU144     -0.1245
    106  CA        29.1060   40.3440   31.6740 C.3   144  LEU144      0.1561
    107  C         28.7070   41.4620   30.7210 C.2   144  LEU144      0.2260
    108  O         28.8370   41.3340   29.5080 O.2   144  LEU144     -0.2867
    109  CB        30.5550   40.5500   32.1190 C.3   144  LEU144      0.0270
    110  CG        31.1310   39.5730   33.1370 C.3   144  LEU144      0.0019
    111  CD1       32.6270   39.8400   33.2470 C.3   144  LEU144      0.0001
    112  CD2       30.4290   39.6780   34.4910 C.3   144  LEU144      0.0001
    113  N         32.2600   35.8820   30.6920 N.3   154  GLY154     -0.1210
    114  CA        33.0200   36.4500   31.8050 C.3   154  GLY154      0.1956
    115  C         33.7380   35.5090   32.7370 C.2   154  GLY154      0.2611
    116  O         34.5090   35.9570   33.5840 O.2   154  GLY154     -0.2717
    117  N         33.4800   34.2100   32.6010 N.am  155  ASP155     -0.1973
    118  CA        34.0940   33.2190   33.4670 C.3   155  ASP155      0.1709
    119  C         34.3550   31.9370   32.7020 C.2   155  ASP155      0.2293
    120  O         33.5600   31.5490   31.8400 O.2   155  ASP155     -0.2864
    121  CB        33.2080   32.9110   34.6740 C.3   155  ASP155      0.1436
    122  CG        33.9500   32.1440   35.7530 C.2   155  ASP155      0.3671
    123  OD1       34.6880   32.7830   36.5290 O.co2 155  ASP155     -0.2456
    124  OD2       33.8040   30.9040   35.8230 O.co2 155  ASP155     -0.2456
@<TRIPOS>BOND
     1    38    39    1
     2    41    40    2
     3    61    59   ar
     4    40    39    1
     5    60    59   ar
     6    39    42    1
     7    59    58    1
     8   108   107    2
     9    80    79    1
    10    42    43    1
    11    42    44    1
    12    81    79    1
    13   113   114    1
    14   107   106    1
    15    58    57    1
    16   105   106    1
    17    79    78    1
    18    57    54    1
    19   106   109    1
    20   100    99    2
    21   114   115    1
    22   120   119    2
    23   109   110    1
    24    78    75    1
    25    99    98    1
    26   117   115   am
    27   117   118    1
    28   119   118    1
    29   115   116    2
    30    54    53    1
    31    54    55    1
    32    53    47   am
    33   110   111    1
    34   110   112    1
    35    75    74    1
    36    75    76    1
    37   101    98    1
    38   101   102    1
    39    65    64    2
    40   118   121    1
    41    98    97    1
    42    55    56    2
    43    55    62   am
    44    85    84    2
    45    74    64   am
    46    64    63    1
    47    97    88   am
    48    76    77    2
    49    47    46    1
    50    47    48    2
    51    50    49    1
    52    50    51    1
    53    62    63    1
    54    46    49    1
    55    46    45    1
    56    86    87    1
    57   104   102   am
    58   102   103    2
    59    51    52    1
    60   121   122    1
    61    63    66    1
    62    88    87    1
    63    88    89    2
    64    84    83    1
    65    82    83    1
    66    87    90    1
    67   122   124   ar
    68   122   123   ar
    69    66    67    1
    70    91    90    1
    71    91    92    1
    72    67    69   ar
    73    67    68   ar
    74    69    71   ar
    75    96    94    1
    76    95    94    1
    77    94    93    2
    78    68    70   ar
    79    37    34    1
    80    71    72   ar
    81    93    92    1
    82    33    34    1
    83    36    35    2
    84    70    72   ar
    85    72    73    1
    86    34    35    1
    87     7     6    1
    88    31    30    1
    89    32    30    1
    90    25    24    2
    91    23    24    1
    92    23    22    1
    93    30    27    1
    94     8     6    1
    95     6     5    1
    96     5     2    1
    97     4     3    2
    98    16    15    2
    99    22    15   am
   100    27    28    1
   101    27    26    1
   102    15    14    1
   103     3     2    1
   104     3     9   am
   105     2     1    1
   106    28    29    2
   107     9    10    1
   108    10    11    1
   109    12    11    2
   110    11    13   am
   111    13    14    1
   112    14    17    1
   113    17    18    1
   114    18    19    1
   115    19    20    1
   116    20    21    1
