@<TRIPOS>MOLECULE
tmp/3e64A00.pdb
 151 142 0 0 0
SMALL
GASTEIGER

@<TRIPOS>ATOM
      1  N         32.5590   41.2530   43.7260 N.3    17  LEU17      -0.1231
      2  CA        31.7940   41.1090   42.5000 C.3    17  LEU17       0.1693
      3  C         31.0680   39.7770   42.4030 C.2    17  LEU17       0.2593
      4  O         30.1140   39.6410   41.6370 O.2    17  LEU17      -0.2718
      5  CB        32.6930   41.3260   41.2820 C.3    17  LEU17       0.0284
      6  CG        33.3180   42.7140   41.1250 C.3    17  LEU17       0.0019
      7  CD1       34.2690   42.7280   39.9360 C.3    17  LEU17       0.0001
      8  CD2       32.2640   43.8480   41.0250 C.3    17  LEU17       0.0001
      9  N         31.5200   38.8000   43.1810 N.am   18  GLY18      -0.1942
     10  CA        30.8250   37.5240   43.2880 C.3    18  GLY18       0.2014
     11  C         31.6500   36.4910   44.0310 C.2    18  GLY18       0.2639
     12  O         32.8740   36.6210   44.1460 O.2    18  GLY18      -0.2714
     13  N         30.9750   35.4560   44.5240 N.am   19  LYS19      -0.1963
     14  CA        31.6310   34.3810   45.2540 C.3    19  LYS19       0.1728
     15  C         30.8620   33.0970   45.0100 C.2    19  LYS19       0.2617
     16  O         29.7030   33.1350   44.5830 O.2    19  LYS19      -0.2715
     17  CB        31.6570   34.7130   46.7500 C.3    19  LYS19       0.0311
     18  CG        32.6370   33.9240   47.6040 C.3    19  LYS19       0.0038
     19  CD        32.6620   34.5330   48.9940 C.3    19  LYS19       0.0206
     20  CE        33.5960   33.8140   49.9350 C.3    19  LYS19       0.1093
     21  NZ        33.7990   34.6200   51.1740 N.3    19  LYS19      -0.1314
     22  N         31.5150   31.9640   45.2630 N.am   20  GLY20      -0.1940
     23  CA        30.8590   30.6600   45.2380 C.3    20  GLY20       0.2014
     24  C         31.7780   29.5980   45.7950 C.2    20  GLY20       0.2638
     25  O         32.6370   29.8940   46.6340 O.2    20  GLY20      -0.2714
     26  N         31.5880   28.3610   45.3380 N.am   21  ASN21      -0.1972
     27  CA        32.5690   27.2990   45.5530 C.3    21  ASN21       0.1688
     28  C         33.8310   27.6030   44.7530 C.2    21  ASN21       0.2292
     29  O         33.7640   28.1870   43.6610 O.2    21  ASN21      -0.2864
     30  CB        32.0090   25.9340   45.1470 C.3    21  ASN21       0.1181
     31  CG        32.8740   24.7910   45.6530 C.2    21  ASN21       0.2629
     32  OD1       33.7460   24.9810   46.4640 O.2    21  ASN21      -0.2716
     33  ND2       32.5360   23.6150   45.1740 N.am   21  ASN21      -0.0877
     34  N         36.0440   29.8500   44.1400 N.3    23  GLY23      -0.1210
     35  CA        36.5310   31.2340   44.0120 C.3    23  GLY23       0.1956
     36  C         35.6480   32.4480   44.2900 C.2    23  GLY23       0.2613
     37  O         34.4510   32.3370   44.5940 O.2    23  GLY23      -0.2717
     38  N         36.2810   33.6180   44.2070 N.am   24  SER24      -0.1938
     39  CA        35.6190   34.9060   44.3230 C.3    24  SER24       0.2055
     40  C         36.2740   35.8700   43.3440 C.2    24  SER24       0.2642
     41  O         37.4080   35.6510   42.8960 O.2    24  SER24      -0.2714
     42  CB        35.6730   35.4540   45.7610 C.3    24  SER24       0.2130
     43  OG        36.9770   35.8550   46.1280 O.3    24  SER24      -0.2179
     44  N         35.5310   36.9060   42.9770 N.am   25  VAL25      -0.1977
     45  CA        36.0390   37.9770   42.1440 C.3    25  VAL25       0.1596
     46  C         35.8050   39.2890   42.8870 C.2    25  VAL25       0.2287
     47  O         34.7100   39.5140   43.4160 O.2    25  VAL25      -0.2864
     48  CB        35.3790   37.9940   40.7530 C.3    25  VAL25       0.0276
     49  CG1       35.9400   39.1410   39.9040 C.3    25  VAL25       0.0022
     50  CG2       35.5650   36.6400   40.0290 C.3    25  VAL25       0.0022
     51  N         39.3920   43.7430   37.7790 N.3    42  ALA42      -0.1245
     52  CA        38.7140   42.6210   38.4310 C.3    42  ALA42       0.1562
     53  C         39.7670   41.5830   38.8050 C.2    42  ALA42       0.2260
     54  O         40.6450   41.2630   38.0010 O.2    42  ALA42      -0.2867
     55  CB        37.6770   41.9980   37.5040 C.3    42  ALA42       0.0290
     56  N         40.3190   37.7440   40.2510 N.3    44  LYS44      -0.1245
     57  CA        39.7620   36.4470   40.6260 C.3    44  LYS44       0.1561
     58  C         40.7620   35.6580   41.4580 C.2    44  LYS44       0.2260
     59  O         41.9280   35.5220   41.0810 O.2    44  LYS44      -0.2867
     60  CB        39.3490   35.6280   39.3960 C.3    44  LYS44       0.0271
     61  CG        38.7430   34.2880   39.7800 C.3    44  LYS44       0.0035
     62  CD        38.1070   33.5360   38.5850 C.3    44  LYS44       0.0206
     63  CE        37.4460   32.2350   39.0690 C.3    44  LYS44       0.1093
     64  NZ        36.8520   31.4570   37.9310 N.3    44  LYS44      -0.1314
     65  N         35.9640   38.4270   28.0690 N.3    73  VAL73      -0.1245
     66  CA        36.6060   39.3490   29.0250 C.3    73  VAL73       0.1561
     67  C         38.1360   39.3440   28.8400 C.2    73  VAL73       0.2260
     68  O         38.7420   38.2840   28.6130 O.2    73  VAL73      -0.2867
     69  CB        36.1920   39.0350   30.5010 C.3    73  VAL73       0.0252
     70  CG1       36.7510   37.6740   30.9560 C.3    73  VAL73       0.0019
     71  CG2       36.6020   40.1740   31.4500 C.3    73  VAL73       0.0019
     72  N         41.8550   40.8070   35.5300 N.3    91  MET91      -0.1230
     73  CA        41.0690   41.0030   34.3130 C.3    91  MET91       0.1702
     74  C         40.6120   42.4450   34.2140 C.2    91  MET91       0.2592
     75  O         40.5530   43.1600   35.2190 O.2    91  MET91      -0.2718
     76  CB        39.8410   40.0890   34.3220 C.3    91  MET91       0.0401
     77  CG        40.1710   38.5970   34.1870 C.3    91  MET91       0.0596
     78  SD        38.7750   37.5140   34.5810 S.3    91  MET91      -0.1393
     79  CE        38.7660   37.5860   36.3830 C.3    91  MET91       0.0692
     80  N         40.2350   42.8770   33.0180 N.am   92  GLU92      -0.1966
     81  CA        39.5680   44.1900   32.8960 C.3    92  GLU92       0.1733
     82  C         38.2850   44.2070   33.7220 C.2    92  GLU92       0.2616
     83  O         37.6140   43.1690   33.8980 O.2    92  GLU92      -0.2715
     84  CB        39.2420   44.5200   31.4350 C.3    92  GLU92       0.0429
     85  CG        38.2060   43.5570   30.8000 C.3    92  GLU92       0.1163
     86  CD        37.8240   43.9390   29.3800 C.2    92  GLU92       0.3649
     87  OE1       38.0890   45.0840   28.9480 O.co2  92  GLU92      -0.2457
     88  OE2       37.2530   43.0860   28.6900 O.co2  92  GLU92      -0.2457
     89  N         37.9490   45.3900   34.2330 N.am   93  TYR93      -0.1960
     90  CA        36.6970   45.6040   34.9420 C.3    93  TYR93       0.1771
     91  C         35.6100   46.1010   33.9910 C.2    93  TYR93       0.2619
     92  O         35.7700   47.1270   33.3120 O.2    93  TYR93      -0.2715
     93  CB        36.8870   46.5770   36.1210 C.3    93  TYR93       0.0574
     94  CG        35.5960   46.8510   36.8660 C.ar   93  TYR93      -0.0198
     95  CD1       34.9060   45.8130   37.4840 C.ar   93  TYR93      -0.0009
     96  CD2       35.0680   48.1520   36.9530 C.ar   93  TYR93      -0.0009
     97  CE1       33.7160   46.0350   38.1550 C.ar   93  TYR93       0.0417
     98  CE2       33.8760   48.3980   37.6390 C.ar   93  TYR93       0.0417
     99  CZ        33.2020   47.3280   38.2380 C.ar   93  TYR93       0.1957
    100  OH        32.0120   47.5180   38.9150 O.3    93  TYR93      -0.2866
    101  N         34.5150   45.3500   33.9410 N.am   94  LEU94      -0.1977
    102  CA        33.3590   45.6780   33.1070 C.3    94  LEU94       0.1596
    103  C         32.2950   46.2600   34.0410 C.2    94  LEU94       0.2287
    104  O         31.6880   45.5300   34.8500 O.2    94  LEU94      -0.2864
    105  CB        32.8640   44.4300   32.3370 C.3    94  LEU94       0.0297
    106  CG        33.8900   43.7510   31.3910 C.3    94  LEU94       0.0022
    107  CD1       33.1810   42.7750   30.4550 C.3    94  LEU94       0.0001
    108  CD2       34.6740   44.7550   30.5510 C.3    94  LEU94       0.0001
    109  N         28.4330   45.1860   35.3120 N.3    97  GLY97      -0.1225
    110  CA        28.1990   43.9370   36.0640 C.3    97  GLY97       0.1811
    111  C         27.6910   42.7630   35.2300 C.2    97  GLY97       0.2280
    112  O         27.8350   42.7570   34.0040 O.2    97  GLY97      -0.2866
    113  N         24.6360   34.5010   34.4400 N.3   142  ARG142     -0.1231
    114  CA        25.4710   34.9060   35.5820 C.3   142  ARG142      0.1694
    115  C         26.9550   34.9910   35.1980 C.2   142  ARG142      0.2592
    116  O         27.7130   35.7230   35.8350 O.2   142  ARG142     -0.2718
    117  CB        25.2870   33.9700   36.7880 C.3   142  ARG142      0.0321
    118  CG        25.7800   32.5680   36.5630 C.3   142  ARG142      0.0489
    119  CD        25.7870   31.7630   37.8540 C.3   142  ARG142      0.2205
    120  NE        25.8350   30.3340   37.5500 N.pl3 142  ARG142     -0.0865
    121  CZ        26.9480   29.6430   37.3160 C.cat 142  ARG142      0.5346
    122  NH1       28.1370   30.2360   37.3620 N.pl3 142  ARG142      0.1354
    123  NH2       26.8700   28.3490   37.0380 N.pl3 142  ARG142      0.1354
    124  N         27.3500   34.2440   34.1550 N.am  143  ASN143     -0.1974
    125  CA        28.7360   34.2160   33.6690 C.3   143  ASN143      0.1688
    126  C         29.0390   35.1670   32.5100 C.2   143  ASN143      0.2292
    127  O         30.1300   35.1290   31.9390 O.2   143  ASN143     -0.2864
    128  CB        29.1140   32.7750   33.2780 C.3   143  ASN143      0.1181
    129  CG        29.3030   31.8960   34.4870 C.2   143  ASN143      0.2629
    130  OD1       29.7640   32.3560   35.5390 O.2   143  ASN143     -0.2716
    131  ND2       28.9330   30.6360   34.3630 N.am  143  ASN143     -0.0877
    132  N         29.0120   39.2330   31.1530 N.3   145  LEU145     -0.1245
    133  CA        29.2200   40.5650   31.7230 C.3   145  LEU145      0.1561
    134  C         28.8250   41.6690   30.7580 C.2   145  LEU145      0.2260
    135  O         28.9200   41.5060   29.5390 O.2   145  LEU145     -0.2867
    136  CB        30.6880   40.7520   32.1120 C.3   145  LEU145      0.0270
    137  CG        31.2120   39.7460   33.1300 C.3   145  LEU145      0.0019
    138  CD1       32.7340   39.8730   33.2410 C.3   145  LEU145      0.0001
    139  CD2       30.5180   39.9120   34.4800 C.3   145  LEU145      0.0001
    140  N         32.4090   36.0210   30.6950 N.3   155  GLY155     -0.1210
    141  CA        33.1740   36.6070   31.8030 C.3   155  GLY155      0.1956
    142  C         33.8380   35.6480   32.7490 C.2   155  GLY155      0.2611
    143  O         34.5760   36.0810   33.6480 O.2   155  GLY155     -0.2717
    144  N         33.5810   34.3490   32.5780 N.am  156  ASP156     -0.1973
    145  CA        34.2080   33.3580   33.4510 C.3   156  ASP156      0.1709
    146  C         34.4680   32.0540   32.7240 C.2   156  ASP156      0.2293
    147  O         33.6510   31.6380   31.8920 O.2   156  ASP156     -0.2864
    148  CB        33.3450   33.0870   34.6800 C.3   156  ASP156      0.1436
    149  CG        34.0880   32.2820   35.7410 C.2   156  ASP156      0.3671
    150  OD1       34.8750   32.8900   36.5090 O.co2 156  ASP156     -0.2456
    151  OD2       33.8960   31.0490   35.7940 O.co2 156  ASP156     -0.2456
@<TRIPOS>BOND
     1    65    66    1
     2    68    67    2
     3    88    86   ar
     4    67    66    1
     5    87    86   ar
     6    66    69    1
     7    86    85    1
     8   135   134    2
     9   107   106    1
    10    69    70    1
    11    69    71    1
    12   108   106    1
    13   140   141    1
    14   134   133    1
    15    85    84    1
    16   132   133    1
    17   106   105    1
    18    84    81    1
    19   133   136    1
    20   141   142    1
    21   147   146    2
    22   127   126    2
    23   136   137    1
    24   105   102    1
    25   126   125    1
    26   144   142   am
    27   144   145    1
    28   146   145    1
    29   142   143    2
    30    81    80    1
    31    81    82    1
    32    80    74   am
    33   102   101    1
    34   102   103    1
    35   137   138    1
    36   137   139    1
    37   128   125    1
    38   128   129    1
    39    92    91    2
    40   145   148    1
    41   125   124    1
    42    82    83    2
    43    82    89   am
    44   101    91   am
    45    91    90    1
    46   112   111    2
    47   103   104    2
    48   124   115   am
    49    77    76    1
    50    77    78    1
    51    74    73    1
    52    74    75    2
    53    89    90    1
    54    73    76    1
    55    73    72    1
    56   131   129   am
    57   113   114    1
    58   129   130    2
    59    78    79    1
    60   148   149    1
    61    90    93    1
    62   115   114    1
    63   115   116    2
    64   111   110    1
    65   109   110    1
    66   114   117    1
    67   149   151   ar
    68   149   150   ar
    69    93    94    1
    70   118   117    1
    71   118   119    1
    72    94    96   ar
    73    94    95   ar
    74    96    98   ar
    75   123   121    1
    76   121   122    1
    77   121   120    2
    78    95    97   ar
    79    55    52    1
    80   120   119    1
    81    98    99   ar
    82    51    52    1
    83    64    63    1
    84    54    53    2
    85    97    99   ar
    86    99   100    1
    87    52    53    1
    88    62    63    1
    89    62    61    1
    90    60    61    1
    91    60    57    1
    92    49    48    1
    93     7     6    1
    94    50    48    1
    95    56    57    1
    96    57    58    1
    97    48    45    1
    98     8     6    1
    99    59    58    2
   100     6     5    1
   101     5     2    1
   102     4     3    2
   103    45    46    1
   104    45    44    1
   105     3     2    1
   106     3     9   am
   107     2     1    1
   108    46    47    2
   109    41    40    2
   110    44    40   am
   111     9    10    1
   112    10    11    1
   113    40    39    1
   114    29    28    2
   115    35    34    1
   116    35    36    1
   117    11    12    2
   118    11    13   am
   119    38    36   am
   120    38    39    1
   121    36    37    2
   122    39    42    1
   123    13    14    1
   124    16    15    2
   125    28    27    1
   126    15    14    1
   127    15    22   am
   128    30    27    1
   129    30    31    1
   130    33    31   am
   131    23    22    1
   132    23    24    1
   133    14    17    1
   134    26    27    1
   135    26    24   am
   136    31    32    2
   137    42    43    1
   138    24    25    2
   139    17    18    1
   140    18    19    1
   141    19    20    1
   142    20    21    1
