@<TRIPOS>MOLECULE
tmp/3e65B02.pdb
 201 201 0 0 0
SMALL
GASTEIGER

@<TRIPOS>ATOM
      1  N        129.4070  104.3080  100.7100 N.3   112  TRP112     -0.1241
      2  CA       129.2480  105.7560  100.7910 C.3   112  TRP112      0.1605
      3  C        130.1600  106.2520  101.9110 C.2   112  TRP112      0.2264
      4  O        130.9370  107.1900  101.7340 O.2   112  TRP112     -0.2867
      5  CB       127.7870  106.1110  101.0720 C.3   112  TRP112      0.0550
      6  CG       127.4930  107.5820  101.1980 C.ar  112  TRP112      0.0003
      7  CD1      128.3300  108.6250  100.9100 C.ar  112  TRP112      0.0946
      8  CD2      126.2710  108.1640  101.6570 C.ar  112  TRP112      0.0152
      9  NE1      127.7050  109.8210  101.1670 N.ar  112  TRP112     -0.2442
     10  CE2      126.4390  109.5660  101.6280 C.ar  112  TRP112      0.0810
     11  CE3      125.0460  107.6370  102.0870 C.ar  112  TRP112      0.0012
     12  CZ2      125.4250  110.4510  102.0190 C.ar  112  TRP112      0.0191
     13  CZ3      124.0340  108.5160  102.4680 C.ar  112  TRP112      0.0001
     14  CH2      124.2340  109.9090  102.4320 C.ar  112  TRP112      0.0015
     15  N        133.7000  112.4070   99.1310 N.3   118  CYS118     -0.1235
     16  CA       132.3760  112.9480   99.5010 C.3   118  CYS118      0.1677
     17  C        132.3700  113.7380  100.7960 C.2   118  CYS118      0.2270
     18  O        132.6160  113.1980  101.8690 O.2   118  CYS118     -0.2867
     19  CB       131.3490  111.8200   99.6120 C.3   118  CYS118      0.0956
     20  SG       129.6900  112.2810  100.0540 S.3   118  CYS118     -0.0801
     21  N        125.9320  111.4780   84.7150 N.3   181  GLN181     -0.1245
     22  CA       124.9920  111.8570   85.7600 C.3   181  GLN181      0.1566
     23  C        123.5750  111.6420   85.2360 C.2   181  GLN181      0.2260
     24  O        123.3610  111.6300   84.0190 O.2   181  GLN181     -0.2867
     25  CB       125.1450  113.3320   86.1450 C.3   181  GLN181      0.0367
     26  CG       126.5060  113.7380   86.7040 C.3   181  GLN181      0.0905
     27  CD       127.5480  113.9790   85.6240 C.2   181  GLN181      0.2608
     28  OE1      127.2210  114.3270   84.4870 O.2   181  GLN181     -0.2717
     29  NE2      128.8100  113.7870   85.9780 N.am  181  GLN181     -0.0878
     30  N        121.7740  116.1790   83.2930 N.3   184  ARG184     -0.1245
     31  CA       122.9070  116.9240   82.7660 C.3   184  ARG184      0.1563
     32  C        122.4500  117.6660   81.5030 C.2   184  ARG184      0.2260
     33  O        121.5700  117.1900   80.7750 O.2   184  ARG184     -0.2867
     34  CB       124.0320  115.9360   82.4370 C.3   184  ARG184      0.0307
     35  CG       125.3770  116.5570   82.1140 C.3   184  ARG184      0.0489
     36  CD       126.0290  117.2300   83.3190 C.3   184  ARG184      0.2205
     37  NE       127.1550  118.0620   82.8840 N.pl3 184  ARG184     -0.0865
     38  CZ       128.3870  117.6130   82.6940 C.cat 184  ARG184      0.5346
     39  NH1      128.6740  116.3330   82.8960 N.pl3 184  ARG184      0.1354
     40  NH2      129.3280  118.4300   82.2440 N.pl3 184  ARG184      0.1354
     41  N        131.2260  121.0160   78.2610 N.3   200  ALA200     -0.1245
     42  CA       131.8210  119.7690   78.7290 C.3   200  ALA200      0.1562
     43  C        131.0970  118.5120   78.2310 C.2   200  ALA200      0.2260
     44  O        131.6560  117.4160   78.2880 O.2   200  ALA200     -0.2867
     45  CB       131.9130  119.7620   80.2560 C.3   200  ALA200      0.0290
     46  N        119.5090  125.8360   86.7450 N.3   264  TRP264     -0.1227
     47  CA       120.2080  124.5780   86.9650 C.3   264  TRP264      0.1737
     48  C        119.2430  123.5590   87.5610 C.2   264  TRP264      0.2595
     49  O        118.2030  123.9270   88.1120 O.2   264  TRP264     -0.2718
     50  CB       121.4330  124.7640   87.8840 C.3   264  TRP264      0.0564
     51  CG       122.4980  123.7230   87.6470 C.ar  264  TRP264      0.0003
     52  CD1      122.7270  122.5950   88.3830 C.ar  264  TRP264      0.0946
     53  CD2      123.4020  123.6660   86.5370 C.ar  264  TRP264      0.0152
     54  NE1      123.7030  121.8270   87.7850 N.ar  264  TRP264     -0.2442
     55  CE2      124.1320  122.4610   86.6510 C.ar  264  TRP264      0.0810
     56  CE3      123.6570  124.5120   85.4490 C.ar  264  TRP264      0.0012
     57  CZ2      125.0980  122.0800   85.7190 C.ar  264  TRP264      0.0191
     58  CZ3      124.6180  124.1310   84.5190 C.ar  264  TRP264      0.0001
     59  CH2      125.3260  122.9240   84.6630 C.ar  264  TRP264      0.0015
     60  N        119.5700  122.2810   87.4140 N.am  265  TYR265     -0.1976
     61  CA       118.7340  121.2120   87.9550 C.3   265  TYR265      0.1639
     62  C        118.9510  121.0280   89.4550 C.2   265  TYR265      0.2290
     63  O        120.0360  121.2800   89.9740 O.2   265  TYR265     -0.2864
     64  CB       118.9670  119.8930   87.2130 C.3   265  TYR265      0.0560
     65  CG       120.4130  119.5690   86.8970 C.ar  265  TYR265     -0.0198
     66  CD1      121.0150  120.0610   85.7390 C.ar  265  TYR265     -0.0009
     67  CD2      121.1770  118.7590   87.7430 C.ar  265  TYR265     -0.0009
     68  CE1      122.3350  119.7590   85.4280 C.ar  265  TYR265      0.0417
     69  CE2      122.5120  118.4500   87.4330 C.ar  265  TYR265      0.0417
     70  CZ       123.0790  118.9550   86.2730 C.ar  265  TYR265      0.1957
     71  OH       124.3830  118.6620   85.9370 O.3   265  TYR265     -0.2866
     72  N        121.3920  116.2560   91.9550 N.3   268  PRO268     -0.2102
     73  CA       122.7780  115.8990   91.6480 C.3   268  PRO268      0.1504
     74  C        122.9420  114.3810   91.8120 C.2   268  PRO268      0.2576
     75  O        123.0070  113.8640   92.9290 O.2   268  PRO268     -0.2718
     76  CB       123.5630  116.6960   92.6920 C.3   268  PRO268      0.0282
     77  CG       122.6750  116.6550   93.8930 C.3   268  PRO268      0.0208
     78  CD       121.2500  116.7300   93.3460 C.3   268  PRO268      0.0893
     79  N        123.0080  113.6620   90.6970 N.am  269  ALA269     -0.1966
     80  CA       123.1090  112.2070   90.7730 C.3   269  ALA269      0.1728
     81  C        124.1610  111.5910   89.8800 C.2   269  ALA269      0.2616
     82  O        124.1510  111.8100   88.6710 O.2   269  ALA269     -0.2715
     83  CB       121.7600  111.5970   90.4620 C.3   269  ALA269      0.0334
     84  N        125.0610  110.7970   90.4740 N.am  270  VAL270     -0.1977
     85  CA       126.1130  110.1220   89.7060 C.3   270  VAL270      0.1596
     86  C        125.5230  108.8270   89.1500 C.2   270  VAL270      0.2287
     87  O        124.8850  108.0590   89.8710 O.2   270  VAL270     -0.2864
     88  CB       127.3720  109.8280   90.5760 C.3   270  VAL270      0.0276
     89  CG1      128.3100  108.8350   89.8690 C.3   270  VAL270      0.0022
     90  CG2      128.1150  111.1440   90.8630 C.3   270  VAL270      0.0022
     91  N        123.3240  106.9170   92.0870 N.3   287  PHE287     -0.1227
     92  CA       123.0170  107.4130   93.4230 C.3   287  PHE287      0.1736
     93  C        123.0410  108.9240   93.4190 C.2   287  PHE287      0.2595
     94  O        123.6500  109.5470   92.5480 O.2   287  PHE287     -0.2718
     95  CB       123.9980  106.8580   94.4750 C.3   287  PHE287      0.0547
     96  CG       125.4580  106.9410   94.0760 C.ar  287  PHE287     -0.0202
     97  CD1      126.1750  108.1330   94.2070 C.ar  287  PHE287     -0.0042
     98  CD2      126.1230  105.8210   93.5740 C.ar  287  PHE287     -0.0042
     99  CE1      127.5290  108.2100   93.8440 C.ar  287  PHE287     -0.0003
    100  CE2      127.4890  105.8930   93.2060 C.ar  287  PHE287     -0.0003
    101  CZ       128.1820  107.0830   93.3430 C.ar  287  PHE287     -0.0000
    102  N        122.3890  109.5120   94.4080 N.am  288  ASN288     -0.1960
    103  CA       122.3420  110.9530   94.5070 C.3   288  ASN288      0.1819
    104  C        122.2840  111.3990   95.9540 C.2   288  ASN288      0.2622
    105  O        121.8920  110.6330   96.8380 O.2   288  ASN288     -0.2715
    106  CB       121.0700  111.4660   93.8420 C.3   288  ASN288      0.1195
    107  CG       119.8390  111.2310   94.6960 C.2   288  ASN288      0.2630
    108  OD1      119.2500  110.1530   94.6790 O.2   288  ASN288     -0.2716
    109  ND2      119.4930  112.2150   95.5160 N.am  288  ASN288     -0.0877
    110  N        122.5530  112.6850   96.1310 N.am  289  GLY289     -0.1940
    111  CA       122.4980  113.3610   97.4160 C.3   289  GLY289      0.2014
    112  C        121.9010  114.7110   97.0550 C.2   289  GLY289      0.2639
    113  O        120.9640  114.7690   96.2540 O.2   289  GLY289     -0.2714
    114  N        122.4130  115.7970   97.6450 N.am  290  TRP290     -0.1959
    115  CA       121.9430  117.1410   97.3100 C.3   290  TRP290      0.1771
    116  C        123.1340  118.0380   96.9710 C.2   290  TRP290      0.2619
    117  O        124.2990  117.6630   97.1630 O.2   290  TRP290     -0.2715
    118  CB       121.0330  117.7640   98.3840 C.3   290  TRP290      0.0590
    119  CG       121.5840  117.8420   99.7770 C.ar  290  TRP290      0.0006
    120  CD1      122.5320  118.7050  100.2390 C.ar  290  TRP290      0.0946
    121  CD2      121.1510  117.0800  100.9040 C.ar  290  TRP290      0.0152
    122  NE1      122.7110  118.5310  101.5940 N.ar  290  TRP290     -0.2442
    123  CE2      121.8760  117.5370  102.0250 C.ar  290  TRP290      0.0810
    124  CE3      120.2130  116.0510  101.0760 C.ar  290  TRP290      0.0012
    125  CZ2      121.6990  117.0020  103.3000 C.ar  290  TRP290      0.0191
    126  CZ3      120.0330  115.5180  102.3470 C.ar  290  TRP290      0.0001
    127  CH2      120.7750  115.9960  103.4410 C.ar  290  TRP290      0.0015
    128  N        122.8370  119.1880   96.3920 N.am  291  TYR291     -0.1974
    129  CA       123.8680  120.1180   95.9660 C.3   291  TYR291      0.1639
    130  C        124.5420  120.9720   97.0410 C.2   291  TYR291      0.2290
    131  O        123.9810  121.2540   98.1040 O.2   291  TYR291     -0.2864
    132  CB       123.2930  121.0580   94.8870 C.3   291  TYR291      0.0560
    133  CG       123.6110  120.6650   93.4500 C.ar  291  TYR291     -0.0198
    134  CD1      124.9230  120.6640   92.9880 C.ar  291  TYR291     -0.0009
    135  CD2      122.6020  120.2800   92.5590 C.ar  291  TYR291     -0.0009
    136  CE1      125.2340  120.2900   91.6840 C.ar  291  TYR291      0.0417
    137  CE2      122.9070  119.8970   91.2380 C.ar  291  TYR291      0.0417
    138  CZ       124.2250  119.9020   90.8150 C.ar  291  TYR291      0.1957
    139  OH       124.5590  119.4640   89.5550 O.3   291  TYR291     -0.2866
    140  N        129.2880  124.0490   93.6800 N.3   295  GLU295     -0.1245
    141  CA       129.3280  123.1610   92.5240 C.3   295  GLU295      0.1567
    142  C        128.7270  123.8630   91.3110 C.2   295  GLU295      0.2260
    143  O        129.2800  123.8030   90.2090 O.2   295  GLU295     -0.2867
    144  CB       128.5570  121.8770   92.8020 C.3   295  GLU295      0.0388
    145  CG       129.0580  121.0470   93.9630 C.3   295  GLU295      0.1160
    146  CD       128.2900  119.7560   94.0360 C.2   295  GLU295      0.3649
    147  OE1      128.5380  118.8790   93.1850 O.co2 295  GLU295     -0.2457
    148  OE2      127.4000  119.6310   94.9050 O.co2 295  GLU295     -0.2457
    149  N        131.9120  125.9020   89.8000 N.3   299  ARG299     -0.1231
    150  CA       132.3300  124.9740   88.7510 C.3   299  ARG299      0.1694
    151  C        131.4770  125.0500   87.4810 C.2   299  ARG299      0.2592
    152  O        131.9950  125.3560   86.4100 O.2   299  ARG299     -0.2718
    153  CB       132.3610  123.5310   89.2750 C.3   299  ARG299      0.0321
    154  CG       133.1700  123.3090   90.5770 C.3   299  ARG299      0.0489
    155  CD       134.5980  123.8590   90.5170 C.3   299  ARG299      0.2205
    156  NE       135.3320  123.3820   89.3430 N.pl3 299  ARG299     -0.0865
    157  CZ       135.8170  122.1550   89.1930 C.cat 299  ARG299      0.5346
    158  NH1      135.6610  121.2410   90.1460 N.pl3 299  ARG299      0.1354
    159  NH2      136.3390  121.7940   88.0250 N.pl3 299  ARG299      0.1354
    160  N        130.1790  124.7870   87.6030 N.am  300  ASP300     -0.1974
    161  CA       129.2920  124.8160   86.4440 C.3   300  ASP300      0.1709
    162  C        129.2430  126.1710   85.7690 C.2   300  ASP300      0.2293
    163  O        129.3490  126.2620   84.5470 O.2   300  ASP300     -0.2864
    164  CB       127.8770  124.4060   86.8340 C.3   300  ASP300      0.1436
    165  CG       127.8150  123.0250   87.4270 C.2   300  ASP300      0.3671
    166  OD1      128.6080  122.1460   87.0160 O.co2 300  ASP300     -0.2456
    167  OD2      126.9620  122.8150   88.3110 O.co2 300  ASP300     -0.2456
    168  N        135.8440  126.0250   80.8110 N.3   305  GLN305     -0.1231
    169  CA       135.3990  124.9800   79.8940 C.3   305  GLN305      0.1698
    170  C        133.9160  124.5980   80.0960 C.2   305  GLN305      0.2592
    171  O        133.4460  123.5960   79.5540 O.2   305  GLN305     -0.2718
    172  CB       136.3000  123.7440   80.0480 C.3   305  GLN305      0.0381
    173  CG       136.0700  122.9130   81.3340 C.3   305  GLN305      0.0905
    174  CD       136.6730  123.4860   82.6390 C.2   305  GLN305      0.2608
    175  OE1      137.2730  124.5670   82.6700 O.2   305  GLN305     -0.2717
    176  NE2      136.5140  122.7260   83.7230 N.am  305  GLN305     -0.0878
    177  N        133.1880  125.3880   80.8900 N.am  306  ARG306     -0.1980
    178  CA       131.7710  125.1270   81.1590 C.3   306  ARG306      0.1597
    179  C        130.9330  126.3130   80.6610 C.2   306  ARG306      0.2287
    180  O        131.0920  126.7390   79.5160 O.2   306  ARG306     -0.2864
    181  CB       131.5470  124.8790   82.6620 C.3   306  ARG306      0.0334
    182  CG       132.3400  123.6910   83.2650 C.3   306  ARG306      0.0492
    183  CD       131.9390  122.3160   82.6860 C.3   306  ARG306      0.2205
    184  NE       130.5120  122.0610   82.8720 N.pl3 306  ARG306     -0.0865
    185  CZ       129.9300  121.8960   84.0530 C.cat 306  ARG306      0.5346
    186  NH1      130.6470  121.9540   85.1730 N.pl3 306  ARG306      0.1354
    187  NH2      128.6080  121.8580   84.1360 N.pl3 306  ARG306      0.1354
    188  N        139.6880  116.9990   97.0620 N.3   381  TRP381     -0.1241
    189  CA       138.2790  117.0810   96.7150 C.3   381  TRP381      0.1605
    190  C        137.4030  117.6750   97.8150 C.2   381  TRP381      0.2264
    191  O        136.3890  118.3040   97.5160 O.2   381  TRP381     -0.2867
    192  CB       137.7470  115.7050   96.3210 C.3   381  TRP381      0.0550
    193  CG       137.9650  115.3910   94.8870 C.ar  381  TRP381      0.0003
    194  CD1      139.1510  115.3630   94.2220 C.ar  381  TRP381      0.0946
    195  CD2      136.9520  115.0880   93.9260 C.ar  381  TRP381      0.0152
    196  NE1      138.9420  115.0640   92.8940 N.ar  381  TRP381     -0.2442
    197  CE2      137.5970  114.8890   92.6890 C.ar  381  TRP381      0.0810
    198  CE3      135.5590  114.9670   93.9930 C.ar  381  TRP381      0.0012
    199  CZ2      136.8970  114.5750   91.5230 C.ar  381  TRP381      0.0191
    200  CZ3      134.8600  114.6550   92.8360 C.ar  381  TRP381      0.0001
    201  CH2      135.5320  114.4630   91.6160 C.ar  381  TRP381      0.0015
@<TRIPOS>BOND
     1    43    44    2
     2    43    42    1
     3    41    42    1
     4    42    45    1
     5   180   179    2
     6   171   170    2
     7   169   172    1
     8   169   170    1
     9   169   168    1
    10   172   173    1
    11   170   177   am
    12   179   178    1
    13    33    32    2
    14   177   178    1
    15   178   181    1
    16   173   174    1
    17    32    31    1
    18    35    34    1
    19    35    36    1
    20    40    38    1
    21    34    31    1
    22   174   175    2
    23   174   176   am
    24   181   182    1
    25   183   184    1
    26   183   182    1
    27    38    37    2
    28    38    39    1
    29    31    30    1
    30   184   185    2
    31    37    36    1
    32    24    23    2
    33   185   187    1
    34   185   186    1
    35    28    27    2
    36    58    59   ar
    37    58    56   ar
    38   163   162    2
    39    59    57   ar
    40    21    22    1
    41    23    22    1
    42    68    66   ar
    43    68    70   ar
    44    56    53   ar
    45    27    29   am
    46    27    26    1
    47    57    55   ar
    48    66    65   ar
    49    22    25    1
    50   162   161    1
    51    71    70    1
    52    25    26    1
    53    70    69   ar
    54   152   151    2
    55   161   164    1
    56   161   160    1
    57    53    55   ar
    58    53    51   ar
    59    55    54   ar
    60    46    47    1
    61   164   165    1
    62    65    64    1
    63    65    67   ar
    64    47    48    1
    65    47    50    1
    66   166   165   ar
    67    64    61    1
    68    60    48   am
    69    60    61    1
    70   165   167   ar
    71    69    67   ar
    72   151   160   am
    73   151   150    1
    74    48    49    2
    75    51    50    1
    76    51    52   ar
    77    54    52   ar
    78    61    62    1
    79   159   157    1
    80    82    81    2
    81   150   153    1
    82   150   149    1
    83    86    85    1
    84    86    87    2
    85   157   156    2
    86   157   158    1
    87   153   154    1
    88   156   155    1
    89    62    63    2
    90   139   138    1
    91    85    84    1
    92    85    88    1
    93    89    88    1
    94    81    84   am
    95    81    80    1
    96   143   142    2
    97    83    80    1
    98   155   154    1
    99    88    90    1
   100    79    80    1
   101    79    74   am
   102   138   137   ar
   103   138   136   ar
   104   137   135   ar
   105   142   141    1
   106   199   201   ar
   107   199   197   ar
   108   201   200   ar
   109    73    74    1
   110    73    72    1
   111    73    76    1
   112   136   134   ar
   113    74    75    2
   114    72    78    1
   115    91    92    1
   116   141   144    1
   117   141   140    1
   118    94    93    2
   119   135   133   ar
   120   197   196   ar
   121   197   195   ar
   122    76    77    1
   123   144   145    1
   124   200   198   ar
   125   196   194   ar
   126   134   133   ar
   127   147   146   ar
   128   100   101   ar
   129   100    98   ar
   130   101    99   ar
   131    78    77    1
   132    93    92    1
   133    93   102   am
   134    92    95    1
   135   133   132    1
   136    98    96   ar
   137   106   103    1
   138   106   107    1
   139    99    97   ar
   140   195   198   ar
   141   195   193   ar
   142   145   146    1
   143   146   148   ar
   144    96    97   ar
   145    96    95    1
   146   194   193   ar
   147   102   103    1
   148   103   104    1
   149   108   107    2
   150   107   109   am
   151   193   192    1
   152   132   129    1
   153   104   110   am
   154   104   105    2
   155   129   128    1
   156   129   130    1
   157   110   111    1
   158   113   112    2
   159   192   189    1
   160   128   116   am
   161   189   188    1
   162   189   190    1
   163   116   117    2
   164   116   115    1
   165   130   131    2
   166   112   111    1
   167   112   114   am
   168   115   114    1
   169   115   118    1
   170   191   190    2
   171   118   119    1
   172    15    16    1
   173    16    19    1
   174    16    17    1
   175    19    20    1
   176   119   120   ar
   177   119   121   ar
   178   120   122   ar
   179     1     2    1
   180     2     5    1
   181     2     3    1
   182    17    18    2
   183   121   124   ar
   184   121   123   ar
   185     7     9   ar
   186     7     6   ar
   187     5     6    1
   188   124   126   ar
   189     9    10   ar
   190     6     8   ar
   191   122   123   ar
   192    10     8   ar
   193    10    12   ar
   194     8    11   ar
   195     4     3    2
   196    12    14   ar
   197   123   125   ar
   198    11    13   ar
   199   126   127   ar
   200    14    13   ar
   201   125   127   ar
