@<TRIPOS>MOLECULE
tmp/3e67B02.pdb
 86 86 0 0 0
SMALL
GASTEIGER

@<TRIPOS>ATOM
      1  N        133.9180  112.2790   97.9670 N.3   110  CYS110     -0.1235
      2  CA       132.6390  112.8850   98.3380 C.3   110  CYS110      0.1677
      3  C        132.7600  113.7140   99.6030 C.2   110  CYS110      0.2270
      4  O        133.4040  113.3030  100.5640 O.2   110  CYS110     -0.2867
      5  CB       131.5430  111.8300   98.5150 C.3   110  CYS110      0.0956
      6  SG       129.8990  112.5220   98.7440 S.3   110  CYS110     -0.0801
      7  N        121.7530  116.0040   90.9740 N.3   260  PRO260     -0.2116
      8  CA       123.1160  115.5380   90.7210 C.3   260  PRO260      0.1372
      9  C        123.1010  114.0070   90.8340 C.2   260  PRO260      0.2244
     10  O        123.1080  113.4430   91.9180 O.2   260  PRO260     -0.2868
     11  CB       123.9040  116.2090   91.8380 C.3   260  PRO260      0.0268
     12  CG       122.9420  116.1950   92.9760 C.3   260  PRO260      0.0207
     13  CD       121.6110  116.5300   92.3470 C.3   260  PRO260      0.0892
     14  N        125.0320  110.6470   89.5070 N.3   262  VAL262     -0.1245
     15  CA       126.1330  109.9690   88.8300 C.3   262  VAL262      0.1561
     16  C        125.5480  108.7580   88.1480 C.2   262  VAL262      0.2260
     17  O        124.8250  107.9810   88.7720 O.2   262  VAL262     -0.2867
     18  CB       127.1990  109.5470   89.8320 C.3   262  VAL262      0.0252
     19  CG1      128.2390  108.6400   89.1800 C.3   262  VAL262      0.0019
     20  CG2      127.8590  110.7880   90.3880 C.3   262  VAL262      0.0019
     21  N        123.3900  106.8360   91.1490 N.3   279  PHE279     -0.1227
     22  CA       123.1260  107.3790   92.4660 C.3   279  PHE279      0.1736
     23  C        123.1260  108.9160   92.4950 C.2   279  PHE279      0.2595
     24  O        123.7390  109.5820   91.6440 O.2   279  PHE279     -0.2718
     25  CB       124.0990  106.7900   93.5010 C.3   279  PHE279      0.0547
     26  CG       125.5560  107.0310   93.1990 C.ar  279  PHE279     -0.0202
     27  CD1      126.1120  108.2950   93.3570 C.ar  279  PHE279     -0.0042
     28  CD2      126.3710  105.9910   92.7690 C.ar  279  PHE279     -0.0042
     29  CE1      127.4380  108.5300   93.0980 C.ar  279  PHE279     -0.0003
     30  CE2      127.7350  106.2170   92.4980 C.ar  279  PHE279     -0.0003
     31  CZ       128.2630  107.4920   92.6650 C.ar  279  PHE279     -0.0000
     32  N        122.4490  109.4820   93.4840 N.am  280  ASN280     -0.1960
     33  CA       122.3730  110.9280   93.5780 C.3   280  ASN280      0.1819
     34  C        122.2650  111.4420   95.0080 C.2   280  ASN280      0.2622
     35  O        121.8240  110.7410   95.9190 O.2   280  ASN280     -0.2715
     36  CB       121.1360  111.4040   92.8350 C.3   280  ASN280      0.1195
     37  CG       119.8820  111.2300   93.6640 C.2   280  ASN280      0.2630
     38  OD1      119.3120  110.1440   93.7190 O.2   280  ASN280     -0.2716
     39  ND2      119.5080  112.2740   94.3980 N.am  280  ASN280     -0.0877
     40  N        122.5710  112.7220   95.1490 N.am  281  GLY281     -0.1940
     41  CA       122.4710  113.3860   96.4300 C.3   281  GLY281      0.2014
     42  C        121.8910  114.7390   96.0830 C.2   281  GLY281      0.2639
     43  O        120.9810  114.8220   95.2630 O.2   281  GLY281     -0.2714
     44  N        122.3830  115.7940   96.7180 N.am  282  TRP282     -0.1959
     45  CA       121.9420  117.1420   96.4060 C.3   282  TRP282      0.1771
     46  C        123.1800  117.9570   96.1300 C.2   282  TRP282      0.2620
     47  O        124.2690  117.6170   96.5870 O.2   282  TRP282     -0.2715
     48  CB       121.1040  117.7680   97.5170 C.3   282  TRP282      0.0590
     49  CG       121.6920  117.7260   98.8820 C.ar  282  TRP282      0.0006
     50  CD1      122.6720  118.5320   99.3860 C.ar  282  TRP282      0.0946
     51  CD2      121.2730  116.8900   99.9570 C.ar  282  TRP282      0.0152
     52  NE1      122.8830  118.2590  100.7120 N.ar  282  TRP282     -0.2442
     53  CE2      122.0300  117.2560  101.0920 C.ar  282  TRP282      0.0810
     54  CE3      120.3250  115.8680  100.0770 C.ar  282  TRP282      0.0012
     55  CZ2      121.8640  116.6360  102.3360 C.ar  282  TRP282      0.0191
     56  CZ3      120.1620  115.2440  101.3210 C.ar  282  TRP282      0.0001
     57  CH2      120.9280  115.6340  102.4300 C.ar  282  TRP282      0.0015
     58  N        123.0120  119.0190   95.3570 N.am  283  TYR283     -0.1960
     59  CA       124.1190  119.8840   94.9720 C.3   283  TYR283      0.1771
     60  C        124.7700  120.7100   96.0860 C.2   283  TYR283      0.2619
     61  O        124.1850  120.9390   97.1530 O.2   283  TYR283     -0.2715
     62  CB       123.6540  120.8440   93.8630 C.3   283  TYR283      0.0574
     63  CG       123.9710  120.4010   92.4550 C.ar  283  TYR283     -0.0198
     64  CD1      125.2880  120.3360   92.0060 C.ar  283  TYR283     -0.0009
     65  CD2      122.9550  120.0680   91.5610 C.ar  283  TYR283     -0.0009
     66  CE1      125.5880  119.9470   90.6960 C.ar  283  TYR283      0.0417
     67  CE2      123.2410  119.6850   90.2520 C.ar  283  TYR283      0.0417
     68  CZ       124.5550  119.6240   89.8320 C.ar  283  TYR283      0.1957
     69  OH       124.8280  119.2100   88.5560 O.3   283  TYR283     -0.2866
     70  N        126.0110  121.1110   95.8270 N.am  284  MET284     -0.1977
     71  CA       126.7640  121.9850   96.7150 C.3   284  MET284      0.1605
     72  C        126.9590  123.2000   95.8250 C.2   284  MET284      0.2287
     73  O        127.4270  123.0610   94.6810 O.2   284  MET284     -0.2864
     74  CB       128.1250  121.3990   97.1180 C.3   284  MET284      0.0413
     75  CG       128.9960  122.4000   97.9040 C.3   284  MET284      0.0598
     76  SD       130.4640  121.7150   98.7300 S.3   284  MET284     -0.1393
     77  CE       131.5960  121.7750   97.3890 C.3   284  MET284      0.0692
     78  N        129.4530  123.7660   92.9740 N.3   287  GLU287     -0.1245
     79  CA       129.4390  122.7820   91.8930 C.3   287  GLU287      0.1567
     80  C        128.8950  123.4480   90.6330 C.2   287  GLU287      0.2260
     81  O        129.5530  123.4740   89.5890 O.2   287  GLU287     -0.2867
     82  CB       128.5800  121.5780   92.2740 C.3   287  GLU287      0.0388
     83  CG       129.1950  120.5960   93.2660 C.3   287  GLU287      0.1160
     84  CD       128.4370  119.2690   93.2670 C.2   287  GLU287      0.3649
     85  OE1      128.7220  118.4140   92.4000 O.co2 287  GLU287     -0.2457
     86  OE2      127.5220  119.1020   94.0990 O.co2 287  GLU287     -0.2457
@<TRIPOS>BOND
     1    16    17    2
     2    16    15    1
     3    69    68    1
     4    15    14    1
     5    15    18    1
     6    19    18    1
     7    81    80    2
     8    68    67   ar
     9    68    66   ar
    10    18    20    1
    11    67    65   ar
    12    80    79    1
    13    66    64   ar
    14     8     9    1
    15     8     7    1
    16     8    11    1
    17     9    10    2
    18     7    13    1
    19    21    22    1
    20    65    63   ar
    21    24    23    2
    22    11    12    1
    23    79    82    1
    24    79    78    1
    25    64    63   ar
    26    82    83    1
    27    13    12    1
    28    85    84   ar
    29    63    62    1
    30    22    23    1
    31    22    25    1
    32    23    32   am
    33    30    31   ar
    34    30    28   ar
    35    31    29   ar
    36    28    26   ar
    37    36    33    1
    38    36    37    1
    39    29    27   ar
    40    26    27   ar
    41    26    25    1
    42    83    84    1
    43    84    86   ar
    44    32    33    1
    45    33    34    1
    46    37    38    2
    47    37    39   am
    48    62    59    1
    49    73    72    2
    50    59    58    1
    51    59    60    1
    52    34    40   am
    53    34    35    2
    54    40    41    1
    55    43    42    2
    56    58    46   am
    57    72    71    1
    58    70    60   am
    59    70    71    1
    60    42    41    1
    61    42    44   am
    62    60    61    2
    63    46    45    1
    64    46    47    2
    65    45    44    1
    66    45    48    1
    67    71    74    1
    68    74    75    1
    69    77    76    1
    70    48    49    1
    71    75    76    1
    72     1     2    1
    73     2     5    1
    74     2     3    1
    75     5     6    1
    76    49    50   ar
    77    49    51   ar
    78    50    52   ar
    79     3     4    2
    80    51    54   ar
    81    51    53   ar
    82    54    56   ar
    83    52    53   ar
    84    53    55   ar
    85    56    57   ar
    86    55    57   ar
