@<TRIPOS>MOLECULE
tmp/3e68B01.pdb
 170 167 0 0 0
SMALL
GASTEIGER

@<TRIPOS>ATOM
      1  N        133.8040  112.1550   97.9540 N.3   109  CYS109     -0.1235
      2  CA       132.5040  112.7290   98.2850 C.3   109  CYS109      0.1677
      3  C        132.5420  113.5350   99.5780 C.2   109  CYS109      0.2270
      4  O        132.9190  113.0120  100.6250 O.2   109  CYS109     -0.2867
      5  CB       131.4600  111.6230   98.4090 C.3   109  CYS109      0.0956
      6  SG       129.8390  112.2140   98.9210 S.3   109  CYS109     -0.0801
      7  N        125.9100  111.3020   83.8200 N.3   172  GLN172     -0.1245
      8  CA       124.9670  111.5000   84.9040 C.3   172  GLN172      0.1566
      9  C        123.5740  111.3790   84.3200 C.2   172  GLN172      0.2260
     10  O        123.3970  111.4340   83.1040 O.2   172  GLN172     -0.2867
     11  CB       125.1650  112.8670   85.5780 C.3   172  GLN172      0.0367
     12  CG       125.8470  113.9070   84.7190 C.3   172  GLN172      0.0905
     13  CD       127.3500  113.6990   84.6040 C.2   172  GLN172      0.2608
     14  OE1      127.9730  114.1440   83.6370 O.2   172  GLN172     -0.2717
     15  NE2      127.9410  113.0350   85.5960 N.am  172  GLN172     -0.0878
     16  N        121.6580  115.9340   82.3240 N.3   175  ARG175     -0.1245
     17  CA       122.7850  116.7160   81.8440 C.3   175  ARG175      0.1563
     18  C        122.3560  117.4130   80.5400 C.2   175  ARG175      0.2260
     19  O        121.5080  116.8950   79.8130 O.2   175  ARG175     -0.2867
     20  CB       123.9480  115.7520   81.6180 C.3   175  ARG175      0.0307
     21  CG       125.2900  116.3770   81.3720 C.3   175  ARG175      0.0489
     22  CD       125.8830  117.0530   82.5960 C.3   175  ARG175      0.2205
     23  NE       127.0690  117.7940   82.1870 N.pl3 175  ARG175     -0.0865
     24  CZ       128.2140  117.2210   81.8210 C.cat 175  ARG175      0.5346
     25  NH1      128.3280  115.8980   81.8370 N.pl3 175  ARG175      0.1354
     26  NH2      129.2310  117.9620   81.3830 N.pl3 175  ARG175      0.1354
     27  N        131.0810  120.6680   77.2940 N.3   191  ALA191     -0.1245
     28  CA       131.6450  119.4210   77.8180 C.3   191  ALA191      0.1562
     29  C        130.9390  118.1540   77.3350 C.2   191  ALA191      0.2260
     30  O        131.4690  117.0530   77.4770 O.2   191  ALA191     -0.2867
     31  CB       131.6490  119.4530   79.3370 C.3   191  ALA191      0.0290
     32  N        119.5210  122.1120   86.2670 N.3   256  TYR256     -0.1241
     33  CA       118.6730  121.0340   86.7630 C.3   256  TYR256      0.1605
     34  C        118.9240  120.8580   88.2700 C.2   256  TYR256      0.2264
     35  O        120.0190  121.1160   88.7760 O.2   256  TYR256     -0.2867
     36  CB       118.9270  119.7300   85.9860 C.3   256  TYR256      0.0534
     37  CG       120.3810  119.3640   85.7610 C.ar  256  TYR256     -0.0201
     38  CD1      121.1220  119.9290   84.7180 C.ar  256  TYR256     -0.0009
     39  CD2      121.0160  118.4450   86.5910 C.ar  256  TYR256     -0.0009
     40  CE1      122.4680  119.5790   84.5160 C.ar  256  TYR256      0.0417
     41  CE2      122.3570  118.0920   86.3970 C.ar  256  TYR256      0.0417
     42  CZ       123.0700  118.6590   85.3660 C.ar  256  TYR256      0.1957
     43  OH       124.3830  118.3020   85.2180 O.3   256  TYR256     -0.2866
     44  N        121.5300  116.0440   90.9340 N.3   259  PRO259     -0.2102
     45  CA       122.8900  115.6140   90.5920 C.3   259  PRO259      0.1504
     46  C        122.9020  114.0920   90.8010 C.2   259  PRO259      0.2576
     47  O        122.7660  113.6130   91.9270 O.2   259  PRO259     -0.2718
     48  CB       123.7420  116.3640   91.6030 C.3   259  PRO259      0.0282
     49  CG       122.8970  116.3220   92.8200 C.3   259  PRO259      0.0208
     50  CD       121.4870  116.5750   92.3100 C.3   259  PRO259      0.0893
     51  N        123.0230  113.3360   89.7110 N.am  260  ALA260     -0.1966
     52  CA       123.0010  111.8770   89.7860 C.3   260  ALA260      0.1728
     53  C        124.0250  111.2370   88.8640 C.2   260  ALA260      0.2616
     54  O        124.0020  111.4740   87.6570 O.2   260  ALA260     -0.2715
     55  CB       121.6100  111.3680   89.4330 C.3   260  ALA260      0.0334
     56  N        124.9150  110.4270   89.4420 N.am  261  VAL261     -0.1977
     57  CA       125.9580  109.7210   88.6860 C.3   261  VAL261      0.1596
     58  C        125.3270  108.5210   87.9870 C.2   261  VAL261      0.2287
     59  O        124.5940  107.7520   88.6050 O.2   261  VAL261     -0.2864
     60  CB       127.0860  109.2090   89.6170 C.3   261  VAL261      0.0276
     61  CG1      128.1670  108.4980   88.7960 C.3   261  VAL261      0.0022
     62  CG2      127.6840  110.3680   90.4000 C.3   261  VAL261      0.0022
     63  N        123.2120  106.7710   91.0510 N.3   278  PHE278     -0.1227
     64  CA       122.8830  107.2680   92.3790 C.3   278  PHE278      0.1736
     65  C        122.8840  108.7940   92.4040 C.2   278  PHE278      0.2595
     66  O        123.4490  109.4470   91.5180 O.2   278  PHE278     -0.2718
     67  CB       123.8580  106.6990   93.4190 C.3   278  PHE278      0.0547
     68  CG       125.3140  106.8830   93.0700 C.ar  278  PHE278     -0.0202
     69  CD1      125.9570  108.0940   93.3060 C.ar  278  PHE278     -0.0042
     70  CD2      126.0520  105.8260   92.5330 C.ar  278  PHE278     -0.0042
     71  CE1      127.3080  108.2490   93.0200 C.ar  278  PHE278     -0.0003
     72  CE2      127.4080  105.9710   92.2420 C.ar  278  PHE278     -0.0003
     73  CZ       128.0370  107.1850   92.4880 C.ar  278  PHE278     -0.0000
     74  N        122.2430  109.3630   93.4160 N.am  279  ASN279     -0.1960
     75  CA       122.1770  110.8090   93.5190 C.3   279  ASN279      0.1819
     76  C        122.0590  111.3190   94.9450 C.2   279  ASN279      0.2622
     77  O        121.6050  110.6170   95.8500 O.2   279  ASN279     -0.2715
     78  CB       120.9560  111.3280   92.7850 C.3   279  ASN279      0.1195
     79  CG       119.6920  111.1720   93.6130 C.2   279  ASN279      0.2630
     80  OD1      119.1130  110.0960   93.6810 O.2   279  ASN279     -0.2716
     81  ND2      119.2790  112.2420   94.2740 N.am  279  ASN279     -0.0877
     82  N        122.4400  112.5780   95.1040 N.am  280  GLY280     -0.1940
     83  CA       122.3290  113.2630   96.3740 C.3   280  GLY280      0.2014
     84  C        121.7290  114.6070   95.9960 C.2   280  GLY280      0.2639
     85  O        120.8780  114.6760   95.1060 O.2   280  GLY280     -0.2714
     86  N        122.1460  115.6760   96.6620 N.am  281  TRP281     -0.1959
     87  CA       121.6600  116.9940   96.3020 C.3   281  TRP281      0.1771
     88  C        122.8930  117.8300   96.0430 C.2   281  TRP281      0.2620
     89  O        123.9970  117.4480   96.4300 O.2   281  TRP281     -0.2715
     90  CB       120.7860  117.6090   97.3990 C.3   281  TRP281      0.0590
     91  CG       121.3620  117.5940   98.7630 C.ar  281  TRP281      0.0006
     92  CD1      122.3840  118.3610   99.2380 C.ar  281  TRP281      0.0946
     93  CD2      120.9370  116.7690   99.8470 C.ar  281  TRP281      0.0152
     94  NE1      122.6230  118.0630  100.5620 N.ar  281  TRP281     -0.2442
     95  CE2      121.7480  117.0860  100.9580 C.ar  281  TRP281      0.0810
     96  CE3      119.9470  115.7870   99.9890 C.ar  281  TRP281      0.0012
     97  CZ2      121.6000  116.4550  102.1970 C.ar  281  TRP281      0.0191
     98  CZ3      119.7990  115.1600  101.2230 C.ar  281  TRP281      0.0001
     99  CH2      120.6230  115.4970  102.3090 C.ar  281  TRP281      0.0015
    100  N        122.7030  118.9630   95.3790 N.am  282  TYR282     -0.1960
    101  CA       123.7990  119.8460   95.0050 C.3   282  TYR282      0.1771
    102  C        124.4730  120.6300   96.1150 C.2   282  TYR282      0.2619
    103  O        123.9120  120.8410   97.1890 O.2   282  TYR282     -0.2715
    104  CB       123.3000  120.8520   93.9590 C.3   282  TYR282      0.0574
    105  CG       123.5460  120.4490   92.5280 C.ar  282  TYR282     -0.0198
    106  CD1      124.8440  120.3550   92.0340 C.ar  282  TYR282     -0.0009
    107  CD2      122.4860  120.1640   91.6600 C.ar  282  TYR282     -0.0009
    108  CE1      125.0910  119.9870   90.7030 C.ar  282  TYR282      0.0417
    109  CE2      122.7240  119.7930   90.3190 C.ar  282  TYR282      0.0417
    110  CZ       124.0330  119.7080   89.8530 C.ar  282  TYR282      0.1957
    111  OH       124.3060  119.3500   88.5500 O.3   282  TYR282     -0.2866
    112  N        125.6970  121.0540   95.8160 N.am  283  MET283     -0.1977
    113  CA       126.4890  121.9120   96.6840 C.3   283  MET283      0.1605
    114  C        126.7230  123.0790   95.7360 C.2   283  MET283      0.2287
    115  O        127.2520  122.8900   94.6370 O.2   283  MET283     -0.2864
    116  CB       127.8240  121.2710   97.0730 C.3   283  MET283      0.0413
    117  CG       128.6930  122.2020   97.9320 C.3   283  MET283      0.0598
    118  SD       130.2110  121.4630   98.6010 S.3   283  MET283     -0.1393
    119  CE       131.3710  121.9040   97.2640 C.3   283  MET283      0.0692
    120  N        129.2820  123.6330   92.7680 N.3   286  GLU286     -0.1245
    121  CA       129.2740  122.6950   91.6480 C.3   286  GLU286      0.1567
    122  C        128.6740  123.4210   90.4460 C.2   286  GLU286      0.2260
    123  O        129.2220  123.3840   89.3460 O.2   286  GLU286     -0.2867
    124  CB       128.4230  121.4530   91.9560 C.3   286  GLU286      0.0388
    125  CG       128.9460  120.5450   93.0630 C.3   286  GLU286      0.1160
    126  CD       128.1110  119.2860   93.2090 C.2   286  GLU286      0.3649
    127  OE1      128.2540  118.3650   92.3780 O.co2 286  GLU286     -0.2457
    128  OE2      127.2920  119.2190   94.1490 O.co2 286  GLU286     -0.2457
    129  N        130.2160  124.3480   86.7640 N.3   291  ASP291     -0.1239
    130  CA       129.3230  124.3680   85.6080 C.3   291  ASP291      0.1674
    131  C        129.2340  125.7100   84.8800 C.2   291  ASP291      0.2266
    132  O        129.3130  125.7530   83.6460 O.2   291  ASP291     -0.2867
    133  CB       127.9140  123.9360   86.0140 C.3   291  ASP291      0.1410
    134  CG       127.8780  122.5500   86.6060 C.2   291  ASP291      0.3668
    135  OD1      128.7710  121.7250   86.3140 O.co2 291  ASP291     -0.2456
    136  OD2      126.9370  122.2770   87.3600 O.co2 291  ASP291     -0.2456
    137  N        135.7150  125.5840   79.8150 N.3   296  GLN296     -0.1231
    138  CA       135.2570  124.5460   78.8960 C.3   296  GLN296      0.1698
    139  C        133.8200  124.0800   79.1830 C.2   296  GLN296      0.2592
    140  O        133.4070  123.0050   78.7460 O.2   296  GLN296     -0.2718
    141  CB       136.2220  123.3540   78.9280 C.3   296  GLN296      0.0381
    142  CG       136.0110  122.3510   80.0640 C.3   296  GLN296      0.0905
    143  CD       136.2890  122.9200   81.4460 C.2   296  GLN296      0.2608
    144  OE1      137.0340  123.8870   81.6030 O.2   296  GLN296     -0.2717
    145  NE2      135.7050  122.2960   82.4610 N.am  296  GLN296     -0.0878
    146  N        133.0760  124.8990   79.9290 N.am  297  ARG297     -0.1980
    147  CA       131.6760  124.6300   80.2700 C.3   297  ARG297      0.1597
    148  C        130.8760  125.8700   79.8420 C.2   297  ARG297      0.2287
    149  O        131.1000  126.4020   78.7460 O.2   297  ARG297     -0.2864
    150  CB       131.4930  124.3780   81.7800 C.3   297  ARG297      0.0334
    151  CG       132.2110  123.1370   82.3230 C.3   297  ARG297      0.0492
    152  CD       131.7120  121.8400   81.6940 C.3   297  ARG297      0.2205
    153  NE       130.3230  121.5440   82.0360 N.pl3 297  ARG297     -0.0865
    154  CZ       129.8990  121.2390   83.2590 C.cat 297  ARG297      0.5346
    155  NH1      130.7610  121.1840   84.2690 N.pl3 297  ARG297      0.1354
    156  NH2      128.6110  120.9940   83.4710 N.pl3 297  ARG297      0.1354
    157  N        139.7680  116.7160   95.9880 N.3   372  TRP372     -0.1241
    158  CA       138.3700  116.7780   95.5920 C.3   372  TRP372      0.1605
    159  C        137.5060  117.3830   96.6940 C.2   372  TRP372      0.2264
    160  O        136.5540  118.1120   96.4160 O.2   372  TRP372     -0.2867
    161  CB       137.8600  115.3800   95.2510 C.3   372  TRP372      0.0550
    162  CG       138.0520  115.0430   93.8300 C.ar  372  TRP372      0.0003
    163  CD1      139.2360  114.9850   93.1490 C.ar  372  TRP372      0.0946
    164  CD2      137.0220  114.8150   92.8670 C.ar  372  TRP372      0.0152
    165  NE1      139.0040  114.7450   91.8110 N.ar  372  TRP372     -0.2442
    166  CE2      137.6530  114.6360   91.6120 C.ar  372  TRP372      0.0810
    167  CE3      135.6250  114.7530   92.9380 C.ar  372  TRP372      0.0012
    168  CZ2      136.9330  114.3990   90.4410 C.ar  372  TRP372      0.0191
    169  CZ3      134.9110  114.5190   91.7720 C.ar  372  TRP372      0.0001
    170  CH2      135.5690  114.3460   90.5390 C.ar  372  TRP372      0.0015
@<TRIPOS>BOND
     1    27    28    1
     2    29    30    2
     3    29    28    1
     4    28    31    1
     5   140   139    2
     6   149   148    2
     7   138   141    1
     8   138   139    1
     9   138   137    1
    10   141   142    1
    11   139   146   am
    12    19    18    2
    13   148   147    1
    14   146   147    1
    15   142   143    1
    16   147   150    1
    17    18    17    1
    18    21    20    1
    19    21    22    1
    20    26    24    1
    21   143   144    2
    22   143   145   am
    23    20    17    1
    24   152   153    1
    25   152   151    1
    26   150   151    1
    27    24    25    1
    28    24    23    2
    29    17    16    1
    30   153   154    2
    31    23    22    1
    32    10     9    2
    33   154   156    1
    34   154   155    1
    35    14    13    2
    36   132   131    2
    37     7     8    1
    38     9     8    1
    39    40    38   ar
    40    40    42   ar
    41    13    12    1
    42    13    15   am
    43    38    37   ar
    44    12    11    1
    45   131   130    1
    46     8    11    1
    47    43    42    1
    48    42    41   ar
    49   130   133    1
    50   130   129    1
    51    37    36    1
    52    37    39   ar
    53    36    33    1
    54   133   134    1
    55    32    33    1
    56   135   134   ar
    57    41    39   ar
    58   134   136   ar
    59    33    34    1
    60    54    53    2
    61    58    59    2
    62    58    57    1
    63    34    35    2
    64   111   110    1
    65    57    56    1
    66    57    60    1
    67    61    60    1
    68    53    56   am
    69    53    52    1
    70   123   122    2
    71    55    52    1
    72    60    62    1
    73    51    52    1
    74    51    46   am
    75   110   109   ar
    76   110   108   ar
    77   109   107   ar
    78   168   170   ar
    79   168   166   ar
    80   122   121    1
    81   170   169   ar
    82    45    46    1
    83    45    44    1
    84    45    48    1
    85   108   106   ar
    86    46    47    2
    87    44    50    1
    88    63    64    1
    89    66    65    2
    90    48    49    1
    91   166   165   ar
    92   166   164   ar
    93   121   124    1
    94   121   120    1
    95   107   105   ar
    96   169   167   ar
    97   165   163   ar
    98   124   125    1
    99   106   105   ar
   100    72    73   ar
   101    72    70   ar
   102    50    49    1
   103   127   126   ar
   104    64    65    1
   105    64    67    1
   106    65    74   am
   107    73    71   ar
   108   105   104    1
   109    70    68   ar
   110    78    75    1
   111    78    79    1
   112   164   167   ar
   113   164   162   ar
   114    71    69   ar
   115   125   126    1
   116    68    69   ar
   117    68    67    1
   118   163   162   ar
   119   126   128   ar
   120    74    75    1
   121    75    76    1
   122    79    80    2
   123    79    81   am
   124   162   161    1
   125   104   101    1
   126   115   114    2
   127    76    82   am
   128    76    77    2
   129   101   100    1
   130   101   102    1
   131    82    83    1
   132    85    84    2
   133   161   158    1
   134   100    88   am
   135   158   157    1
   136   158   159    1
   137   114   113    1
   138   112   102   am
   139   112   113    1
   140    84    83    1
   141    84    86   am
   142    88    87    1
   143    88    89    2
   144   102   103    2
   145    87    86    1
   146    87    90    1
   147   160   159    2
   148   113   116    1
   149   116   117    1
   150   119   118    1
   151    90    91    1
   152   117   118    1
   153     1     2    1
   154     2     5    1
   155     2     3    1
   156     5     6    1
   157    91    92   ar
   158    91    93   ar
   159    92    94   ar
   160     3     4    2
   161    93    96   ar
   162    93    95   ar
   163    96    98   ar
   164    94    95   ar
   165    95    97   ar
   166    98    99   ar
   167    97    99   ar
