@<TRIPOS>MOLECULE
tmp/3e6eB00.pdb
 145 136 0 0 0
SMALL
GASTEIGER

@<TRIPOS>ATOM
      1  N        -17.3230  -17.4050   10.3720 N.3    37  VAL37      -0.1245
      2  CA       -17.1970  -15.9700   10.5890 C.3    37  VAL37       0.1561
      3  C        -17.3510  -15.2650    9.2570 C.2    37  VAL37       0.2260
      4  O        -16.6220  -15.5460    8.3130 O.2    37  VAL37      -0.2867
      5  CB       -15.8480  -15.5890   11.2800 C.3    37  VAL37       0.0252
      6  CG1      -14.7790  -16.6050   10.9540 C.3    37  VAL37       0.0019
      7  CG2      -15.4180  -14.1840   10.8510 C.3    37  VAL37       0.0019
      8  N        -17.7310  -11.6160    8.9610 N.3    39  LYS39      -0.1245
      9  CA       -17.6130  -10.1830    9.1630 C.3    39  LYS39       0.1561
     10  C        -17.2490   -9.5770    7.8080 C.2    39  LYS39       0.2260
     11  O        -17.0070  -10.3060    6.8480 O.2    39  LYS39      -0.2867
     12  CB       -16.4980   -9.8910   10.1820 C.3    39  LYS39       0.0271
     13  CG       -15.1650  -10.4990    9.8150 C.3    39  LYS39       0.0035
     14  CD       -14.0090   -9.8470   10.5650 C.3    39  LYS39       0.0206
     15  CE       -13.7460  -10.4890   11.9130 C.3    39  LYS39       0.1093
     16  NZ       -14.9640  -10.4990   12.7760 N.3    39  LYS39      -0.1314
     17  N        -15.9960  -11.1500    4.0460 N.3    43  TYR43      -0.1241
     18  CA       -14.6370  -11.0020    3.5450 C.3    43  TYR43       0.1605
     19  C        -14.6400  -10.4960    2.1020 C.2    43  TYR43       0.2264
     20  O        -13.7570  -10.8380    1.3150 O.2    43  TYR43      -0.2867
     21  CB       -13.8920  -12.3410    3.6250 C.3    43  TYR43       0.0534
     22  CG       -13.3970  -12.7250    5.0040 C.ar   43  TYR43      -0.0201
     23  CD1      -14.2690  -12.8070    6.0910 C.ar   43  TYR43      -0.0009
     24  CD2      -12.0680  -13.0940    5.2000 C.ar   43  TYR43      -0.0009
     25  CE1      -13.8250  -13.2620    7.3460 C.ar   43  TYR43       0.0417
     26  CE2      -11.6080  -13.5490    6.4400 C.ar   43  TYR43       0.0417
     27  CZ       -12.4910  -13.6360    7.5100 C.ar   43  TYR43       0.1957
     28  OH       -12.0410  -14.1290    8.7180 O.3    43  TYR43      -0.2866
     29  N        -18.1320  -11.0080   17.6780 N.3    85  LEU85      -0.1245
     30  CA       -16.7690  -11.1410   18.1900 C.3    85  LEU85       0.1561
     31  C        -16.1990   -9.8990   18.8570 C.2    85  LEU85       0.2260
     32  O        -15.0980   -9.9430   19.4070 O.2    85  LEU85      -0.2867
     33  CB       -15.7940  -11.5600   17.0690 C.3    85  LEU85       0.0270
     34  CG       -15.8870  -12.8940   16.3190 C.3    85  LEU85       0.0019
     35  CD1      -16.2700  -14.0320   17.2630 C.3    85  LEU85       0.0001
     36  CD2      -16.9120  -12.7640   15.2270 C.3    85  LEU85       0.0001
     37  N        -14.3300  -13.4380   26.7480 N.3   131  LYS131     -0.1245
     38  CA       -13.0330  -13.5390   26.0870 C.3   131  LYS131      0.1561
     39  C        -11.8800  -13.2190   27.0170 C.2   131  LYS131      0.2260
     40  O        -11.8530  -12.1810   27.6800 O.2   131  LYS131     -0.2867
     41  CB       -12.9360  -12.6180   24.8560 C.3   131  LYS131      0.0271
     42  CG       -11.6190  -12.8270   24.0610 C.3   131  LYS131      0.0035
     43  CD       -11.5330  -12.0290   22.7480 C.3   131  LYS131      0.0206
     44  CE       -10.1580  -12.1850   22.0750 C.3   131  LYS131      0.1093
     45  NZ        -9.9220  -11.2910   20.8870 N.3   131  LYS131     -0.1314
     46  N         -5.5910   -7.5860   22.1410 N.3   138  ARG138     -0.1245
     47  CA        -6.7020   -6.8200   21.6180 C.3   138  ARG138      0.1563
     48  C         -7.7160   -6.5430   22.7410 C.2   138  ARG138      0.2260
     49  O         -7.7530   -5.4390   23.2780 O.2   138  ARG138     -0.2867
     50  CB        -7.3360   -7.5890   20.4580 C.3   138  ARG138      0.0307
     51  CG        -8.3040   -6.7810   19.6030 C.3   138  ARG138      0.0489
     52  CD        -8.4990   -7.4370   18.2320 C.3   138  ARG138      0.2205
     53  NE        -9.0400   -8.7900   18.3280 N.pl3 138  ARG138     -0.0865
     54  CZ        -9.0560   -9.6690   17.3290 C.cat 138  ARG138      0.5346
     55  NH1       -8.5540   -9.3580   16.1400 N.pl3 138  ARG138      0.1354
     56  NH2       -9.5920  -10.8600   17.5150 N.pl3 138  ARG138      0.1354
     57  N        -13.7930  -18.0010   25.2560 N.3   166  PHE166     -0.1241
     58  CA       -12.7960  -18.1950   24.2020 C.3   166  PHE166      0.1605
     59  C        -11.5510  -17.3180   24.2780 C.2   166  PHE166      0.2264
     60  O        -11.3000  -16.6540   25.2750 O.2   166  PHE166     -0.2867
     61  CB       -13.4600  -18.0120   22.8230 C.3   166  PHE166      0.0534
     62  CG       -13.8710  -16.5980   22.5230 C.ar  166  PHE166     -0.0203
     63  CD1      -13.2110  -15.8630   21.5430 C.ar  166  PHE166     -0.0042
     64  CD2      -14.9250  -16.0040   23.2120 C.ar  166  PHE166     -0.0042
     65  CE1      -13.5980  -14.5540   21.2540 C.ar  166  PHE166     -0.0003
     66  CE2      -15.3220  -14.6970   22.9340 C.ar  166  PHE166     -0.0003
     67  CZ       -14.6580  -13.9700   21.9510 C.ar  166  PHE166     -0.0000
     68  N         -8.1150  -15.7500   21.2660 N.3   168  HIS168     -0.1241
     69  CA        -7.6520  -15.6830   19.8900 C.3   168  HIS168      0.1621
     70  C         -6.1440  -15.8450   19.8060 C.2   168  HIS168      0.2264
     71  O         -5.4130  -15.3310   20.6400 O.2   168  HIS168     -0.2867
     72  CB        -8.0710  -14.3480   19.2710 C.3   168  HIS168      0.0745
     73  CG        -8.1500  -14.3710   17.7770 C.ar  168  HIS168      0.0817
     74  ND1       -8.8160  -15.3600   17.0850 N.ar  168  HIS168     -0.2268
     75  CD2       -7.6890  -13.5040   16.8470 C.ar  168  HIS168      0.1154
     76  CE1       -8.7630  -15.0990   15.7910 C.ar  168  HIS168      0.1986
     77  NE2       -8.0860  -13.9780   15.6200 N.ar  168  HIS168     -0.2212
     78  N         -9.2080  -20.6800   14.8560 N.3   205  ASN205     -0.1225
     79  CA        -9.4920  -19.7950   13.7410 C.3   205  ASN205      0.1785
     80  C         -8.9930  -20.6500   12.5870 C.2   205  ASN205      0.2598
     81  O         -8.6540  -21.8210   12.8070 O.2   205  ASN205     -0.2718
     82  CB        -8.7320  -18.4620   13.8680 C.3   205  ASN205      0.1169
     83  CG        -7.2640  -18.5630   13.4970 C.2   205  ASN205      0.2627
     84  OD1       -6.6500  -19.6300   13.5610 O.2   205  ASN205     -0.2716
     85  ND2       -6.6860  -17.4270   13.1260 N.am  205  ASN205     -0.0877
     86  N         -8.9510  -20.1060   11.3750 N.am  206  SER206     -0.1938
     87  CA        -8.5140  -20.8910   10.2240 C.3   206  SER206      0.2055
     88  C         -7.1340  -21.5030   10.3900 C.2   206  SER206      0.2642
     89  O         -6.9660  -22.7150   10.2710 O.2   206  SER206     -0.2714
     90  CB        -8.5610  -20.0410    8.9550 C.3   206  SER206      0.2130
     91  OG        -9.9030  -19.7210    8.6270 O.3   206  SER206     -0.2179
     92  N         -6.1440  -20.6710   10.6670 N.am  207  ALA207     -0.1977
     93  CA        -4.7980  -21.1660   10.8410 C.3   207  ALA207      0.1597
     94  C         -4.7440  -22.3020   11.8630 C.2   207  ALA207      0.2287
     95  O         -4.3490  -23.4190   11.5210 O.2   207  ALA207     -0.2864
     96  CB        -3.8840  -20.0350   11.2670 C.3   207  ALA207      0.0319
     97  N        -13.8900  -21.3840   14.8500 N.3   221  ARG221     -0.1245
     98  CA       -14.4540  -20.2440   14.1180 C.3   221  ARG221      0.1563
     99  C        -13.7840  -20.1010   12.7400 C.2   221  ARG221      0.2260
    100  O        -12.8390  -19.3320   12.5720 O.2   221  ARG221     -0.2867
    101  CB       -14.2660  -18.9410   14.9210 C.3   221  ARG221      0.0307
    102  CG       -14.7920  -18.9650   16.3720 C.3   221  ARG221      0.0489
    103  CD       -14.6860  -17.5990   17.0580 C.3   221  ARG221      0.2205
    104  NE       -13.2990  -17.1700   17.2320 N.pl3 221  ARG221     -0.0865
    105  CZ       -12.4540  -17.6490   18.1490 C.cat 221  ARG221      0.5346
    106  NH1      -12.8430  -18.5840   19.0060 N.pl3 221  ARG221      0.1354
    107  NH2      -11.2050  -17.2030   18.1950 N.pl3 221  ARG221      0.1354
    108  N        -12.9870  -18.8610    9.1700 N.3   223  GLY223     -0.1210
    109  CA       -13.1540  -17.6020    8.4700 C.3   223  GLY223      0.1956
    110  C        -12.5220  -17.5890    7.0860 C.2   223  GLY223      0.2611
    111  O        -12.9960  -18.2340    6.1520 O.2   223  GLY223     -0.2717
    112  N        -11.4370  -16.8450    6.9600 N.am  224  VAL224     -0.1979
    113  CA       -10.7400  -16.7130    5.7020 C.3   224  VAL224      0.1595
    114  C        -10.7090  -17.9840    4.8350 C.2   224  VAL224      0.2287
    115  O        -11.1110  -17.9660    3.6670 O.2   224  VAL224     -0.2864
    116  CB        -9.3100  -16.2150    5.9620 C.3   224  VAL224      0.0276
    117  CG1       -8.4870  -17.2960    6.6310 C.3   224  VAL224      0.0022
    118  CG2       -8.6820  -15.7560    4.6850 C.3   224  VAL224      0.0022
    119  N         -4.5690  -19.1210    4.9960 N.3   231  PRO231     -0.2116
    120  CA        -4.2520  -18.1930    6.0850 C.3   231  PRO231      0.1372
    121  C         -2.8090  -17.6870    6.0750 C.2   231  PRO231      0.2244
    122  O         -2.5740  -16.4840    6.1460 O.2   231  PRO231     -0.2868
    123  CB        -4.5790  -19.0060    7.3320 C.3   231  PRO231      0.0268
    124  CG        -5.7150  -19.8770    6.8620 C.3   231  PRO231      0.0207
    125  CD        -5.1940  -20.3470    5.5230 C.3   231  PRO231      0.0892
    126  N         -1.9170   -8.6870    2.6620 N.3   353  ILE353     -0.1245
    127  CA        -2.4050  -10.0610    2.7180 C.3   353  ILE353      0.1561
    128  C         -3.7450  -10.1040    1.9960 C.2   353  ILE353      0.2260
    129  O         -4.4030   -9.0800    1.8690 O.2   353  ILE353     -0.2867
    130  CB        -2.6010  -10.4920    4.1840 C.3   353  ILE353      0.0252
    131  CG1       -3.4300   -9.4370    4.9260 C.3   353  ILE353      0.0019
    132  CG2       -1.2480  -10.6670    4.8550 C.3   353  ILE353      0.0019
    133  CD1       -3.5090   -9.6360    6.4210 C.3   353  ILE353      0.0001
    134  N         -6.5640  -10.8400    2.9370 N.3   355  TYR355     -0.1241
    135  CA        -7.7220  -10.4180    3.7230 C.3   355  TYR355      0.1605
    136  C         -8.0280   -8.9800    3.3520 C.2   355  TYR355      0.2264
    137  O         -9.1880   -8.6070    3.1490 O.2   355  TYR355     -0.2867
    138  CB        -7.4300  -10.4190    5.2110 C.3   355  TYR355      0.0534
    139  CG        -7.2350  -11.7560    5.8510 C.ar  355  TYR355     -0.0201
    140  CD1       -6.0230  -12.4320    5.7420 C.ar  355  TYR355     -0.0009
    141  CD2       -8.2390  -12.3130    6.6470 C.ar  355  TYR355     -0.0009
    142  CE1       -5.8120  -13.6270    6.4220 C.ar  355  TYR355      0.0417
    143  CE2       -8.0330  -13.5110    7.3290 C.ar  355  TYR355      0.0417
    144  CZ        -6.8200  -14.1490    7.2110 C.ar  355  TYR355      0.1957
    145  OH        -6.6020  -15.3000    7.8980 O.3   355  TYR355     -0.2866
@<TRIPOS>BOND
     1    20    19    2
     2   129   128    2
     3   128   127    1
     4    19    18    1
     5   126   127    1
     6   127   130    1
     7   134   135    1
     8   137   136    2
     9   136   135    1
    10    18    21    1
    11    18    17    1
    12    21    22    1
    13   115   114    2
    14   135   138    1
    15   130   132    1
    16   130   131    1
    17   118   116    1
    18   114   113    1
    19   131   133    1
    20   119   125    1
    21   119   120    1
    22    22    24   ar
    23    22    23   ar
    24    24    26   ar
    25   138   139    1
    26   125   124    1
    27   113   116    1
    28   113   112    1
    29   140   139   ar
    30   140   142   ar
    31   139   141   ar
    32   116   117    1
    33   121   120    1
    34   121   122    2
    35   120   123    1
    36    23    25   ar
    37   111   110    2
    38   142   144   ar
    39    26    27   ar
    40   141   143   ar
    41    11    10    2
    42   124   123    1
    43   112   110   am
    44   110   109    1
    45   144   143   ar
    46   144   145    1
    47    25    27   ar
    48    27    28    1
    49    10     9    1
    50     4     3    2
    51   109   108    1
    52    91    90    1
    53    90    87    1
    54     8     9    1
    55     9    12    1
    56     3     2    1
    57    13    12    1
    58    13    14    1
    59    87    88    1
    60    87    86    1
    61    89    88    2
    62     1     2    1
    63    88    92   am
    64    14    15    1
    65     2     5    1
    66    92    93    1
    67    93    96    1
    68    93    94    1
    69     7     5    1
    70     6     5    1
    71    86    80   am
    72    95    94    2
    73    15    16    1
    74   100    99    2
    75    80    81    2
    76    80    79    1
    77    99    98    1
    78    85    83   am
    79    83    84    2
    80    83    82    1
    81    79    82    1
    82    79    78    1
    83    98    97    1
    84    98   101    1
    85   101   102    1
    86    36    34    1
    87    77    76   ar
    88    77    75   ar
    89    76    74   ar
    90    55    54    1
    91    34    33    1
    92    34    35    1
    93   102   103    1
    94    75    73   ar
    95   103   104    1
    96    33    30    1
    97    74    73   ar
    98   104   105    2
    99    54    56    1
   100    54    53    2
   101    29    30    1
   102    73    72    1
   103   105   107    1
   104   105   106    1
   105    30    31    1
   106    52    53    1
   107    52    51    1
   108    31    32    2
   109    72    69    1
   110    51    50    1
   111    70    69    1
   112    70    71    2
   113    69    68    1
   114    50    47    1
   115    45    44    1
   116    65    63   ar
   117    65    67   ar
   118    63    62   ar
   119    47    46    1
   120    47    48    1
   121    67    66   ar
   122    44    43    1
   123    62    61    1
   124    62    64   ar
   125    48    49    2
   126    43    42    1
   127    61    58    1
   128    66    64   ar
   129    42    41    1
   130    58    59    1
   131    58    57    1
   132    59    60    2
   133    41    38    1
   134    38    37    1
   135    38    39    1
   136    39    40    2
