@<TRIPOS>MOLECULE
tmp/3e6iA01.pdb
 87 84 0 0 0
SMALL
GASTEIGER

@<TRIPOS>ATOM
      1  N         12.0370   -9.2690   -7.9030 N.3    85  ILE85      -0.1231
      2  CA        10.6760   -9.5550   -8.3560 C.3    85  ILE85       0.1692
      3  C         10.4500  -11.0490   -8.6560 C.2    85  ILE85       0.2592
      4  O          9.5070  -11.6430   -8.1670 O.2    85  ILE85      -0.2718
      5  CB        10.2430   -8.6780   -9.5970 C.3    85  ILE85       0.0266
      6  CG1       10.5250   -7.1900   -9.3710 C.3    85  ILE85       0.0019
      7  CG2        8.7620   -8.8850   -9.9080 C.3    85  ILE85       0.0020
      8  CD1       10.0850   -6.2530  -10.5020 C.3    85  ILE85       0.0001
      9  N         11.3420  -11.6500   -9.4380 N.am   86  PHE86      -0.1976
     10  CA        11.1170  -12.9980   -9.9520 C.3    86  PHE86       0.1639
     11  C         11.9900  -14.0830   -9.3240 C.2    86  PHE86       0.2290
     12  O         12.1700  -15.1420   -9.8990 O.2    86  PHE86      -0.2864
     13  CB        11.2400  -12.9970  -11.4800 C.3    86  PHE86       0.0560
     14  CG        10.3310  -12.0050  -12.1520 C.ar   86  PHE86      -0.0200
     15  CD1        9.0400  -12.3550  -12.4880 C.ar   86  PHE86      -0.0042
     16  CD2       10.7700  -10.7040  -12.4270 C.ar   86  PHE86      -0.0042
     17  CE1        8.1860  -11.4250  -13.1100 C.ar   86  PHE86      -0.0003
     18  CE2        9.9340   -9.7830  -13.0280 C.ar   86  PHE86      -0.0003
     19  CZ         8.6370  -10.1450  -13.3690 C.ar   86  PHE86      -0.0000
     20  N          3.7810   -5.0830  -19.6440 N.3   176  PHE176     -0.1241
     21  CA         2.6070   -4.9560  -18.7570 C.3   176  PHE176      0.1605
     22  C          1.3020   -5.2640  -19.5080 C.2   176  PHE176      0.2264
     23  O          0.4940   -6.0180  -19.0050 O.2   176  PHE176     -0.2867
     24  CB         2.5420   -3.5750  -18.1270 C.3   176  PHE176      0.0534
     25  CG         1.7260   -3.5100  -16.8800 C.ar  176  PHE176     -0.0203
     26  CD1        2.1560   -4.1310  -15.7070 C.ar  176  PHE176     -0.0042
     27  CD2        0.5470   -2.7930  -16.8500 C.ar  176  PHE176     -0.0042
     28  CE1        1.4220   -4.0460  -14.5340 C.ar  176  PHE176     -0.0003
     29  CE2       -0.1920   -2.6920  -15.6580 C.ar  176  PHE176     -0.0003
     30  CZ         0.2350   -3.3300  -14.5190 C.ar  176  PHE176     -0.0000
     31  N         11.7220   -1.3530  -14.4180 N.3   267  PHE267     -0.1227
     32  CA        10.4030   -1.7490  -14.9280 C.3   267  PHE267      0.1736
     33  C          9.2720   -1.4390  -13.9160 C.2   267  PHE267      0.2595
     34  O          8.3350   -0.7000  -14.2330 O.2   267  PHE267     -0.2718
     35  CB        10.4280   -3.2410  -15.3510 C.3   267  PHE267      0.0547
     36  CG         9.1040   -3.7790  -15.8450 C.ar  267  PHE267     -0.0202
     37  CD1        8.2210   -2.9810  -16.5910 C.ar  267  PHE267     -0.0042
     38  CD2        8.7600   -5.1190  -15.6240 C.ar  267  PHE267     -0.0042
     39  CE1        7.0060   -3.5050  -17.0680 C.ar  267  PHE267     -0.0003
     40  CE2        7.5280   -5.6530  -16.1040 C.ar  267  PHE267     -0.0003
     41  CZ         6.6660   -4.8430  -16.8240 C.ar  267  PHE267     -0.0000
     42  N          9.4010   -1.9600  -12.6980 N.am  268  ALA268     -0.1980
     43  CA         8.3910   -1.7550  -11.6740 C.3   268  ALA268      0.1597
     44  C          8.2880   -0.2870  -11.2920 C.2   268  ALA268      0.2287
     45  O          7.1790    0.2400  -11.1630 O.2   268  ALA268     -0.2864
     46  CB         8.6460   -2.6300  -10.4660 C.3   268  ALA268      0.0319
     47  N          6.2950    1.4720  -14.5600 N.3   271  GLU271     -0.1231
     48  CA         5.0840    1.0430  -15.2330 C.3   271  GLU271      0.1699
     49  C          3.7810    1.1660  -14.4530 C.2   271  GLU271      0.2592
     50  O          2.8070    1.6450  -14.9920 O.2   271  GLU271     -0.2718
     51  CB         5.2540   -0.3700  -15.7970 C.3   271  GLU271      0.0402
     52  CG         4.3310   -0.7010  -16.9830 C.3   271  GLU271      0.1161
     53  CD         4.1430    0.4620  -17.9660 C.2   271  GLU271      0.3649
     54  OE1        3.0120    0.6050  -18.4650 O.co2 271  GLU271     -0.2457
     55  OE2        5.1080    1.2250  -18.2330 O.co2 271  GLU271     -0.2457
     56  N          3.7750    0.7240  -13.1960 N.am  272  THR272     -0.1953
     57  CA         2.5700    0.7350  -12.3900 C.3   272  THR272      0.1897
     58  C          2.1180    2.1690  -11.9960 C.2   272  THR272      0.2313
     59  O          0.9120    2.4890  -12.0320 O.2   272  THR272     -0.2863
     60  CB         2.7220   -0.1810  -11.1530 C.3   272  THR272      0.1794
     61  OG1        4.0900   -0.1910  -10.7300 O.3   272  THR272     -0.2208
     62  CG2        2.3190   -1.6140  -11.4690 C.3   272  THR272      0.0378
     63  N          1.1490  -10.5570   -7.2550 N.3   337  LEU337     -0.1245
     64  CA         2.1180  -11.4310   -7.8710 C.3   337  LEU337      0.1561
     65  C          2.0500  -12.7900   -7.1550 C.2   337  LEU337      0.2260
     66  O          1.7220  -12.8510   -5.9690 O.2   337  LEU337     -0.2867
     67  CB         3.5240  -10.8090   -7.8200 C.3   337  LEU337      0.0270
     68  CG         3.9370   -9.7980   -8.9010 C.3   337  LEU337      0.0019
     69  CD1        2.8330   -8.8620   -9.3250 C.3   337  LEU337      0.0001
     70  CD2        5.1560   -9.0160   -8.4930 C.3   337  LEU337      0.0001
     71  N          5.4010   -4.6680   -2.0050 N.3   406  CYS406     -0.1235
     72  CA         6.0170   -3.7900   -2.9880 C.3   406  CYS406      0.1677
     73  C          7.2190   -3.0090   -2.4260 C.2   406  CYS406      0.2270
     74  O          7.0770   -2.2130   -1.4830 O.2   406  CYS406     -0.2867
     75  CB         4.9790   -2.8140   -3.5610 C.3   406  CYS406      0.0956
     76  SG         5.6930   -1.6140   -4.6950 S.3   406  CYS406     -0.0801
     77  N         -2.0370  -10.0620  -15.4270 N.3   447  PHE447     -0.1241
     78  CA        -0.9730   -9.5530  -14.5730 C.3   447  PHE447      0.1605
     79  C         -1.4080   -8.1600  -14.0430 C.2   447  PHE447      0.2264
     80  O         -1.4460   -7.9290  -12.8440 O.2   447  PHE447     -0.2867
     81  CB         0.3060   -9.5120  -15.4210 C.3   447  PHE447      0.0534
     82  CG         1.5560   -9.1830  -14.6650 C.ar  447  PHE447     -0.0203
     83  CD1        2.4040  -10.2030  -14.2170 C.ar  447  PHE447     -0.0042
     84  CD2        1.9110   -7.8540  -14.4370 C.ar  447  PHE447     -0.0042
     85  CE1        3.5970   -9.9060  -13.5150 C.ar  447  PHE447     -0.0003
     86  CE2        3.0680   -7.5310  -13.7450 C.ar  447  PHE447     -0.0003
     87  CZ         3.9290   -8.5690  -13.2790 C.ar  447  PHE447     -0.0000
@<TRIPOS>BOND
     1    20    21    1
     2    22    23    2
     3    22    21    1
     4    21    24    1
     5    54    53   ar
     6    55    53   ar
     7    24    25    1
     8    53    52    1
     9    39    41   ar
    10    39    37   ar
    11    52    51    1
    12    25    27   ar
    13    25    26   ar
    14    27    29   ar
    15    41    40   ar
    16    37    36   ar
    17    40    38   ar
    18    36    38   ar
    19    36    35    1
    20    51    48    1
    21    26    28   ar
    22    29    30   ar
    23    77    78    1
    24    81    82    1
    25    81    78    1
    26    35    32    1
    27    48    47    1
    28    48    49    1
    29    50    49    2
    30    32    31    1
    31    32    33    1
    32    82    84   ar
    33    82    83   ar
    34    78    79    1
    35    28    30   ar
    36    49    56   am
    37    84    86   ar
    38    34    33    2
    39    83    85   ar
    40    79    80    2
    41    33    42   am
    42    86    87   ar
    43    85    87   ar
    44    19    17   ar
    45    19    18   ar
    46    56    57    1
    47    17    15   ar
    48    18    16   ar
    49    42    43    1
    50    15    14   ar
    51    16    14   ar
    52    57    58    1
    53    57    60    1
    54    14    13    1
    55    59    58    2
    56    43    44    1
    57    43    46    1
    58    13    10    1
    59    62    60    1
    60    44    45    2
    61    60    61    1
    62     8     6    1
    63    10     9    1
    64    10    11    1
    65     7     5    1
    66    12    11    2
    67     5     6    1
    68     5     2    1
    69     9     3   am
    70    69    68    1
    71    68    70    1
    72    68    67    1
    73     3     2    1
    74     3     4    2
    75     2     1    1
    76    64    67    1
    77    64    63    1
    78    64    65    1
    79    65    66    2
    80    76    75    1
    81    75    72    1
    82    72    73    1
    83    72    71    1
    84    73    74    2
