@<TRIPOS>MOLECULE
tmp/3e6jA00.pdb
 151 146 0 0 0
SMALL
GASTEIGER

@<TRIPOS>ATOM
      1  N         -7.6910   26.4660   13.0610 N.3    36  TYR36      -0.1241
      2  CA        -6.4170   26.5250   12.3520 C.3    36  TYR36       0.1605
      3  C         -5.4960   27.4900   13.0650 C.2    36  TYR36       0.2264
      4  O         -5.7310   28.6780   13.1190 O.2    36  TYR36      -0.2867
      5  CB        -6.6020   26.9910   10.9200 C.3    36  TYR36       0.0534
      6  CG        -7.5170   26.1630   10.0420 C.ar   36  TYR36      -0.0201
      7  CD1       -7.0930   24.9520    9.5370 C.ar   36  TYR36      -0.0009
      8  CD2       -8.7640   26.6310    9.6790 C.ar   36  TYR36      -0.0009
      9  CE1       -7.9120   24.2000    8.7610 C.ar   36  TYR36       0.0417
     10  CE2       -9.5900   25.8750    8.8620 C.ar   36  TYR36       0.0417
     11  CZ        -9.1400   24.6720    8.4030 C.ar   36  TYR36       0.1957
     12  OH        -9.9200   23.8760    7.5910 O.3    36  TYR36      -0.2866
     13  N         -2.0510   26.7640   12.4770 N.3    38  HIS38      -0.1241
     14  CA        -0.7970   26.3460   11.8320 C.3    38  HIS38       0.1621
     15  C         -0.0650   27.4780   11.1270 C.2    38  HIS38       0.2264
     16  O         -0.6170   28.5280   10.8190 O.2    38  HIS38      -0.2867
     17  CB        -1.0100   25.1760   10.8690 C.3    38  HIS38       0.0745
     18  CG        -1.8720   25.4890    9.6850 C.ar   38  HIS38       0.0817
     19  ND1       -3.2430   25.6620    9.7750 N.ar   38  HIS38      -0.2268
     20  CD2       -1.5610   25.6310    8.3750 C.ar   38  HIS38       0.1154
     21  CE1       -3.7360   25.8780    8.5710 C.ar   38  HIS38       0.1986
     22  NE2       -2.7350   25.8850    7.7010 N.ar   38  HIS38      -0.2212
     23  N         -5.4420   22.1720   14.1990 N.3    60  TYR60      -0.1241
     24  CA        -4.1780   22.2830   13.4290 C.3    60  TYR60       0.1605
     25  C         -3.1640   23.2100   14.0740 C.2    60  TYR60       0.2264
     26  O         -3.3260   24.4110   14.1440 O.2    60  TYR60      -0.2867
     27  CB        -4.4970   22.7350   12.0040 C.3    60  TYR60       0.0534
     28  CG        -5.4680   21.8060   11.3010 C.ar   60  TYR60      -0.0201
     29  CD1       -5.0120   20.6730   10.6250 C.ar   60  TYR60      -0.0009
     30  CD2       -6.8270   22.0860   11.2660 C.ar   60  TYR60      -0.0009
     31  CE1       -5.8820   19.8200    9.9870 C.ar   60  TYR60       0.0417
     32  CE2       -7.7240   21.2300   10.6140 C.ar   60  TYR60       0.0417
     33  CZ        -7.2360   20.1120    9.9710 C.ar   60  TYR60       0.1957
     34  OH        -8.1010   19.2530    9.3170 O.3    60  TYR60      -0.2866
     35  N          0.2460   22.5910   13.3480 N.3    62  GLY62      -0.1210
     36  CA         1.4660   22.3470   12.5540 C.3    62  GLY62       0.1956
     37  C          2.2830   23.5890   12.2980 C.2    62  GLY62       0.2612
     38  O          1.7550   24.7070   12.2670 O.2    62  GLY62      -0.2717
     39  N          3.5870   23.3830   12.0770 N.am   63  SER63      -0.1952
     40  CA         4.4850   24.4820   11.6950 C.3    63  SER63       0.1924
     41  C          4.4420   25.6410   12.6980 C.2    63  SER63       0.2314
     42  O          4.1800   26.8150   12.3620 O.2    63  SER63      -0.2863
     43  CB         4.1700   24.9520   10.2680 C.3    63  SER63       0.2116
     44  OG         4.5090   23.9670    9.3030 O.3    63  SER63      -0.2180
     45  N         -3.2480   17.8180   14.2420 N.3    84  ASP84      -0.1239
     46  CA        -1.9710   17.9790   13.4780 C.3    84  ASP84       0.1674
     47  C         -0.9820   18.7220   14.3520 C.2    84  ASP84       0.2266
     48  O         -1.1920   19.8690   14.7250 O.2    84  ASP84      -0.2867
     49  CB        -2.2450   18.7320   12.1890 C.3    84  ASP84       0.1410
     50  CG        -1.0430   18.7690   11.2040 C.2    84  ASP84       0.3668
     51  OD1        0.0590   18.2620   11.5290 O.co2  84  ASP84      -0.2456
     52  OD2       -1.2240   19.3270   10.0740 O.co2  84  ASP84      -0.2456
     53  N          5.7030   19.3120   12.2720 N.3    87  THR87      -0.1218
     54  CA         6.6300   20.4550   12.1250 C.3    87  THR87       0.1862
     55  C          6.5840   21.3720   13.3500 C.2    87  THR87       0.2287
     56  O          6.2210   22.5700   13.3200 O.2    87  THR87      -0.2866
     57  CB         6.4380   21.2090   10.7820 C.3    87  THR87       0.1770
     58  OG1        6.3980   20.2480    9.7010 O.3    87  THR87      -0.2211
     59  CG2        7.6150   22.2510   10.5210 C.3    87  THR87       0.0375
     60  N         -1.3350   13.5440   12.9870 N.3   108  PHE108     -0.1241
     61  CA        -0.1540   13.9010   12.2060 C.3   108  PHE108      0.1605
     62  C          0.9250   14.4660   13.1160 C.2   108  PHE108      0.2264
     63  O          0.7180   15.4780   13.8020 O.2   108  PHE108     -0.2867
     64  CB        -0.4900   14.9340   11.1530 C.3   108  PHE108      0.0534
     65  CG        -1.6450   14.5450   10.2620 C.ar  108  PHE108     -0.0203
     66  CD1       -1.4960   13.4880    9.3700 C.ar  108  PHE108     -0.0042
     67  CD2       -2.8500   15.1900   10.3180 C.ar  108  PHE108     -0.0042
     68  CE1       -2.5070   13.0970    8.5480 C.ar  108  PHE108     -0.0003
     69  CE2       -3.8860   14.7870    9.4980 C.ar  108  PHE108     -0.0003
     70  CZ        -3.7100   13.7350    8.6220 C.ar  108  PHE108     -0.0000
     71  N          4.6030   14.4580   11.9890 N.3   110  CYS110     -0.1221
     72  CA         5.9010   14.4630   11.2930 C.3   110  CYS110      0.1808
     73  C          6.8000   15.5540   11.7890 C.2   110  CYS110      0.2601
     74  O          6.3770   16.5090   12.4150 O.2   110  CYS110     -0.2717
     75  CB         5.7280   14.6550    9.7820 C.3   110  CYS110      0.0970
     76  SG         5.4750   16.3830    9.3270 S.3   110  CYS110     -0.0800
     77  N          8.0690   15.4150   11.4630 N.am  111  CYS111     -0.1970
     78  CA         8.9610   16.5520   11.4690 C.3   111  CYS111      0.1712
     79  C          9.0370   17.1470   12.8690 C.2   111  CYS111      0.2296
     80  O          9.0440   18.3770   13.0590 O.2   111  CYS111     -0.2864
     81  CB         8.4830   17.5980   10.4790 C.3   111  CYS111      0.0983
     82  SG         8.3410   16.9540    8.7640 S.3   111  CYS111     -0.0798
     83  N         -5.5720    7.8170    9.5290 N.3   129  HIS129     -0.1241
     84  CA        -4.3080    8.4240    9.0860 C.3   129  HIS129      0.1621
     85  C         -3.3730    8.6390   10.2750 C.2   129  HIS129      0.2264
     86  O         -3.7850    9.1590   11.3080 O.2   129  HIS129     -0.2867
     87  CB        -4.4960    9.7880    8.4570 C.3   129  HIS129      0.0745
     88  CG        -5.2510    9.8040    7.1740 C.ar  129  HIS129      0.0817
     89  ND1       -6.5490    9.3620    7.0780 N.ar  129  HIS129     -0.2268
     90  CD2       -4.9350   10.3110    5.9610 C.ar  129  HIS129      0.1154
     91  CE1       -6.9780    9.5320    5.8390 C.ar  129  HIS129      0.1986
     92  NE2       -6.0230   10.1090    5.1380 N.ar  129  HIS129     -0.2212
     93  N          0.7460    9.9200   10.8200 N.3   131  ALA131     -0.1245
     94  CA         1.9880   10.3790   10.2160 C.3   131  ALA131      0.1562
     95  C          3.0860   10.5280   11.2630 C.2   131  ALA131      0.2260
     96  O          2.9650   11.3090   12.2180 O.2   131  ALA131     -0.2867
     97  CB         1.7620   11.6900    9.4600 C.3   131  ALA131      0.0290
     98  N          6.4760   10.4480   10.0010 N.3   133  ASP133     -0.1225
     99  CA         7.6620   10.6920    9.1620 C.3   133  ASP133      0.1805
    100  C          8.6120   11.7460    9.6880 C.2   133  ASP133      0.2597
    101  O          8.2120   12.6860   10.3630 O.2   133  ASP133     -0.2718
    102  CB         7.2840   10.9900    7.7100 C.3   133  ASP133      0.1424
    103  CG         6.2450   12.1170    7.5730 C.2   133  ASP133      0.3668
    104  OD1        5.0530   11.8840    7.9390 O.co2 133  ASP133     -0.2456
    105  OD2        6.6220   13.2070    7.0770 O.co2 133  ASP133     -0.2456
    106  N          9.8790   11.5640    9.3730 N.am  134  GLN134     -0.1979
    107  CA        10.9000   12.6040    9.5870 C.3   134  GLN134      0.1601
    108  C         11.0300   12.9590   11.0550 C.2   134  GLN134      0.2287
    109  O         11.0880   14.1330   11.4750 O.2   134  GLN134     -0.2864
    110  CB        10.5890   13.8510    8.7810 C.3   134  GLN134      0.0394
    111  CG        10.4780   13.5920    7.2640 C.3   134  GLN134      0.0908
    112  CD        10.0530   14.7810    6.4610 C.2   134  GLN134      0.2608
    113  OE1       10.8380   15.7050    6.1980 O.2   134  GLN134     -0.2717
    114  NE2        8.8090   14.7550    5.9980 N.am  134  GLN134     -0.0878
    115  N          2.4860    7.0620    7.4310 N.3   155  TYR155     -0.1241
    116  CA         3.7100    7.6580    6.9620 C.3   155  TYR155      0.1605
    117  C          4.8500    7.3910    7.9480 C.2   155  TYR155      0.2264
    118  O          4.8210    7.8490    9.1000 O.2   155  TYR155     -0.2867
    119  CB         3.5510    9.1740    6.8090 C.3   155  TYR155      0.0534
    120  CG         2.3780    9.6100    5.9490 C.ar  155  TYR155     -0.0201
    121  CD1        1.1150    9.6600    6.4510 C.ar  155  TYR155     -0.0009
    122  CD2        2.5880   10.0010    4.6310 C.ar  155  TYR155     -0.0009
    123  CE1        0.0470   10.0520    5.6800 C.ar  155  TYR155      0.0417
    124  CE2        1.5210   10.4140    3.8420 C.ar  155  TYR155      0.0417
    125  CZ         0.2800   10.4340    4.3710 C.ar  155  TYR155      0.1957
    126  OH        -0.7480   10.8690    3.5640 O.3   155  TYR155     -0.2866
    127  N          8.4080    7.0820    6.5950 N.3   157  PHE157     -0.1241
    128  CA         9.6820    7.4960    5.9800 C.3   157  PHE157      0.1605
    129  C         10.4250    8.5540    6.7940 C.2   157  PHE157      0.2264
    130  O          9.8800    9.2040    7.6950 O.2   157  PHE157     -0.2867
    131  CB         9.4610    7.9750    4.5400 C.3   157  PHE157      0.0534
    132  CG         8.7180    9.2840    4.4480 C.ar  157  PHE157     -0.0203
    133  CD1        7.3240    9.3340    4.3250 C.ar  157  PHE157     -0.0042
    134  CD2        9.4300   10.4580    4.4590 C.ar  157  PHE157     -0.0042
    135  CE1        6.6770   10.5460    4.2730 C.ar  157  PHE157     -0.0003
    136  CE2        8.7840   11.6690    4.4180 C.ar  157  PHE157     -0.0003
    137  CZ         7.4130   11.7200    4.2950 C.ar  157  PHE157     -0.0000
    138  N          5.5640   10.9690    0.7570 N.3   185  TRP185     -0.1241
    139  CA         5.0260   12.3040    0.4630 C.3   185  TRP185      0.1605
    140  C          5.7310   12.9860   -0.6800 C.2   185  TRP185      0.2264
    141  O          6.8630   13.4360   -0.5460 O.2   185  TRP185     -0.2867
    142  CB         5.1220   13.2080    1.6920 C.3   185  TRP185      0.0550
    143  CG         4.3170   14.4560    1.5450 C.ar  185  TRP185      0.0003
    144  CD1        4.7690   15.7100    1.2720 C.ar  185  TRP185      0.0946
    145  CD2        2.8990   14.5640    1.7090 C.ar  185  TRP185      0.0152
    146  NE1        3.7150   16.5910    1.2510 N.ar  185  TRP185     -0.2442
    147  CE2        2.5580   15.9120    1.5060 C.ar  185  TRP185      0.0810
    148  CE3        1.8930   13.6530    2.0200 C.ar  185  TRP185      0.0012
    149  CZ2        1.2470   16.3610    1.5610 C.ar  185  TRP185      0.0191
    150  CZ3        0.6030   14.0980    2.0860 C.ar  185  TRP185      0.0001
    151  CH2        0.2890   15.4430    1.8520 C.ar  185  TRP185      0.0015
@<TRIPOS>BOND
     1   140   141    2
     2   140   139    1
     3   139   138    1
     4   139   142    1
     5   146   144   ar
     6   146   147   ar
     7   144   143   ar
     8   147   149   ar
     9   147   145   ar
    10   143   142    1
    11   143   145   ar
    12   149   151   ar
    13   145   148   ar
    14   151   150   ar
    15   148   150   ar
    16   126   125    1
    17   124   125   ar
    18   124   122   ar
    19   135   137   ar
    20   135   133   ar
    21   137   136   ar
    22   133   132   ar
    23   125   123   ar
    24   136   134   ar
    25   132   134   ar
    26   132   131    1
    27   131   128    1
    28   122   120   ar
    29    92    91   ar
    30    92    90   ar
    31   123   121   ar
    32    91    89   ar
    33   120   121   ar
    34   120   119    1
    35    90    88   ar
    36   128   127    1
    37   128   129    1
    38   114   112   am
    39   113   112    2
    40   112   111    1
    41   129   130    2
    42   119   116    1
    43   116   115    1
    44   116   117    1
    45   105   103   ar
    46    89    88   ar
    47    88    87    1
    48   111   110    1
    49   103   102    1
    50   103   104   ar
    51    12    11    1
    52    22    20   ar
    53    22    21   ar
    54   102    99    1
    55   117   118    2
    56    20    18   ar
    57    11     9   ar
    58    11    10   ar
    59    87    84    1
    60    68    70   ar
    61    68    66   ar
    62    21    19   ar
    63    70    69   ar
    64     9     7   ar
    65    82    81    1
    66   110   107    1
    67    10     8   ar
    68    84    83    1
    69    84    85    1
    70    99   100    1
    71    99    98    1
    72    44    43    1
    73    34    33    1
    74    76    75    1
    75    66    65   ar
    76   106   107    1
    77   106   100   am
    78    97    94    1
    79    69    67   ar
    80     7     6   ar
    81   107   108    1
    82     8     6   ar
    83    18    19   ar
    84    18    17    1
    85   100   101    2
    86    58    57    1
    87    75    72    1
    88    33    31   ar
    89    33    32   ar
    90    31    29   ar
    91     6     5    1
    92    52    50   ar
    93    94    93    1
    94    94    95    1
    95    65    67   ar
    96    65    64    1
    97    43    40    1
    98    85    86    2
    99    81    78    1
   100    59    57    1
   101    32    30   ar
   102    29    28   ar
   103    57    54    1
   104    16    15    2
   105    17    14    1
   106     5     2    1
   107   108   109    2
   108    15    14    1
   109    64    61    1
   110    50    51   ar
   111    50    49    1
   112    95    96    2
   113    30    28   ar
   114    72    73    1
   115    72    71    1
   116    28    27    1
   117    77    78    1
   118    77    73   am
   119    78    79    1
   120    40    39    1
   121    40    41    1
   122    73    74    2
   123    14    13    1
   124    27    24    1
   125    39    37   am
   126    54    53    1
   127    54    55    1
   128    49    46    1
   129    61    60    1
   130    61    62    1
   131    38    37    2
   132    37    36    1
   133     2     1    1
   134     2     3    1
   135    42    41    2
   136    36    35    1
   137    79    80    2
   138     3     4    2
   139    62    63    2
   140    56    55    2
   141    24    25    1
   142    24    23    1
   143    46    45    1
   144    46    47    1
   145    25    26    2
   146    47    48    2
