@<TRIPOS>MOLECULE
tmp/3e6nA02.pdb
 100 100 0 0 0
SMALL
GASTEIGER

@<TRIPOS>ATOM
      1  N        -72.7940   26.8710  -11.1620 N.3   110  CYS110     -0.1235
      2  CA       -72.2210   25.5870  -11.5460 C.3   110  CYS110      0.1677
      3  C        -71.4160   25.6040  -12.8550 C.2   110  CYS110      0.2270
      4  O        -71.9580   25.8260  -13.9440 O.2   110  CYS110     -0.2867
      5  CB       -73.3220   24.5280  -11.6250 C.3   110  CYS110      0.0956
      6  SG       -72.7550   22.8630  -12.0710 S.3   110  CYS110     -0.0801
      7  N        -73.9030   18.8390    3.1170 N.3   173  GLN173     -0.1245
      8  CA       -73.4880   17.8840    2.0880 C.3   173  GLN173      0.1566
      9  C        -73.7840   16.4710    2.5900 C.2   173  GLN173      0.2260
     10  O        -73.7470   16.2260    3.7950 O.2   173  GLN173     -0.2867
     11  CB       -71.9850   18.0000    1.8070 C.3   173  GLN173      0.0367
     12  CG       -71.5400   19.3280    1.2270 C.3   173  GLN173      0.0905
     13  CD       -70.0430   19.4210    1.0530 C.2   173  GLN173      0.2608
     14  OE1      -69.4450   20.4390    1.3670 O.2   173  GLN173     -0.2717
     15  NE2      -69.4330   18.3670    0.5410 N.am  173  GLN173     -0.0878
     16  N        -69.1150   14.6550   -4.0570 N.3   260  PRO260     -0.2102
     17  CA       -69.6020   15.9960   -3.7280 C.3   260  PRO260      0.1504
     18  C        -71.1350   15.9610   -3.9210 C.2   260  PRO260      0.2576
     19  O        -71.6410   15.7860   -5.0330 O.2   260  PRO260     -0.2718
     20  CB       -68.8780   16.8720   -4.7540 C.3   260  PRO260      0.0282
     21  CG       -68.8540   16.0120   -5.9690 C.3   260  PRO260      0.0208
     22  CD       -68.5920   14.6040   -5.4360 C.3   260  PRO260      0.0893
     23  N        -71.8630   16.0070   -2.8130 N.am  261  ALA261     -0.1966
     24  CA       -73.3190   15.9480   -2.8560 C.3   261  ALA261      0.1728
     25  C        -73.9360   17.0400   -2.0180 C.2   261  ALA261      0.2616
     26  O        -73.7090   17.0920   -0.8070 O.2   261  ALA261     -0.2715
     27  CB       -73.7940   14.6080   -2.3660 C.3   261  ALA261      0.0334
     28  N        -74.6850   17.9310   -2.6700 N.am  262  VAL262     -0.1977
     29  CA       -75.3600   19.0260   -1.9740 C.3   262  VAL262      0.1596
     30  C        -76.5920   18.4340   -1.2960 C.2   262  VAL262      0.2287
     31  O        -77.3730   17.7340   -1.9330 O.2   262  VAL262     -0.2864
     32  CB       -75.7600   20.1490   -2.9530 C.3   262  VAL262      0.0276
     33  CG1      -76.7690   21.1120   -2.3010 C.3   262  VAL262      0.0022
     34  CG2      -74.5060   20.9060   -3.3820 C.3   262  VAL262      0.0022
     35  N        -78.3740   16.2630   -4.2810 N.3   279  PHE279     -0.1227
     36  CA       -77.8280   15.9800   -5.6050 C.3   279  PHE279      0.1736
     37  C        -76.3140   16.0000   -5.6110 C.2   279  PHE279      0.2595
     38  O        -75.6830   16.7150   -4.8170 O.2   279  PHE279     -0.2718
     39  CB       -78.3770   16.9750   -6.6580 C.3   279  PHE279      0.0547
     40  CG       -78.1530   18.4410   -6.3240 C.ar  279  PHE279     -0.0202
     41  CD1      -76.9190   19.0510   -6.5530 C.ar  279  PHE279     -0.0042
     42  CD2      -79.1940   19.2220   -5.8290 C.ar  279  PHE279     -0.0042
     43  CE1      -76.7290   20.4220   -6.2940 C.ar  279  PHE279     -0.0003
     44  CE2      -79.0210   20.5840   -5.5690 C.ar  279  PHE279     -0.0003
     45  CZ       -77.7850   21.1840   -5.8030 C.ar  279  PHE279     -0.0000
     46  N        -75.7380   15.2510   -6.5470 N.am  280  ASN280     -0.1960
     47  CA       -74.2840   15.1830   -6.6680 C.3   280  ASN280      0.1819
     48  C        -73.8470   15.1560   -8.1340 C.2   280  ASN280      0.2622
     49  O        -74.6200   14.7850   -9.0280 O.2   280  ASN280     -0.2715
     50  CB       -73.7770   13.8830   -6.0420 C.3   280  ASN280      0.1195
     51  CG       -74.0730   12.6870   -6.9190 C.2   280  ASN280      0.2630
     52  OD1      -75.1950   12.1900   -6.9360 O.2   280  ASN280     -0.2716
     53  ND2      -73.1010   12.2870   -7.7350 N.am  280  ASN280     -0.0877
     54  N        -72.5570   15.4260   -8.3190 N.am  281  GLY281     -0.1940
     55  CA       -71.9080   15.3780   -9.6180 C.3   281  GLY281      0.2014
     56  C        -70.5450   14.8300   -9.2350 C.2   281  GLY281      0.2639
     57  O        -70.4750   13.9810   -8.3370 O.2   281  GLY281     -0.2714
     58  N        -69.4760   15.2430   -9.9180 N.am  282  TRP282     -0.1959
     59  CA       -68.1280   14.8170   -9.5210 C.3   282  TRP282      0.1771
     60  C        -67.2990   16.0520   -9.2120 C.2   282  TRP282      0.2620
     61  O        -67.6760   17.1660   -9.5570 O.2   282  TRP282     -0.2715
     62  CB       -67.4390   13.8940  -10.5400 C.3   282  TRP282      0.0590
     63  CG       -67.4100   14.3820  -11.9410 C.ar  282  TRP282      0.0006
     64  CD1      -66.6050   15.3530  -12.4580 C.ar  282  TRP282      0.0946
     65  CD2      -68.2340   13.9260  -13.0140 C.ar  282  TRP282      0.0152
     66  NE1      -66.8800   15.5340  -13.7920 N.ar  282  TRP282     -0.2442
     67  CE2      -67.8780   14.6720  -14.1600 C.ar  282  TRP282      0.0810
     68  CE3      -69.2430   12.9580  -13.1200 C.ar  282  TRP282      0.0012
     69  CZ2      -68.4970   14.4850  -15.4010 C.ar  282  TRP282      0.0191
     70  CZ3      -69.8600   12.7670  -14.3580 C.ar  282  TRP282      0.0001
     71  CH2      -69.4820   13.5320  -15.4830 C.ar  282  TRP282      0.0015
     72  N        -66.2170   15.8540   -8.4820 N.am  283  TYR283     -0.1960
     73  CA       -65.3370   16.9320   -8.0700 C.3   283  TYR283      0.1771
     74  C        -64.4960   17.6000   -9.1580 C.2   283  TYR283      0.2619
     75  O        -64.1850   17.0100  -10.1900 O.2   283  TYR283     -0.2715
     76  CB       -64.3810   16.4090   -6.9990 C.3   283  TYR283      0.0574
     77  CG       -64.8000   16.7120   -5.5840 C.ar  283  TYR283     -0.0198
     78  CD1      -64.9290   18.0250   -5.1490 C.ar  283  TYR283     -0.0009
     79  CD2      -65.0750   15.6850   -4.6770 C.ar  283  TYR283     -0.0009
     80  CE1      -65.3290   18.3160   -3.8420 C.ar  283  TYR283      0.0417
     81  CE2      -65.4720   15.9630   -3.3680 C.ar  283  TYR283      0.0417
     82  CZ       -65.6000   17.2790   -2.9610 C.ar  283  TYR283      0.1957
     83  OH       -66.0170   17.5740   -1.6870 O.3   283  TYR283     -0.2866
     84  N        -64.1570   18.8570   -8.9090 N.am  284  MET284     -0.1977
     85  CA       -63.2720   19.6190   -9.7650 C.3   284  MET284      0.1605
     86  C        -62.1040   19.7910   -8.7900 C.2   284  MET284      0.2287
     87  O        -62.3070   20.1930   -7.6300 O.2   284  MET284     -0.2864
     88  CB       -63.8710   20.9780  -10.1690 C.3   284  MET284      0.0413
     89  CG       -62.8810   21.8640  -10.9430 C.3   284  MET284      0.0598
     90  SD       -63.5820   23.3470  -11.7120 S.3   284  MET284     -0.1393
     91  CE       -63.3340   24.5690  -10.4080 C.3   284  MET284      0.0692
     92  N        -61.5610   22.3520   -5.7020 N.3   287  GLU287     -0.1245
     93  CA       -62.4930   22.3790   -4.5830 C.3   287  GLU287      0.1567
     94  C        -61.7970   21.8100   -3.3540 C.2   287  GLU287      0.2260
     95  O        -61.8310   22.3930   -2.2610 O.2   287  GLU287     -0.2867
     96  CB       -63.7440   21.5600   -4.9140 C.3   287  GLU287      0.0388
     97  CG       -64.5610   22.0900   -6.0850 C.3   287  GLU287      0.1160
     98  CD       -65.7930   21.2540   -6.3770 C.2   287  GLU287      0.3649
     99  OE1      -66.7880   21.3440   -5.6210 O.co2 287  GLU287     -0.2457
    100  OE2      -65.7740   20.5040   -7.3720 O.co2 287  GLU287     -0.2457
@<TRIPOS>BOND
     1    71    69   ar
     2    71    70   ar
     3    69    67   ar
     4    70    68   ar
     5    67    66   ar
     6    67    65   ar
     7     4     3    2
     8    66    64   ar
     9    68    65   ar
    10    65    63   ar
    11     3     2    1
    12    64    63   ar
    13     6     5    1
    14    63    62    1
    15    90    89    1
    16    90    91    1
    17     5     2    1
    18     2     1    1
    19    89    88    1
    20    62    59    1
    21    75    74    2
    22    88    85    1
    23    58    59    1
    24    58    56   am
    25    85    84    1
    26    85    86    1
    27    55    56    1
    28    55    54    1
    29    61    60    2
    30    59    60    1
    31    56    57    2
    32    60    72   am
    33    74    84   am
    34    74    73    1
    35    49    48    2
    36    86    87    2
    37    72    73    1
    38    54    48   am
    39    48    47    1
    40    73    76    1
    41    53    51   am
    42   100    98   ar
    43    76    77    1
    44    52    51    2
    45    51    50    1
    46    47    46    1
    47    47    50    1
    48    39    40    1
    49    39    36    1
    50    41    40   ar
    51    41    43   ar
    52    46    37   am
    53    98    97    1
    54    98    99   ar
    55    40    42   ar
    56    43    45   ar
    57    97    96    1
    58    21    22    1
    59    21    20    1
    60    42    44   ar
    61    45    44   ar
    62    92    93    1
    63    37    36    1
    64    37    38    2
    65    36    35    1
    66    77    78   ar
    67    77    79   ar
    68    22    16    1
    69    78    80   ar
    70    19    18    2
    71    96    93    1
    72    20    17    1
    73    79    81   ar
    74    93    94    1
    75    16    17    1
    76    18    17    1
    77    18    23   am
    78    80    82   ar
    79    34    32    1
    80    81    82   ar
    81    94    95    2
    82    82    83    1
    83    32    33    1
    84    32    29    1
    85    24    23    1
    86    24    27    1
    87    24    25    1
    88    28    25   am
    89    28    29    1
    90    25    26    2
    91    29    30    1
    92    31    30    2
    93    15    13   am
    94    13    12    1
    95    13    14    2
    96    12    11    1
    97    11     8    1
    98     8     9    1
    99     8     7    1
   100     9    10    2
