@<TRIPOS>MOLECULE
tmp/3e6oB02.pdb
 170 169 0 0 0
SMALL
GASTEIGER

@<TRIPOS>ATOM
      1  N        133.2180  112.0840   98.0720 N.3   109  CYS109     -0.1235
      2  CA       131.9120  112.6380   98.4400 C.3   109  CYS109      0.1677
      3  C        131.8900  113.3520   99.8080 C.2   109  CYS109      0.2270
      4  O        132.0940  112.6950  100.8360 O.2   109  CYS109     -0.2867
      5  CB       130.9000  111.4840   98.4320 C.3   109  CYS109      0.0956
      6  SG       129.3530  111.7620   99.3430 S.3   109  CYS109     -0.0801
      7  N        125.2370  110.8710   83.8480 N.3   172  GLN172     -0.1245
      8  CA       124.2640  111.1140   84.9020 C.3   172  GLN172      0.1566
      9  C        122.8550  111.0300   84.3200 C.2   172  GLN172      0.2260
     10  O        122.6750  111.1460   83.1060 O.2   172  GLN172     -0.2867
     11  CB       124.4960  112.4820   85.5580 C.3   172  GLN172      0.0367
     12  CG       124.9710  113.5560   84.6240 C.3   172  GLN172      0.0905
     13  CD       126.4710  113.5950   84.5140 C.2   172  GLN172      0.2608
     14  OE1      127.0230  113.9710   83.4810 O.2   172  GLN172     -0.2717
     15  NE2      127.1450  113.2160   85.5840 N.am  172  GLN172     -0.0878
     16  N        121.1590  115.5770   82.2990 N.3   175  ARG175     -0.1245
     17  CA       122.2910  116.3750   81.8620 C.3   175  ARG175      0.1563
     18  C        121.8670  117.0780   80.5760 C.2   175  ARG175      0.2260
     19  O        121.0580  116.5470   79.8010 O.2   175  ARG175     -0.2867
     20  CB       123.4870  115.4710   81.5960 C.3   175  ARG175      0.0307
     21  CG       124.7550  116.1860   81.1620 C.3   175  ARG175      0.0489
     22  CD       125.4400  116.8810   82.3270 C.3   175  ARG175      0.2205
     23  NE       126.6040  117.6450   81.8810 N.pl3 175  ARG175     -0.0865
     24  CZ       127.8590  117.2350   82.0030 C.cat 175  ARG175      0.5346
     25  NH1      128.1180  116.0720   82.5700 N.pl3 175  ARG175      0.1354
     26  NH2      128.8570  117.9790   81.5350 N.pl3 175  ARG175      0.1354
     27  N        118.9780  125.2320   85.7860 N.3   255  TRP255     -0.1227
     28  CA       119.6590  123.9620   85.9290 C.3   255  TRP255      0.1737
     29  C        118.7270  122.9320   86.5470 C.2   255  TRP255      0.2595
     30  O        117.7860  123.2840   87.2690 O.2   255  TRP255     -0.2718
     31  CB       120.9070  124.1350   86.7950 C.3   255  TRP255      0.0564
     32  CG       121.9530  123.1030   86.5280 C.ar  255  TRP255      0.0003
     33  CD1      122.2230  121.9830   87.2720 C.ar  255  TRP255      0.0946
     34  CD2      122.8790  123.0950   85.4340 C.ar  255  TRP255      0.0152
     35  NE1      123.2670  121.2820   86.7030 N.ar  255  TRP255     -0.2442
     36  CE2      123.6870  121.9420   85.5760 C.ar  255  TRP255      0.0810
     37  CE3      123.1080  123.9520   84.3480 C.ar  255  TRP255      0.0012
     38  CZ2      124.7100  121.6260   84.6740 C.ar  255  TRP255      0.0191
     39  CZ3      124.1320  123.6380   83.4490 C.ar  255  TRP255      0.0001
     40  CH2      124.9180  122.4820   83.6220 C.ar  255  TRP255      0.0015
     41  N        118.9740  121.6590   86.2520 N.am  256  TYR256     -0.1976
     42  CA       118.1450  120.6020   86.8140 C.3   256  TYR256      0.1639
     43  C        118.3860  120.4300   88.3140 C.2   256  TYR256      0.2290
     44  O        119.4930  120.6120   88.8060 O.2   256  TYR256     -0.2864
     45  CB       118.3900  119.2820   86.0900 C.3   256  TYR256      0.0560
     46  CG       119.8330  118.9460   85.8570 C.ar  256  TYR256     -0.0198
     47  CD1      120.5480  119.5340   84.8130 C.ar  256  TYR256     -0.0009
     48  CD2      120.4780  117.9940   86.6490 C.ar  256  TYR256     -0.0009
     49  CE1      121.8830  119.1700   84.5600 C.ar  256  TYR256      0.0417
     50  CE2      121.8070  117.6260   86.4100 C.ar  256  TYR256      0.0417
     51  CZ       122.5020  118.2150   85.3670 C.ar  256  TYR256      0.1957
     52  OH       123.8090  117.8530   85.1410 O.3   256  TYR256     -0.2866
     53  N        120.9550  115.7020   90.9220 N.3   259  PRO259     -0.2102
     54  CA       122.3250  115.2910   90.6070 C.3   259  PRO259      0.1504
     55  C        122.3800  113.7680   90.7790 C.2   259  PRO259      0.2576
     56  O        122.3240  113.2540   91.9070 O.2   259  PRO259     -0.2718
     57  CB       123.1420  116.0320   91.6570 C.3   259  PRO259      0.0282
     58  CG       122.2680  115.9010   92.8740 C.3   259  PRO259      0.0208
     59  CD       120.8430  116.0980   92.3440 C.3   259  PRO259      0.0893
     60  N        122.4730  113.0410   89.6720 N.am  260  ALA260     -0.1966
     61  CA       122.4930  111.5920   89.7550 C.3   260  ALA260      0.1728
     62  C        123.4900  110.9780   88.8060 C.2   260  ALA260      0.2616
     63  O        123.3900  111.1540   87.6030 O.2   260  ALA260     -0.2715
     64  CB       121.1040  111.0370   89.4710 C.3   260  ALA260      0.0334
     65  N        124.4500  110.2490   89.3570 N.am  261  VAL261     -0.1977
     66  CA       125.4620  109.5900   88.5530 C.3   261  VAL261      0.1596
     67  C        124.8260  108.3560   87.9480 C.2   261  VAL261      0.2287
     68  O        124.0760  107.6370   88.6160 O.2   261  VAL261     -0.2864
     69  CB       126.6530  109.1930   89.4190 C.3   261  VAL261      0.0276
     70  CG1      127.5960  108.2850   88.6350 C.3   261  VAL261      0.0022
     71  CG2      127.3650  110.4480   89.8760 C.3   261  VAL261      0.0022
     72  N        128.5660  104.5740   87.0720 N.3   264  MET264     -0.1245
     73  CA       129.5660  103.9390   87.9020 C.3   264  MET264      0.1570
     74  C        129.2110  102.4940   88.2260 C.2   264  MET264      0.2261
     75  O        128.0660  102.0620   88.0560 O.2   264  MET264     -0.2867
     76  CB       129.7980  104.7700   89.1630 C.3   264  MET264      0.0387
     77  CG       130.5820  106.0420   88.8510 C.3   264  MET264      0.0595
     78  SD       130.8950  107.1550   90.2330 S.3   264  MET264     -0.1393
     79  CE       132.3540  106.3520   91.0100 C.3   264  MET264      0.0692
     80  N        122.7710  106.3870   91.0240 N.3   278  PHE278     -0.1227
     81  CA       122.4540  106.9070   92.3490 C.3   278  PHE278      0.1736
     82  C        122.4610  108.4370   92.3680 C.2   278  PHE278      0.2595
     83  O        123.0140  109.0910   91.4700 O.2   278  PHE278     -0.2718
     84  CB       123.4300  106.3480   93.3990 C.3   278  PHE278      0.0547
     85  CG       124.8850  106.5030   93.0360 C.ar  278  PHE278     -0.0202
     86  CD1      125.4860  107.7580   93.0100 C.ar  278  PHE278     -0.0042
     87  CD2      125.6600  105.3880   92.7310 C.ar  278  PHE278     -0.0042
     88  CE1      126.8350  107.9000   92.6870 C.ar  278  PHE278     -0.0003
     89  CE2      127.0170  105.5230   92.4060 C.ar  278  PHE278     -0.0003
     90  CZ       127.6000  106.7760   92.3850 C.ar  278  PHE278     -0.0000
     91  N        121.8450  109.0030   93.3980 N.am  279  ASN279     -0.1960
     92  CA       121.7790  110.4480   93.5170 C.3   279  ASN279      0.1819
     93  C        121.7170  110.9330   94.9640 C.2   279  ASN279      0.2622
     94  O        121.3940  110.1860   95.8900 O.2   279  ASN279     -0.2715
     95  CB       120.5310  110.9720   92.8330 C.3   279  ASN279      0.1195
     96  CG       119.2820  110.7210   93.6620 C.2   279  ASN279      0.2630
     97  OD1      118.7520  109.6130   93.6900 O.2   279  ASN279     -0.2716
     98  ND2      118.8230  111.7470   94.3680 N.am  279  ASN279     -0.0877
     99  N        122.0110  112.2170   95.1180 N.am  280  GLY280     -0.1940
    100  CA       121.9420  112.8740   96.4040 C.3   280  GLY280      0.2014
    101  C        121.3750  114.2200   96.0080 C.2   280  GLY280      0.2639
    102  O        120.4710  114.2770   95.1710 O.2   280  GLY280     -0.2714
    103  N        121.8790  115.3040   96.5910 N.am  281  TRP281     -0.1959
    104  CA       121.4070  116.6100   96.1860 C.3   281  TRP281      0.1771
    105  C        122.5870  117.5130   95.8680 C.2   281  TRP281      0.2619
    106  O        123.7450  117.1070   95.9900 O.2   281  TRP281     -0.2715
    107  CB       120.4710  117.2280   97.2310 C.3   281  TRP281      0.0590
    108  CG       120.9750  117.2680   98.6160 C.ar  281  TRP281      0.0006
    109  CD1      121.9430  118.0900   99.1150 C.ar  281  TRP281      0.0946
    110  CD2      120.4950  116.4930   99.7140 C.ar  281  TRP281      0.0152
    111  NE1      122.0900  117.8800  100.4640 N.ar  281  TRP281     -0.2442
    112  CE2      121.2120  116.9040  100.8590 C.ar  281  TRP281      0.0810
    113  CE3      119.5260  115.4900   99.8450 C.ar  281  TRP281      0.0012
    114  CZ2      120.9900  116.3470  102.1250 C.ar  281  TRP281      0.0191
    115  CZ3      119.3050  114.9310  101.1110 C.ar  281  TRP281      0.0001
    116  CH2      120.0360  115.3660  102.2300 C.ar  281  TRP281      0.0015
    117  N        122.2910  118.7320   95.4450 N.am  282  TYR282     -0.1974
    118  CA       123.3210  119.6750   95.0430 C.3   282  TYR282      0.1639
    119  C        124.0180  120.5180   96.1000 C.2   282  TYR282      0.2290
    120  O        123.4700  120.8200   97.1660 O.2   282  TYR282     -0.2864
    121  CB       122.7410  120.6390   93.9980 C.3   282  TYR282      0.0560
    122  CG       123.0230  120.2410   92.5800 C.ar  282  TYR282     -0.0198
    123  CD1      124.3290  120.2230   92.0920 C.ar  282  TYR282     -0.0009
    124  CD2      121.9950  119.8550   91.7260 C.ar  282  TYR282     -0.0009
    125  CE1      124.6030  119.8300   90.7920 C.ar  282  TYR282      0.0417
    126  CE2      122.2630  119.4580   90.4210 C.ar  282  TYR282      0.0417
    127  CZ       123.5660  119.4490   89.9650 C.ar  282  TYR282      0.1957
    128  OH       123.8360  119.0520   88.6830 O.3   282  TYR282     -0.2866
    129  N        128.7420  123.5300   92.6540 N.3   286  GLU286     -0.1245
    130  CA       128.7570  122.6070   91.5080 C.3   286  GLU286      0.1567
    131  C        128.1660  123.2990   90.2690 C.2   286  GLU286      0.2260
    132  O        128.7380  123.2680   89.1660 O.2   286  GLU286     -0.2867
    133  CB       127.9120  121.3570   91.7990 C.3   286  GLU286      0.0388
    134  CG       128.2880  120.5210   93.0050 C.3   286  GLU286      0.1160
    135  CD       127.5320  119.1980   93.0050 C.2   286  GLU286      0.3649
    136  OE1      127.7760  118.3880   92.0870 O.co2 286  GLU286     -0.2457
    137  OE2      126.6850  118.9680   93.9030 O.co2 286  GLU286     -0.2457
    138  N        129.7050  124.1580   86.6530 N.3   291  ASP291     -0.1239
    139  CA       128.8100  124.1610   85.4950 C.3   291  ASP291      0.1674
    140  C        128.7450  125.4990   84.7730 C.2   291  ASP291      0.2266
    141  O        128.7340  125.5410   83.5440 O.2   291  ASP291     -0.2867
    142  CB       127.3850  123.7740   85.9040 C.3   291  ASP291      0.1410
    143  CG       127.3100  122.4120   86.5410 C.2   291  ASP291      0.3668
    144  OD1      128.1740  121.5640   86.2360 O.co2 291  ASP291     -0.2456
    145  OD2      126.3770  122.1890   87.3310 O.co2 291  ASP291     -0.2456
    146  N        132.5900  124.5770   80.1150 N.3   297  ARG297     -0.1245
    147  CA       131.1680  124.3530   80.3580 C.3   297  ARG297      0.1563
    148  C        130.3860  125.5680   79.8600 C.2   297  ARG297      0.2260
    149  O        130.6410  126.0470   78.7580 O.2   297  ARG297     -0.2867
    150  CB       130.9120  124.1140   81.8490 C.3   297  ARG297      0.0307
    151  CG       131.6810  122.9180   82.4410 C.3   297  ARG297      0.0489
    152  CD       131.2360  121.5820   81.8560 C.3   297  ARG297      0.2205
    153  NE       129.8270  121.2880   82.1180 N.pl3 297  ARG297     -0.0865
    154  CZ       129.3320  120.9150   83.2960 C.cat 297  ARG297      0.5346
    155  NH1      130.1330  120.7820   84.3500 N.pl3 297  ARG297      0.1354
    156  NH2      128.0280  120.6750   83.4260 N.pl3 297  ARG297      0.1354
    157  N        139.0580  116.4980   96.0280 N.3   372  TRP372     -0.1241
    158  CA       137.6560  116.5860   95.6350 C.3   372  TRP372      0.1605
    159  C        136.7900  117.1890   96.7350 C.2   372  TRP372      0.2264
    160  O        135.7730  117.8230   96.4550 O.2   372  TRP372     -0.2867
    161  CB       137.1220  115.1980   95.2800 C.3   372  TRP372      0.0550
    162  CG       137.3210  114.8650   93.8590 C.ar  372  TRP372      0.0003
    163  CD1      138.5030  114.8420   93.1780 C.ar  372  TRP372      0.0946
    164  CD2      136.2990  114.6030   92.8990 C.ar  372  TRP372      0.0152
    165  NE1      138.2780  114.5890   91.8490 N.ar  372  TRP372     -0.2442
    166  CE2      136.9300  114.4410   91.6510 C.ar  372  TRP372      0.0810
    167  CE3      134.9080  114.4970   92.9720 C.ar  372  TRP372      0.0012
    168  CZ2      136.2180  114.1810   90.4820 C.ar  372  TRP372      0.0191
    169  CZ3      134.2000  114.2400   91.8110 C.ar  372  TRP372      0.0001
    170  CH2      134.8580  114.0850   90.5810 C.ar  372  TRP372      0.0015
@<TRIPOS>BOND
     1   149   148    2
     2    19    18    2
     3   148   147    1
     4   146   147    1
     5   147   150    1
     6    18    17    1
     7    21    20    1
     8    21    22    1
     9    26    24    1
    10    20    17    1
    11   150   151    1
    12   152   153    1
    13   152   151    1
    14    17    16    1
    15    23    24    2
    16    23    22    1
    17    24    25    1
    18   153   154    2
    19    10     9    2
    20   154   156    1
    21   154   155    1
    22    39    40   ar
    23    39    37   ar
    24    14    13    2
    25   141   140    2
    26    40    38   ar
    27     7     8    1
    28     9     8    1
    29    37    34   ar
    30    13    12    1
    31    13    15   am
    32    49    47   ar
    33    49    51   ar
    34    12    11    1
    35    38    36   ar
    36   140   139    1
    37    47    46   ar
    38     8    11    1
    39    52    51    1
    40    51    50   ar
    41    34    36   ar
    42    34    32   ar
    43   139   142    1
    44   139   138    1
    45    36    35   ar
    46    27    28    1
    47    46    45    1
    48    46    48   ar
    49   142   143    1
    50    28    29    1
    51    28    31    1
    52    45    42    1
    53   144   143   ar
    54    41    29   am
    55    41    42    1
    56    50    48   ar
    57    32    31    1
    58    32    33   ar
    59   143   145   ar
    60    29    30    2
    61    35    33   ar
    62    42    43    1
    63    72    73    1
    64    63    62    2
    65    73    74    1
    66    73    76    1
    67    67    66    1
    68    67    68    2
    69    75    74    2
    70    43    44    2
    71    66    65    1
    72    66    69    1
    73    70    69    1
    74   128   127    1
    75    62    65   am
    76    62    61    1
    77    77    76    1
    78    77    78    1
    79   132   131    2
    80    69    71    1
    81    64    61    1
    82    60    61    1
    83    60    55   am
    84   127   126   ar
    85   127   125   ar
    86    78    79    1
    87   131   130    1
    88   126   124   ar
    89   168   170   ar
    90   168   166   ar
    91   170   169   ar
    92    54    55    1
    93    54    53    1
    94    54    57    1
    95    55    56    2
    96   125   123   ar
    97    53    59    1
    98    80    81    1
    99    83    82    2
   100   130   133    1
   101   130   129    1
   102   166   165   ar
   103   166   164   ar
   104    57    58    1
   105   124   122   ar
   106   133   134    1
   107   169   167   ar
   108   165   163   ar
   109   136   135   ar
   110   123   122   ar
   111    59    58    1
   112    81    82    1
   113    81    84    1
   114    82    91   am
   115    90    89   ar
   116    90    88   ar
   117    89    87   ar
   118   122   121    1
   119    88    86   ar
   120    87    85   ar
   121    95    92    1
   122    95    96    1
   123   164   167   ar
   124   164   162   ar
   125   135   134    1
   126   135   137   ar
   127    86    85   ar
   128    85    84    1
   129   163   162   ar
   130    91    92    1
   131    92    93    1
   132    96    97    2
   133    96    98   am
   134   162   161    1
   135   121   118    1
   136    93    99   am
   137    93    94    2
   138   118   117    1
   139   118   119    1
   140    99   100    1
   141   102   101    2
   142   161   158    1
   143   117   105   am
   144   158   157    1
   145   158   159    1
   146   105   106    2
   147   105   104    1
   148   101   100    1
   149   101   103   am
   150   119   120    2
   151   104   103    1
   152   104   107    1
   153   160   159    2
   154   107   108    1
   155     1     2    1
   156     5     2    1
   157     5     6    1
   158     2     3    1
   159   108   109   ar
   160   108   110   ar
   161   109   111   ar
   162   110   113   ar
   163   110   112   ar
   164     3     4    2
   165   113   115   ar
   166   111   112   ar
   167   112   114   ar
   168   115   116   ar
   169   114   116   ar
