@<TRIPOS>MOLECULE
tmp/3e6pB00.pdb
 222 224 0 0 0
SMALL
GASTEIGER

@<TRIPOS>ATOM
      1  N        -44.5350   -7.3300  -17.6560 N.3    28  CYS28      -0.1235
      2  CA       -44.3420   -8.7550  -17.4450 C.3    28  CYS28       0.1677
      3  C        -43.1940   -8.8850  -16.4840 C.2    28  CYS28       0.2270
      4  O        -42.5360   -7.9150  -16.1600 O.2    28  CYS28      -0.2867
      5  CB       -43.9120   -9.4450  -18.7900 C.3    28  CYS28       0.0956
      6  SG       -45.3020  -10.3100  -19.5490 S.3    28  CYS28      -0.0801
      7  N        -44.9080  -14.3800  -25.2540 N.3    43  HIS43      -0.1226
      8  CA       -46.1650  -13.5910  -25.4320 C.3    43  HIS43       0.1752
      9  C        -46.0950  -12.2260  -24.7660 C.2    43  HIS43       0.2596
     10  O        -46.8980  -11.3450  -25.0990 O.2    43  HIS43      -0.2718
     11  CB       -47.4190  -14.3430  -24.9630 C.3    43  HIS43       0.0759
     12  CG       -47.6380  -14.2850  -23.4990 C.ar   43  HIS43       0.0818
     13  ND1      -47.1820  -15.2720  -22.6450 N.ar   43  HIS43      -0.2268
     14  CD2      -48.2830  -13.3690  -22.7280 C.ar   43  HIS43       0.1154
     15  CE1      -47.5350  -14.9580  -21.4030 C.ar   43  HIS43       0.1986
     16  NE2      -48.2170  -13.8160  -21.4250 N.ar   43  HIS43      -0.2212
     17  N        -45.1400  -12.0210  -23.8630 N.am   44  CYS44      -0.1970
     18  CA       -44.9460  -10.6710  -23.3330 C.3    44  CYS44       0.1712
     19  C        -44.4560   -9.6480  -24.4030 C.2    44  CYS44       0.2296
     20  O        -44.6060   -8.4250  -24.2510 O.2    44  CYS44      -0.2864
     21  CB       -43.9340  -10.7090  -22.1930 C.3    44  CYS44       0.0983
     22  SG       -44.5410  -11.7150  -20.8260 S.3    44  CYS44      -0.0798
     23  N        -47.7320  -10.9060  -29.2640 N.3    47  TYR47      -0.1241
     24  CA       -49.0300  -11.6200  -29.2690 C.3    47  TYR47       0.1605
     25  C        -50.0120  -10.8800  -30.1900 C.2    47  TYR47       0.2264
     26  O        -50.8090  -10.0380  -29.7500 O.2    47  TYR47      -0.2867
     27  CB       -49.5480  -11.8780  -27.8390 C.3    47  TYR47       0.0534
     28  CG       -50.6830  -12.8750  -27.7910 C.ar   47  TYR47      -0.0201
     29  CD1      -50.4840  -14.2120  -28.1110 C.ar   47  TYR47      -0.0009
     30  CD2      -51.9800  -12.4730  -27.4550 C.ar   47  TYR47      -0.0009
     31  CE1      -51.5540  -15.1380  -28.1040 C.ar   47  TYR47       0.0417
     32  CE2      -53.0740  -13.4090  -27.4380 C.ar   47  TYR47       0.0417
     33  CZ       -52.8460  -14.7210  -27.7480 C.ar   47  TYR47       0.1957
     34  OH       -53.9020  -15.6260  -27.7440 O.3    47  TYR47      -0.2866
     35  N        -53.7000   -9.7200  -29.5310 N.3    50  TRP50      -0.1241
     36  CA       -53.8810   -8.4940  -28.7560 C.3    50  TRP50       0.1605
     37  C        -53.1000   -7.3300  -29.3790 C.2    50  TRP50       0.2264
     38  O        -52.7910   -6.3400  -28.6880 O.2    50  TRP50      -0.2867
     39  CB       -53.4240   -8.7050  -27.3030 C.3    50  TRP50       0.0550
     40  CG       -54.2530   -9.7160  -26.5500 C.ar   50  TRP50       0.0003
     41  CD1      -55.4540  -10.2070  -26.9270 C.ar   50  TRP50       0.0946
     42  CD2      -53.9500  -10.3220  -25.2890 C.ar   50  TRP50       0.0152
     43  NE1      -55.9270  -11.0920  -25.9970 N.ar   50  TRP50      -0.2442
     44  CE2      -55.0240  -11.1780  -24.9720 C.ar   50  TRP50       0.0810
     45  CE3      -52.8680  -10.2410  -24.4050 C.ar   50  TRP50       0.0012
     46  CZ2      -55.0500  -11.9570  -23.8060 C.ar   50  TRP50       0.0191
     47  CZ3      -52.8810  -11.0150  -23.2640 C.ar   50  TRP50       0.0001
     48  CH2      -53.9780  -11.8550  -22.9570 C.ar   50  TRP50       0.0015
     49  N        -48.0470  -18.9810  -31.1290 N.3    92  TRP92      -0.1241
     50  CA       -49.0850  -18.0700  -30.6360 C.3    92  TRP92       0.1605
     51  C        -50.4780  -18.2800  -31.2190 C.2    92  TRP92       0.2264
     52  O        -51.4580  -17.8450  -30.6150 O.2    92  TRP92      -0.2867
     53  CB       -48.6950  -16.6040  -30.7630 C.3    92  TRP92       0.0550
     54  CG       -48.4640  -16.1070  -32.1450 C.ar   92  TRP92       0.0003
     55  CD1      -47.2540  -15.9820  -32.7890 C.ar   92  TRP92       0.0946
     56  CD2      -49.4540  -15.5970  -33.0560 C.ar   92  TRP92       0.0152
     57  NE1      -47.4340  -15.4470  -34.0430 N.ar   92  TRP92      -0.2442
     58  CE2      -48.7720  -15.2090  -34.2380 C.ar   92  TRP92       0.0810
     59  CE3      -50.8580  -15.4470  -32.9930 C.ar   92  TRP92       0.0012
     60  CZ2      -49.4400  -14.6920  -35.3590 C.ar   92  TRP92       0.0191
     61  CZ3      -51.5290  -14.9130  -34.1030 C.ar   92  TRP92       0.0001
     62  CH2      -50.8090  -14.5360  -35.2740 C.ar   92  TRP92       0.0015
     63  N        -51.9800  -21.1120  -31.6510 N.3    94  GLU94      -0.1231
     64  CA       -52.6790  -22.2030  -31.0400 C.3    94  GLU94       0.1699
     65  C        -52.7130  -22.1510  -29.5170 C.2    94  GLU94       0.2592
     66  O        -53.7550  -21.8630  -28.9080 O.2    94  GLU94      -0.2718
     67  CB       -52.0910  -23.5500  -31.5100 C.3    94  GLU94       0.0402
     68  CG       -52.9580  -24.7610  -31.1180 C.3    94  GLU94       0.1161
     69  CD       -52.1860  -26.0860  -31.0530 C.2    94  GLU94       0.3649
     70  OE1      -51.1870  -26.2920  -31.7710 O.co2  94  GLU94      -0.2457
     71  OE2      -52.5870  -26.9500  -30.2760 O.co2  94  GLU94      -0.2457
     72  N        -51.5840  -22.4560  -28.8920 N.am   95  ASN95      -0.1960
     73  CA       -51.5590  -22.7880  -27.4670 C.3    95  ASN95       0.1819
     74  C        -50.3430  -22.2500  -26.7360 C.2    95  ASN95       0.2621
     75  O        -50.0640  -22.7040  -25.6130 O.2    95  ASN95      -0.2715
     76  CB       -51.6090  -24.2870  -27.2190 C.3    95  ASN95       0.1195
     77  CG       -50.4750  -25.0300  -27.9420 C.2    95  ASN95       0.2630
     78  OD1      -49.7310  -24.4430  -28.7200 O.2    95  ASN95      -0.2716
     79  ND2      -50.2970  -26.2830  -27.6180 N.am   95  ASN95      -0.0877
     80  N        -49.6330  -21.3060  -27.3610 N.am   96  LEU96      -0.1977
     81  CA       -48.4480  -20.7120  -26.7550 C.3    96  LEU96       0.1596
     82  C        -47.3600  -21.7770  -26.4750 C.2    96  LEU96       0.2287
     83  O        -46.5500  -21.6050  -25.5300 O.2    96  LEU96      -0.2864
     84  CB       -48.8170  -20.0390  -25.4270 C.3    96  LEU96       0.0297
     85  CG       -49.1750  -18.5540  -25.2760 C.3    96  LEU96       0.0022
     86  CD1      -49.8410  -17.8810  -26.4900 C.3    96  LEU96       0.0001
     87  CD2      -49.9730  -18.4010  -24.0240 C.3    96  LEU96       0.0001
     88  N        -57.4000  -26.8370  -23.8820 N.3   173  ILE173     -0.1245
     89  CA       -56.2610  -26.3610  -24.6730 C.3   173  ILE173      0.1561
     90  C        -55.1990  -27.4990  -24.7740 C.2   173  ILE173      0.2260
     91  O        -55.0340  -28.3140  -23.8400 O.2   173  ILE173     -0.2867
     92  CB       -55.6740  -25.0820  -24.0420 C.3   173  ILE173      0.0252
     93  CG1      -56.7280  -23.9550  -24.0550 C.3   173  ILE173      0.0019
     94  CG2      -54.3430  -24.6450  -24.7530 C.3   173  ILE173      0.0019
     95  CD1      -56.1650  -22.5930  -23.7640 C.3   173  ILE173      0.0001
     96  N        -51.7120  -19.4040   -7.2320 N.3   193  ASP193     -0.1225
     97  CA       -51.5690  -19.4610   -8.6910 C.3   193  ASP193      0.1805
     98  C        -50.8040  -18.2090   -9.1380 C.2   193  ASP193      0.2598
     99  O        -50.6300  -17.2740   -8.3400 O.2   193  ASP193     -0.2718
    100  CB       -52.9180  -19.4980   -9.3970 C.3   193  ASP193      0.1424
    101  CG       -52.8150  -20.0230  -10.8460 C.2   193  ASP193      0.3668
    102  OD1      -51.6800  -20.3540  -11.3740 O.co2 193  ASP193     -0.2456
    103  OD2      -53.8770  -20.0920  -11.4730 O.co2 193  ASP193     -0.2456
    104  N        -50.2800  -18.2300  -10.3650 N.am  194  ALA194     -0.1966
    105  CA       -49.7840  -17.0100  -10.9760 C.3   194  ALA194      0.1728
    106  C        -51.0330  -16.4400  -11.6450 C.2   194  ALA194      0.2616
    107  O        -52.0760  -17.1370  -11.7440 O.2   194  ALA194     -0.2715
    108  CB       -48.7260  -17.3080  -12.0160 C.3   194  ALA194      0.0334
    109  N        -50.9160  -15.2230  -12.1530 N.am  195  CYS195     -0.1954
    110  CA       -52.0570  -14.5330  -12.7770 C.3   195  CYS195      0.1843
    111  C        -51.5610  -13.6470  -13.9330 C.2   195  CYS195      0.2625
    112  O        -50.3640  -13.6310  -14.2330 O.2   195  CYS195     -0.2714
    113  CB       -52.7610  -13.6970  -11.6940 C.3   195  CYS195      0.0997
    114  SG       -54.5280  -13.3200  -12.1210 S.3   195  CYS195     -0.0797
    115  N        -52.4480  -12.8630  -14.5670 N.am  196  GLU196     -0.1963
    116  CA       -52.0020  -11.9930  -15.6550 C.3   196  GLU196      0.1733
    117  C        -51.0200  -10.9760  -15.0920 C.2   196  GLU196      0.2616
    118  O        -51.1440  -10.5480  -13.9210 O.2   196  GLU196     -0.2715
    119  CB       -53.2000  -11.3110  -16.3250 C.3   196  GLU196      0.0429
    120  CG       -53.8880  -12.2070  -17.3570 C.3   196  GLU196      0.1163
    121  CD       -54.7790  -13.2470  -16.6930 C.2   196  GLU196      0.3649
    122  OE1      -54.9710  -13.1490  -15.4460 O.co2 196  GLU196     -0.2457
    123  OE2      -55.2830  -14.1600  -17.4010 O.co2 196  GLU196     -0.2457
    124  N        -50.0090  -10.6010  -15.8680 N.am  197  GLY197     -0.1955
    125  CA       -48.9670   -9.6820  -15.3030 C.3   197  GLY197      0.1869
    126  C        -47.7990  -10.4400  -14.6830 C.2   197  GLY197      0.2309
    127  O        -46.7030   -9.8540  -14.4490 O.2   197  GLY197     -0.2863
    128  N        -46.5990  -13.2670  -16.1530 N.3   199  SER199     -0.1217
    129  CA       -45.9690  -14.0030  -17.2650 C.3   199  SER199      0.1889
    130  C        -44.5430  -13.6040  -17.3830 C.2   199  SER199      0.2288
    131  O        -44.2370  -12.4420  -17.1790 O.2   199  SER199     -0.2866
    132  CB       -46.6380  -13.6330  -18.5630 C.3   199  SER199      0.2089
    133  OG       -47.8600  -14.3920  -18.6430 O.3   199  SER199     -0.2183
    134  N        -43.6090  -18.5110  -16.2050 N.3   219  VAL219     -0.1231
    135  CA       -45.0580  -18.3220  -16.1800 C.3   219  VAL219      0.1692
    136  C        -45.5350  -18.0880  -17.5890 C.2   219  VAL219      0.2593
    137  O        -45.0550  -17.1630  -18.2620 O.2   219  VAL219     -0.2718
    138  CB       -45.5040  -17.1550  -15.3120 C.3   219  VAL219      0.0266
    139  CG1      -46.9930  -17.0320  -15.3540 C.3   219  VAL219      0.0020
    140  CG2      -44.9830  -17.3320  -13.8650 C.3   219  VAL219      0.0020
    141  N        -46.4820  -18.9100  -18.0280 N.am  220  SER220     -0.1938
    142  CA       -46.9450  -18.8800  -19.4160 C.3   220  SER220      0.2055
    143  C        -48.3950  -18.5900  -19.5740 C.2   220  SER220      0.2643
    144  O        -48.7340  -17.5870  -20.2160 O.2   220  SER220     -0.2714
    145  CB       -46.6400  -20.1850  -20.1610 C.3   220  SER220      0.2130
    146  OG       -46.9800  -20.0350  -21.5330 O.3   220  SER220     -0.2179
    147  N        -49.2630  -19.4770  -19.0430 N.am  221  TRP221     -0.1959
    148  CA       -50.6700  -19.3210  -19.2520 C.3   221  TRP221      0.1771
    149  C        -51.5710  -20.0270  -18.2520 C.2   221  TRP221      0.2620
    150  O        -51.1090  -20.8390  -17.4330 O.2   221  TRP221     -0.2715
    151  CB       -51.0690  -19.7290  -20.6770 C.3   221  TRP221      0.0590
    152  CG       -50.8920  -21.1710  -21.0690 C.ar  221  TRP221      0.0006
    153  CD1      -49.7570  -21.7430  -21.6190 C.ar  221  TRP221      0.0946
    154  CD2      -51.8930  -22.2130  -21.0510 C.ar  221  TRP221      0.0152
    155  NE1      -49.9930  -23.0610  -21.9200 N.ar  221  TRP221     -0.2442
    156  CE2      -51.2760  -23.3880  -21.5590 C.ar  221  TRP221      0.0810
    157  CE3      -53.2500  -22.2690  -20.6550 C.ar  221  TRP221      0.0012
    158  CZ2      -51.9630  -24.6020  -21.6850 C.ar  221  TRP221      0.0191
    159  CZ3      -53.9180  -23.4820  -20.7260 C.ar  221  TRP221      0.0001
    160  CH2      -53.2750  -24.6380  -21.2530 C.ar  221  TRP221      0.0015
    161  N        -52.8530  -19.7050  -18.3140 N.am  222  GLY222     -0.1940
    162  CA       -53.8430  -20.3040  -17.3810 C.3   222  GLY222      0.2014
    163  C        -55.2130  -19.8490  -17.8280 C.2   222  GLY222      0.2639
    164  O        -55.3060  -18.9810  -18.7070 O.2   222  GLY222     -0.2714
    165  N        -56.2620  -20.4390  -17.2640 N.am  223  GLU223     -0.1963
    166  CA       -57.6340  -20.0920  -17.6310 C.3   223  GLU223      0.1733
    167  C        -58.3990  -19.4610  -16.4720 C.2   223  GLU223      0.2617
    168  O        -58.2590  -19.8730  -15.3280 O.2   223  GLU223     -0.2715
    169  CB       -58.3630  -21.3130  -18.1320 C.3   223  GLU223      0.0429
    170  CG       -58.0670  -21.5450  -19.6000 C.3   223  GLU223      0.1163
    171  CD       -58.4800  -22.9120  -20.0730 C.2   223  GLU223      0.3649
    172  OE1      -57.9910  -23.9160  -19.5150 O.co2 223  GLU223     -0.2457
    173  OE2      -59.2830  -22.9800  -21.0280 O.co2 223  GLU223     -0.2457
    174  N        -58.4860  -17.9180  -16.1320 N.am  224  GLY224     -0.1940
    175  CA       -58.6480  -17.3990  -14.7790 C.3   224  GLY224      0.2014
    176  C        -57.3900  -17.5890  -13.9610 C.2   224  GLY224      0.2639
    177  O        -56.3140  -17.8290  -14.5070 O.2   224  GLY224     -0.2714
    178  N        -57.5250  -17.4500  -12.6530 N.am  225  CYS225     -0.1967
    179  CA       -56.4180  -17.5120  -11.7460 C.3   225  CYS225      0.1712
    180  C        -56.9990  -18.1620  -10.5160 C.2   225  CYS225      0.2296
    181  O        -58.0420  -17.7190  -10.0230 O.2   225  CYS225     -0.2864
    182  CB       -55.8840  -16.1010  -11.4000 C.3   225  CYS225      0.0983
    183  SG       -55.4710  -15.0670  -12.8680 S.3   225  CYS225     -0.0798
    184  N        -55.0700  -25.2450  -13.2870 N.3   231  TYR231     -0.1227
    185  CA       -53.6570  -25.2340  -12.8860 C.3   231  TYR231      0.1736
    186  C        -52.9290  -24.1920  -13.7150 C.2   231  TYR231      0.2596
    187  O        -53.2780  -24.0210  -14.8640 O.2   231  TYR231     -0.2718
    188  CB       -53.0120  -26.6440  -13.0390 C.3   231  TYR231      0.0548
    189  CG       -53.8010  -27.6690  -12.2500 C.ar  231  TYR231     -0.0200
    190  CD1      -53.5560  -27.8650  -10.9000 C.ar  231  TYR231     -0.0009
    191  CD2      -54.8310  -28.3830  -12.8380 C.ar  231  TYR231     -0.0009
    192  CE1      -54.2900  -28.7430  -10.1530 C.ar  231  TYR231      0.0417
    193  CE2      -55.5990  -29.2880  -12.0780 C.ar  231  TYR231      0.0417
    194  CZ       -55.3240  -29.4420  -10.7460 C.ar  231  TYR231      0.1957
    195  OH       -56.0450  -30.3250   -9.9850 O.3   231  TYR231     -0.2866
    196  N        -51.9160  -23.5150  -13.1590 N.am  232  GLY232     -0.1942
    197  CA       -51.1020  -22.6140  -13.9910 C.3   232  GLY232      0.2014
    198  C        -50.1590  -23.4080  -14.8990 C.2   232  GLY232      0.2639
    199  O        -49.6610  -24.4400  -14.4760 O.2   232  GLY232     -0.2714
    200  N        -49.8720  -22.9010  -16.1010 N.am  233  PHE233     -0.1959
    201  CA       -48.9580  -23.5650  -17.0380 C.3   233  PHE233      0.1771
    202  C        -47.6800  -22.7990  -17.2590 C.2   233  PHE233      0.2619
    203  O        -47.6670  -21.5650  -17.2880 O.2   233  PHE233     -0.2715
    204  CB       -49.6170  -23.8790  -18.3770 C.3   233  PHE233      0.0574
    205  CG       -50.6300  -25.0110  -18.2840 C.ar  233  PHE233     -0.0200
    206  CD1      -51.9180  -24.7660  -17.8010 C.ar  233  PHE233     -0.0042
    207  CD2      -50.2850  -26.3130  -18.6530 C.ar  233  PHE233     -0.0042
    208  CE1      -52.8640  -25.7980  -17.6560 C.ar  233  PHE233     -0.0003
    209  CE2      -51.2120  -27.3830  -18.5170 C.ar  233  PHE233     -0.0003
    210  CZ       -52.5150  -27.1170  -18.0180 C.ar  233  PHE233     -0.0000
    211  N        -46.5750  -23.5560  -17.3580 N.am  234  TYR234     -0.1974
    212  CA       -45.2420  -22.9550  -17.3280 C.3   234  TYR234      0.1639
    213  C        -44.4590  -23.4830  -18.5270 C.2   234  TYR234      0.2290
    214  O        -44.6380  -24.6130  -18.8740 O.2   234  TYR234     -0.2864
    215  CB       -44.5980  -23.3570  -16.0090 C.3   234  TYR234      0.0560
    216  CG       -45.3260  -22.8050  -14.8100 C.ar  234  TYR234     -0.0198
    217  CD1      -46.4500  -23.4750  -14.2400 C.ar  234  TYR234     -0.0009
    218  CD2      -44.9320  -21.5760  -14.2720 C.ar  234  TYR234     -0.0009
    219  CE1      -47.1330  -22.9160  -13.1730 C.ar  234  TYR234      0.0417
    220  CE2      -45.5950  -21.0230  -13.2190 C.ar  234  TYR234      0.0417
    221  CZ       -46.6780  -21.6900  -12.6680 C.ar  234  TYR234      0.1957
    222  OH       -47.2640  -21.0660  -11.6120 O.3   234  TYR234     -0.2866
@<TRIPOS>BOND
     1    60    62   ar
     2    60    58   ar
     3    62    61   ar
     4    58    57   ar
     5    58    56   ar
     6    61    59   ar
     7    57    55   ar
     8    56    59   ar
     9    56    54   ar
    10    55    54   ar
    11    54    53    1
    12    70    69   ar
    13    63    64    1
    14    67    68    1
    15    67    64    1
    16    51    50    1
    17    51    52    2
    18    49    50    1
    19    68    69    1
    20    69    71   ar
    21    64    65    1
    22    53    50    1
    23    25    26    2
    24    25    24    1
    25    35    36    1
    26    65    66    2
    27    65    72   am
    28    37    36    1
    29    37    38    2
    30    24    23    1
    31    24    27    1
    32    72    73    1
    33    36    39    1
    34    78    77    2
    35    29    31   ar
    36    29    28   ar
    37    31    33   ar
    38    77    79   am
    39    77    76    1
    40    27    28    1
    41    28    30   ar
    42    33    34    1
    43    33    32   ar
    44    73    76    1
    45    73    74    1
    46    30    32   ar
    47    80    81    1
    48    80    74   am
    49    39    40    1
    50    41    40   ar
    51    41    43   ar
    52    81    82    1
    53    81    84    1
    54    74    75    2
    55    40    42   ar
    56    86    85    1
    57    82    83    2
    58    43    44   ar
    59     8     7    1
    60     8    11    1
    61     8     9    1
    62    84    85    1
    63    42    44   ar
    64    42    45   ar
    65    85    87    1
    66    10     9    2
    67    44    46   ar
    68    11    12    1
    69    90    89    1
    70    90    91    2
    71     9    17   am
    72    94    92    1
    73    89    92    1
    74    89    88    1
    75    45    47   ar
    76    19    20    2
    77    19    18    1
    78    93    92    1
    79    93    95    1
    80    17    18    1
    81    46    48   ar
    82    12    14   ar
    83    12    13   ar
    84    18    21    1
    85    47    48   ar
    86    14    16   ar
    87    13    15   ar
    88    21    22    1
    89   155   153   ar
    90   155   156   ar
    91   158   156   ar
    92   158   160   ar
    93   153   152   ar
    94   156   154   ar
    95   146   145    1
    96    16    15   ar
    97   160   159   ar
    98   152   154   ar
    99   152   151    1
   100   154   157   ar
   101   173   171   ar
   102    22     6    1
   103   159   157   ar
   104   151   148    1
   105   144   143    2
   106   145   142    1
   107   171   170    1
   108   171   172   ar
   109   170   169    1
   110   143   142    1
   111   143   147   am
   112     6     5    1
   113   142   141    1
   114   148   147    1
   115   148   149    1
   116   214   213    2
   117     5     2    1
   118   164   163    2
   119   207   209   ar
   120   207   205   ar
   121   133   132    1
   122   132   129    1
   123   213   212    1
   124   209   210   ar
   125   204   205    1
   126   204   201    1
   127   161   149   am
   128   161   162    1
   129   205   206   ar
   130   137   136    2
   131   149   150    2
   132   169   166    1
   133   141   136   am
   134   210   208   ar
   135   163   162    1
   136   163   165   am
   137   206   208   ar
   138     1     2    1
   139   166   165    1
   140   166   167    1
   141   136   135    1
   142     2     3    1
   143   123   121   ar
   144   130   129    1
   145   130   131    2
   146   211   212    1
   147   211   202   am
   148   120   121    1
   149   120   119    1
   150   212   215    1
   151   203   202    2
   152   129   128    1
   153   202   201    1
   154   201   200    1
   155   121   122   ar
   156     3     4    2
   157   167   174   am
   158   167   168    2
   159   119   116    1
   160   134   135    1
   161   135   138    1
   162   174   175    1
   163   200   198   am
   164   215   216    1
   165   124   125    1
   166   124   117   am
   167   116   117    1
   168   116   115    1
   169   139   138    1
   170   138   140    1
   171   125   126    1
   172   117   118    2
   173   198   199    2
   174   198   197    1
   175   187   186    2
   176   216   218   ar
   177   216   217   ar
   178   175   176    1
   179   126   127    2
   180   115   111   am
   181   177   176    2
   182   218   220   ar
   183   217   219   ar
   184   112   111    2
   185   197   196    1
   186   176   178   am
   187   111   110    1
   188   186   196   am
   189   186   185    1
   190   184   185    1
   191   220   221   ar
   192   219   221   ar
   193   188   185    1
   194   188   189    1
   195   183   114    1
   196   183   182    1
   197   191   189   ar
   198   191   193   ar
   199   110   109    1
   200   110   113    1
   201   221   222    1
   202   178   179    1
   203   189   190   ar
   204   109   106   am
   205   114   113    1
   206   193   194   ar
   207   108   105    1
   208   179   182    1
   209   179   180    1
   210   107   106    2
   211   106   105    1
   212   103   101   ar
   213   102   101   ar
   214   105   104    1
   215   190   192   ar
   216   101   100    1
   217   194   192   ar
   218   194   195    1
   219   180   181    2
   220   104    98   am
   221   100    97    1
   222    98    97    1
   223    98    99    2
   224    97    96    1
