@<TRIPOS>MOLECULE
tmp/3e6yB01.pdb
 153 144 0 0 0
SMALL
GASTEIGER

@<TRIPOS>ATOM
      1  N         -5.5110  -34.6990    0.4500 N.3    16  GLU16      -0.1245
      2  CA        -6.7290  -35.1760   -0.1930 C.3    16  GLU16       0.1567
      3  C         -7.7530  -34.0360   -0.2360 C.2    16  GLU16       0.2260
      4  O         -8.3810  -33.8410   -1.2450 O.2    16  GLU16      -0.2867
      5  CB        -7.3100  -36.4190    0.4640 C.3    16  GLU16       0.0388
      6  CG        -8.5390  -36.9550   -0.2870 C.3    16  GLU16       0.1160
      7  CD        -9.3860  -38.0050    0.4830 C.2    16  GLU16       0.3649
      8  OE1      -10.1960  -38.6720   -0.2060 O.co2  16  GLU16      -0.2457
      9  OE2       -9.2710  -38.1830    1.7330 O.co2  16  GLU16      -0.2457
     10  N         -6.6550  -50.6820    7.7490 N.3    42  VAL42      -0.1231
     11  CA        -7.6570  -50.5350    6.7080 C.3    42  VAL42       0.1692
     12  C         -7.6960  -49.0810    6.1800 C.2    42  VAL42       0.2591
     13  O         -7.7820  -48.8350    4.9690 O.2    42  VAL42      -0.2718
     14  CB        -9.0480  -51.0370    7.1990 C.3    42  VAL42       0.0266
     15  CG1      -10.2000  -50.4950    6.3260 C.3    42  VAL42       0.0020
     16  CG2       -9.0680  -52.5540    7.2280 C.3    42  VAL42       0.0020
     17  N         -7.5940  -48.1300    7.1030 N.am   43  GLU43      -0.1979
     18  CA        -7.6150  -46.7090    6.7790 C.3    43  GLU43       0.1602
     19  C         -6.4950  -46.3350    5.7790 C.2    43  GLU43       0.2287
     20  O         -6.7430  -45.6740    4.7240 O.2    43  GLU43      -0.2864
     21  CB        -7.5150  -45.8760    8.0750 C.3    43  GLU43       0.0415
     22  CG        -7.5480  -44.3780    7.8220 C.3    43  GLU43       0.1163
     23  CD        -7.7870  -43.5720    9.0640 C.2    43  GLU43       0.3649
     24  OE1       -6.9160  -43.5770    9.9700 O.co2  43  GLU43      -0.2457
     25  OE2       -8.8540  -42.9290    9.1290 O.co2  43  GLU43      -0.2457
     26  N         -4.6610  -48.2360    3.7610 N.3    45  ARG45      -0.1231
     27  CA        -4.6930  -48.8470    2.4240 C.3    45  ARG45       0.1694
     28  C         -5.7900  -48.2130    1.5600 C.2    45  ARG45       0.2592
     29  O         -5.6190  -48.0400    0.3400 O.2    45  ARG45      -0.2718
     30  CB        -4.7590  -50.3910    2.4700 C.3    45  ARG45       0.0321
     31  CG        -5.9490  -50.9330    3.2270 C.3    45  ARG45       0.0489
     32  CD        -5.9040  -52.4410    3.3130 C.3    45  ARG45       0.2205
     33  NE        -7.2210  -52.9860    3.6170 N.pl3  45  ARG45      -0.0865
     34  CZ        -7.4400  -54.2010    4.1160 C.cat  45  ARG45       0.5346
     35  NH1       -6.4210  -55.0140    4.3930 N.pl3  45  ARG45       0.1354
     36  NH2       -8.6890  -54.5970    4.3470 N.pl3  45  ARG45       0.1354
     37  N         -6.8850  -47.8340    2.2150 N.am   46  ASN46      -0.1960
     38  CA        -7.9390  -47.0860    1.5660 C.3    46  ASN46       0.1819
     39  C         -7.4120  -45.7770    1.0570 C.2    46  ASN46       0.2621
     40  O         -7.6720  -45.4230   -0.0670 O.2    46  ASN46      -0.2715
     41  CB        -9.1280  -46.8860    2.5010 C.3    46  ASN46       0.1195
     42  CG        -9.8690  -48.1860    2.7760 C.2    46  ASN46       0.2630
     43  OD1      -10.8750  -48.1930    3.4750 O.2    46  ASN46      -0.2716
     44  ND2       -9.3760  -49.2890    2.2160 N.am   46  ASN46      -0.0877
     45  N         -6.6270  -45.0800    1.8730 N.am   47  LEU47      -0.1977
     46  CA        -5.9510  -43.8410    1.4310 C.3    47  LEU47       0.1596
     47  C         -4.9760  -44.0100    0.2580 C.2    47  LEU47       0.2287
     48  O         -5.0490  -43.2320   -0.6670 O.2    47  LEU47      -0.2864
     49  CB        -5.2980  -43.0960    2.6080 C.3    47  LEU47       0.0297
     50  CG        -6.2420  -42.4390    3.6130 C.3    47  LEU47       0.0022
     51  CD1       -5.4510  -41.9230    4.8370 C.3    47  LEU47       0.0001
     52  CD2       -7.0960  -41.3170    3.0010 C.3    47  LEU47       0.0001
     53  N         -4.9410  -46.2770   -2.0040 N.3    49  SER49      -0.1202
     54  CA        -5.8310  -46.6200   -3.0670 C.3    49  SER49       0.2020
     55  C         -6.5230  -45.3880   -3.6350 C.2    49  SER49       0.2618
     56  O         -6.6980  -45.2880   -4.8520 O.2    49  SER49      -0.2717
     57  CB        -6.8500  -47.5760   -2.4950 C.3    49  SER49       0.2103
     58  OG        -8.1440  -47.3980   -3.0620 O.3    49  SER49      -0.2182
     59  N         -6.9640  -44.4630   -2.7770 N.am   50  VAL50      -0.1979
     60  CA        -7.6130  -43.2480   -3.2710 C.3    50  VAL50       0.1595
     61  C         -6.5750  -42.3360   -3.9660 C.2    50  VAL50       0.2287
     62  O         -6.7770  -41.8460   -5.0980 O.2    50  VAL50      -0.2864
     63  CB        -8.3700  -42.5190   -2.1540 C.3    50  VAL50       0.0276
     64  CG1       -8.8560  -41.1530   -2.6380 C.3    50  VAL50       0.0022
     65  CG2       -9.5700  -43.3850   -1.6580 C.3    50  VAL50       0.0022
     66  N         -7.6340  -57.5860   -1.6580 N.3   123  PHE123     -0.1241
     67  CA        -7.4110  -56.1230   -1.8620 C.3   123  PHE123      0.1605
     68  C         -6.2370  -55.7590   -2.8160 C.2   123  PHE123      0.2264
     69  O         -6.4390  -55.1350   -3.8820 O.2   123  PHE123     -0.2867
     70  CB        -7.1880  -55.4750   -0.4940 C.3   123  PHE123      0.0534
     71  CG        -7.2900  -53.9510   -0.4830 C.ar  123  PHE123     -0.0203
     72  CD1       -6.1570  -53.1450   -0.7760 C.ar  123  PHE123     -0.0042
     73  CD2       -8.5060  -53.3100   -0.1220 C.ar  123  PHE123     -0.0042
     74  CE1       -6.2300  -51.7540   -0.7320 C.ar  123  PHE123     -0.0003
     75  CE2       -8.5850  -51.9170   -0.0770 C.ar  123  PHE123     -0.0003
     76  CZ        -7.4430  -51.1400   -0.3900 C.ar  123  PHE123     -0.0000
     77  N         -6.9100  -57.3500   -6.2440 N.3   126  LYS126     -0.1231
     78  CA        -7.7320  -56.3450   -6.9760 C.3   126  LYS126      0.1693
     79  C         -6.8610  -55.1940   -7.4770 C.2   126  LYS126      0.2591
     80  O         -6.9460  -54.8250   -8.6430 O.2   126  LYS126     -0.2718
     81  CB        -8.8720  -55.7810   -6.1120 C.3   126  LYS126      0.0285
     82  CG        -9.9120  -54.9350   -6.9050 C.3   126  LYS126      0.0035
     83  CD       -10.9900  -54.3020   -6.0220 C.3   126  LYS126      0.0206
     84  CE       -11.8250  -53.3270   -6.8050 C.3   126  LYS126      0.1093
     85  NZ       -11.0570  -52.0500   -7.0630 N.3   126  LYS126     -0.1314
     86  N         -5.9950  -54.6690   -6.6060 N.am  127  MET127     -0.1979
     87  CA        -5.1800  -53.5170   -6.9710 C.3   127  MET127      0.1605
     88  C         -4.2620  -53.8900   -8.1140 C.2   127  MET127      0.2287
     89  O         -4.1340  -53.1570   -9.0790 O.2   127  MET127     -0.2864
     90  CB        -4.3980  -52.9560   -5.7790 C.3   127  MET127      0.0413
     91  CG        -5.0820  -51.7840   -5.0670 C.3   127  MET127      0.0598
     92  SD        -3.9760  -50.8130   -3.9820 S.3   127  MET127     -0.1393
     93  CE        -3.4460  -49.4550   -5.0070 C.3   127  MET127      0.0692
     94  N         -6.3340  -54.0410  -11.3490 N.3   130  ASP130     -0.1239
     95  CA        -6.6330  -52.6410  -11.6800 C.3   130  ASP130      0.1674
     96  C         -5.4960  -51.9730  -12.4610 C.2   130  ASP130      0.2266
     97  O         -5.6980  -51.4350  -13.5400 O.2   130  ASP130     -0.2867
     98  CB        -6.9870  -51.8420  -10.4170 C.3   130  ASP130      0.1410
     99  CG        -8.3390  -52.2720   -9.7690 C.2   130  ASP130      0.3668
    100  OD1       -9.1800  -52.9700  -10.3850 O.co2 130  ASP130     -0.2456
    101  OD2       -8.5840  -51.9030   -8.5970 O.co2 130  ASP130     -0.2456
    102  N        -18.1000  -55.3870    0.5620 N.3   171  PRO171     -0.2102
    103  CA       -17.5700  -54.4010   -0.3830 C.3   171  PRO171      0.1504
    104  C        -16.4460  -54.8890   -1.3280 C.2   171  PRO171      0.2575
    105  O        -16.5650  -54.7020   -2.5590 O.2   171  PRO171     -0.2718
    106  CB       -17.0810  -53.2950    0.5470 C.3   171  PRO171      0.0282
    107  CG       -18.1710  -53.2950    1.6350 C.3   171  PRO171      0.0208
    108  CD       -18.4340  -54.7520    1.8620 C.3   171  PRO171      0.0893
    109  N        -15.4100  -55.5370   -0.7820 N.am  172  ILE172     -0.1980
    110  CA       -14.2650  -55.9710   -1.5730 C.3   172  ILE172      0.1595
    111  C        -14.6340  -57.0310   -2.6030 C.2   172  ILE172      0.2287
    112  O        -14.2180  -56.9790   -3.7680 O.2   172  ILE172     -0.2864
    113  CB       -13.1210  -56.4930   -0.6790 C.3   172  ILE172      0.0276
    114  CG1      -12.6880  -55.3920    0.3080 C.3   172  ILE172      0.0022
    115  CG2      -11.9660  -56.9310   -1.5450 C.3   172  ILE172      0.0022
    116  CD1      -11.6830  -55.8270    1.3500 C.3   172  ILE172      0.0001
    117  N        -16.5200  -55.2800   -5.3570 N.3   175  GLY175     -0.1225
    118  CA       -15.7140  -54.3640   -6.1690 C.3   175  GLY175      0.1811
    119  C        -14.9900  -55.1680   -7.2320 C.2   175  GLY175      0.2280
    120  O        -14.9990  -54.8550   -8.4420 O.2   175  GLY175     -0.2866
    121  N        -23.8660  -48.8830    3.2980 N.3   213  LYS213     -0.1231
    122  CA       -23.4650  -47.8800    2.3200 C.3   213  LYS213      0.1693
    123  C        -22.5360  -48.4290    1.1980 C.2   213  LYS213      0.2592
    124  O        -22.9580  -48.4860    0.0390 O.2   213  LYS213     -0.2718
    125  CB       -22.8640  -46.6510    3.0250 C.3   213  LYS213      0.0285
    126  CG       -23.8900  -45.8530    3.8040 C.3   213  LYS213      0.0035
    127  CD       -25.1670  -45.6500    2.9770 C.3   213  LYS213      0.0206
    128  CE       -26.2120  -44.8420    3.7490 C.3   213  LYS213      0.1093
    129  NZ       -26.8350  -45.5990    4.8810 N.3   213  LYS213     -0.1314
    130  N        -21.3130  -48.8630    1.5280 N.am  214  ASP214     -0.1974
    131  CA       -20.3490  -49.2720    0.4900 C.3   214  ASP214      0.1709
    132  C        -20.9100  -50.3450   -0.4280 C.2   214  ASP214      0.2293
    133  O        -20.7970  -50.2400   -1.6450 O.2   214  ASP214     -0.2864
    134  CB       -19.0360  -49.7950    1.0870 C.3   214  ASP214      0.1436
    135  CG       -18.2070  -48.7280    1.7890 C.2   214  ASP214      0.3671
    136  OD1      -18.5370  -47.5360    1.7740 O.co2 214  ASP214     -0.2456
    137  OD2      -17.1850  -49.1030    2.3870 O.co2 214  ASP214     -0.2456
    138  N        -23.8810  -49.3550   -2.7650 N.3   217  LEU217     -0.1231
    139  CA       -23.2470  -48.5740   -3.8310 C.3   217  LEU217      0.1693
    140  C        -22.6290  -49.4480   -4.9290 C.2   217  LEU217      0.2591
    141  O        -22.8510  -49.1930   -6.0980 O.2   217  LEU217     -0.2718
    142  CB       -22.1830  -47.6270   -3.2890 C.3   217  LEU217      0.0284
    143  CG       -21.6130  -46.7290   -4.4060 C.3   217  LEU217      0.0019
    144  CD1      -21.9380  -45.3050   -4.1080 C.3   217  LEU217      0.0001
    145  CD2      -20.1120  -46.8700   -4.6000 C.3   217  LEU217      0.0001
    146  N        -21.8500  -50.4580   -4.5650 N.am  218  ILE218     -0.1980
    147  CA       -21.2010  -51.2910   -5.5770 C.3   218  ILE218      0.1595
    148  C        -22.1720  -52.2550   -6.1970 C.2   218  ILE218      0.2287
    149  O        -21.9950  -52.6890   -7.3160 O.2   218  ILE218     -0.2864
    150  CB       -19.9990  -52.0630   -5.0140 C.3   218  ILE218      0.0276
    151  CG1      -18.9860  -51.0790   -4.4090 C.3   218  ILE218      0.0022
    152  CG2      -19.3520  -52.8710   -6.1050 C.3   218  ILE218      0.0022
    153  CD1      -17.9390  -51.7300   -3.5700 C.3   218  ILE218      0.0001
@<TRIPOS>BOND
     1    97    96    2
     2    96    95    1
     3    95    94    1
     4    95    98    1
     5    98    99    1
     6   100    99   ar
     7    99   101   ar
     8    89    88    2
     9    80    79    2
    10   120   119    2
    11    88    87    1
    12    79    78    1
    13    79    86   am
    14   149   148    2
    15   119   118    1
    16    85    84    1
    17    78    77    1
    18    78    81    1
    19    87    86    1
    20    87    90    1
    21    82    81    1
    22    82    83    1
    23    84    83    1
    24   148   147    1
    25   118   117    1
    26   152   150    1
    27   141   140    2
    28    90    91    1
    29   147   150    1
    30   147   146    1
    31    62    61    2
    32    91    92    1
    33   150   151    1
    34    93    92    1
    35   140   146   am
    36   140   139    1
    37    56    55    2
    38   145   143    1
    39   151   153    1
    40   143   144    1
    41   143   142    1
    42    61    60    1
    43    69    68    2
    44   139   142    1
    45   139   138    1
    46   112   111    2
    47    55    54    1
    48    55    59   am
    49    60    59    1
    50    60    63    1
    51    54    57    1
    52    54    53    1
    53    58    57    1
    54    68    67    1
    55    64    63    1
    56   111   110    1
    57   105   104    2
    58    63    65    1
    59    67    66    1
    60    67    70    1
    61   133   132    2
    62   110   109    1
    63   110   113    1
    64   115   113    1
    65   104   109   am
    66   104   103    1
    67     4     3    2
    68    72    74   ar
    69    72    71   ar
    70    74    76   ar
    71   113   114    1
    72    48    47    2
    73    70    71    1
    74    71    73   ar
    75   132   131    1
    76    76    75   ar
    77   103   106    1
    78   103   102    1
    79     6     5    1
    80     6     7    1
    81     3     2    1
    82     8     7   ar
    83     2     1    1
    84     2     5    1
    85    73    75   ar
    86    40    39    2
    87   124   123    2
    88    47    46    1
    89   114   116    1
    90    29    28    2
    91     7     9   ar
    92   131   134    1
    93   131   130    1
    94   106   107    1
    95   102   108    1
    96    39    38    1
    97    39    45   am
    98   134   135    1
    99   123   130   am
   100   123   122    1
   101    46    45    1
   102    46    49    1
   103    28    37   am
   104    28    27    1
   105    38    37    1
   106    38    41    1
   107   107   108    1
   108   136   135   ar
   109   135   137   ar
   110    44    42   am
   111   122   125    1
   112   122   121    1
   113    27    30    1
   114    27    26    1
   115    30    31    1
   116    41    42    1
   117    49    50    1
   118    42    43    2
   119   127   128    1
   120   127   126    1
   121    52    50    1
   122   125   126    1
   123    31    32    1
   124    32    33    1
   125    50    51    1
   126    33    34    2
   127   128   129    1
   128    34    36    1
   129    34    35    1
   130    20    19    2
   131    13    12    2
   132    19    18    1
   133    12    11    1
   134    12    17   am
   135    15    14    1
   136    11    14    1
   137    11    10    1
   138    18    17    1
   139    18    21    1
   140    14    16    1
   141    22    21    1
   142    22    23    1
   143    23    25   ar
   144    23    24   ar
