@<TRIPOS>MOLECULE
tmp/3e70A00.pdb
 148 141 0 0 0
SMALL
GASTEIGER

@<TRIPOS>ATOM
      1  N        -14.4380   29.0300    8.1960 N.3   120  PHE120     -0.1227
      2  CA       -14.9780   30.1460    8.9520 C.3   120  PHE120      0.1736
      3  C        -16.3180   29.7510    9.5370 C.2   120  PHE120      0.2595
      4  O        -17.0090   28.8910    8.9880 O.2   120  PHE120     -0.2718
      5  CB       -15.0880   31.3910    8.0700 C.3   120  PHE120      0.0547
      6  CG       -13.7630   32.0450    7.7910 C.ar  120  PHE120     -0.0202
      7  CD1      -13.0900   32.7300    8.7920 C.ar  120  PHE120     -0.0042
      8  CD2      -13.1840   31.9660    6.5340 C.ar  120  PHE120     -0.0042
      9  CE1      -11.8610   33.3300    8.5420 C.ar  120  PHE120     -0.0003
     10  CE2      -11.9590   32.5660    6.2740 C.ar  120  PHE120     -0.0003
     11  CZ       -11.2950   33.2480    7.2820 C.ar  120  PHE120     -0.0000
     12  N        -16.6730   30.3600   10.6630 N.am  121  ASN121     -0.1960
     13  CA       -17.9500   30.0670   11.3140 C.3   121  ASN121      0.1819
     14  C        -19.1560   30.1920   10.3680 C.2   121  ASN121      0.2622
     15  O        -19.2630   31.1520    9.6010 O.2   121  ASN121     -0.2715
     16  CB       -18.1560   30.9670   12.5390 C.3   121  ASN121      0.1195
     17  CG       -17.3800   30.4970   13.7600 C.2   121  ASN121      0.2630
     18  OD1      -16.9950   29.3320   13.8680 O.2   121  ASN121     -0.2716
     19  ND2      -17.1670   31.4090   14.6990 N.am  121  ASN121     -0.0877
     20  N        -20.0520   29.2110   10.4390 N.am  122  GLY122     -0.1940
     21  CA       -21.2830   29.2230    9.6730 C.3   122  GLY122      0.2014
     22  C        -21.1820   28.4280    8.3840 C.2   122  GLY122      0.2640
     23  O        -22.0960   28.4360    7.5610 O.2   122  GLY122     -0.2714
     24  N        -20.0650   27.7320    8.2060 N.am  123  SER123     -0.1935
     25  CA       -19.8100   27.0280    6.9580 C.3   123  SER123      0.2055
     26  C        -20.3290   25.6020    6.9950 C.2   123  SER123      0.2644
     27  O        -20.3110   24.9060    5.9790 O.2   123  SER123     -0.2714
     28  CB       -18.3120   27.0320    6.6430 C.3   123  SER123      0.2130
     29  OG       -17.8910   28.3350    6.2820 O.3   123  SER123     -0.2179
     30  N        -20.7830   25.1640    8.1630 N.am  124  GLY124     -0.1939
     31  CA       -21.2610   23.8020    8.3160 C.3   124  GLY124      0.2014
     32  C        -20.2310   22.8100    8.8220 C.2   124  GLY124      0.2639
     33  O        -20.4220   21.6000    8.7070 O.2   124  GLY124     -0.2714
     34  N        -19.1400   23.3060    9.3940 N.am  125  LYS125     -0.1963
     35  CA       -18.0590   22.4250    9.8590 C.3   125  LYS125      0.1728
     36  C        -18.4970   21.3550   10.8660 C.2   125  LYS125      0.2617
     37  O        -18.3370   20.1580   10.6320 O.2   125  LYS125     -0.2715
     38  CB       -16.9020   23.2520   10.4470 C.3   125  LYS125      0.0311
     39  CG       -15.7610   22.4090   11.0150 C.3   125  LYS125      0.0038
     40  CD       -14.4560   23.2160   11.1260 C.3   125  LYS125      0.0206
     41  CE       -14.7200   24.6190   11.6320 C.3   125  LYS125      0.1093
     42  NZ       -13.5770   25.5650   11.4260 N.3   125  LYS125     -0.1314
     43  N        -19.0160   21.7870   12.0090 N.am  126  THR126     -0.1937
     44  CA       -19.4210   20.8510   13.0510 C.3   126  THR126      0.2028
     45  C        -20.4320   19.8390   12.4830 C.2   126  THR126      0.2643
     46  O        -20.2810   18.6210   12.6310 O.2   126  THR126     -0.2714
     47  CB       -19.9970   21.5990   14.2810 C.3   126  THR126      0.1808
     48  OG1      -19.0120   22.5210   14.8030 O.3   126  THR126     -0.2208
     49  CG2      -20.4290   20.6100   15.3590 C.3   126  THR126      0.0379
     50  N        -21.4560   20.3440   11.8120 N.am  127  THR127     -0.1936
     51  CA       -22.4320   19.4600   11.1650 C.3   127  THR127      0.2028
     52  C        -21.7440   18.4470   10.2560 C.2   127  THR127      0.2642
     53  O        -22.0390   17.2440   10.2950 O.2   127  THR127     -0.2714
     54  CB       -23.4530   20.2580   10.3410 C.3   127  THR127      0.1808
     55  OG1      -24.1630   21.1480   11.2090 O.3   127  THR127     -0.2208
     56  CG2      -24.4430   19.3140    9.6580 C.3   127  THR127      0.0379
     57  N        -20.8090   18.9360    9.4450 N.am  128  THR128     -0.1950
     58  CA       -20.1520   18.0940    8.4580 C.3   128  THR128      0.1897
     59  C        -19.3170   17.0150    9.1090 C.2   128  THR128      0.2313
     60  O        -19.2800   15.8750    8.6430 O.2   128  THR128     -0.2863
     61  CB       -19.2810   18.9160    7.4900 C.3   128  THR128      0.1794
     62  OG1      -20.1270   19.7110    6.6430 O.3   128  THR128     -0.2208
     63  CG2      -18.4380   17.9960    6.6340 C.3   128  THR128      0.0378
     64  N        -21.6240   14.3550   10.1750 N.3   131  LYS131     -0.1245
     65  CA       -22.0310   13.5480    9.0190 C.3   131  LYS131      0.1561
     66  C        -20.9550   12.5620    8.5680 C.2   131  LYS131      0.2260
     67  O        -21.2610   11.4110    8.2640 O.2   131  LYS131     -0.2867
     68  CB       -22.4800   14.4300    7.8450 C.3   131  LYS131      0.0271
     69  CG       -23.7610   15.1900    8.1110 C.3   131  LYS131      0.0035
     70  CD       -24.4460   15.6560    6.8430 C.3   131  LYS131      0.0206
     71  CE       -24.0210   17.0550    6.4640 C.3   131  LYS131      0.1093
     72  NZ       -25.0480   17.7080    5.5980 N.3   131  LYS131     -0.1314
     73  N        -15.6640   29.3930   21.9380 N.3   152  ARG152     -0.1245
     74  CA       -16.9590   29.8650   21.5280 C.3   152  ARG152      0.1563
     75  C        -17.9280   29.1880   22.4660 C.2   152  ARG152      0.2260
     76  O        -17.9680   27.9910   22.5400 O.2   152  ARG152     -0.2867
     77  CB       -17.2440   29.4700   20.0850 C.3   152  ARG152      0.0307
     78  CG       -18.2930   30.3030   19.3750 C.3   152  ARG152      0.0489
     79  CD       -18.8390   29.6040   18.1210 C.3   152  ARG152      0.2205
     80  NE       -20.1850   29.0980   18.3300 N.pl3 152  ARG152     -0.0865
     81  CZ       -20.5840   27.8670   18.0800 C.cat 152  ARG152      0.5346
     82  NH1      -19.7690   27.0030   17.5750 N.pl3 152  ARG152      0.1354
     83  NH2      -21.8090   27.5090   18.3270 N.pl3 152  ARG152      0.1354
     84  N        -22.7330   21.7470   21.7930 N.3   158  GLN158     -0.1245
     85  CA       -23.3420   21.6410   20.4750 C.3   158  GLN158      0.1566
     86  C        -22.8210   20.4050   19.7600 C.2   158  GLN158      0.2260
     87  O        -23.5920   19.6370   19.1900 O.2   158  GLN158     -0.2867
     88  CB       -22.9990   22.8880   19.6740 C.3   158  GLN158      0.0367
     89  CG       -23.8240   23.1250   18.4480 C.3   158  GLN158      0.0905
     90  CD       -23.4020   24.3960   17.7500 C.2   158  GLN158      0.2608
     91  OE1      -22.2140   24.6080   17.4960 O.2   158  GLN158     -0.2717
     92  NE2      -24.3650   25.2580   17.4470 N.am  158  GLN158     -0.0878
     93  N        -24.4820   16.4720   18.8700 N.3   162  HIS162     -0.1241
     94  CA       -24.4310   15.9210   17.5220 C.3   162  HIS162      0.1621
     95  C        -23.9530   14.4820   17.6090 C.2   162  HIS162      0.2264
     96  O        -24.4820   13.5970   16.9400 O.2   162  HIS162     -0.2867
     97  CB       -23.4650   16.7090   16.6270 C.3   162  HIS162      0.0745
     98  CG       -24.0490   17.9570   16.0450 C.ar  162  HIS162      0.0817
     99  ND1      -25.1060   17.9420   15.1610 N.ar  162  HIS162     -0.2268
    100  CD2      -23.7140   19.2570   16.2090 C.ar  162  HIS162      0.1154
    101  CE1      -25.4020   19.1810   14.8120 C.ar  162  HIS162      0.1986
    102  NE2      -24.5690   19.9980   15.4290 N.ar  162  HIS162     -0.2212
    103  N        -20.8700   22.7170    1.5290 N.3   259  THR259     -0.1203
    104  CA       -22.1260   22.4570    2.2250 C.3   259  THR259      0.1994
    105  C        -23.2700   23.2720    1.6230 C.2   259  THR259      0.2617
    106  O        -23.0410   24.2260    0.8880 O.2   259  THR259     -0.2717
    107  CB       -22.0090   22.8070    3.7210 C.3   259  THR259      0.1784
    108  OG1      -21.7920   24.2170    3.8620 O.3   259  THR259     -0.2211
    109  CG2      -20.8460   22.0650    4.3520 C.3   259  THR259      0.0376
    110  N        -24.4900   22.9480    1.9960 N.am  260  LYS260     -0.1979
    111  CA       -25.6610   23.6900    1.5380 C.3   260  LYS260      0.1596
    112  C        -25.8620   23.6880    0.0130 C.2   260  LYS260      0.2287
    113  O        -26.3530   24.6390   -0.5320 O.2   260  LYS260     -0.2864
    114  CB       -25.6600   25.1100    2.0830 C.3   260  LYS260      0.0298
    115  CG       -25.3090   25.1720    3.5460 C.3   260  LYS260      0.0038
    116  CD       -25.3870   26.5270    4.1680 C.3   260  LYS260      0.0206
    117  CE       -24.6460   26.5280    5.4870 C.3   260  LYS260      0.1093
    118  NZ       -24.4520   27.8600    5.9880 N.3   260  LYS260     -0.1314
    119  N        -27.9870   21.9290   -1.3700 N.3   262  ASP262     -0.1225
    120  CA       -29.4460   21.8580   -1.4530 C.3   262  ASP262      0.1805
    121  C        -30.0660   23.2280   -1.7150 C.2   262  ASP262      0.2597
    122  O        -31.1680   23.3240   -2.2490 O.2   262  ASP262     -0.2718
    123  CB       -30.0690   21.2060   -0.2070 C.3   262  ASP262      0.1424
    124  CG       -29.5070   21.7560    1.0990 C.2   262  ASP262      0.3668
    125  OD1      -28.2790   21.6370    1.3130 O.co2 262  ASP262     -0.2456
    126  OD2      -30.2960   22.2840    1.9220 O.co2 262  ASP262     -0.2456
    127  N        -29.3480   24.2910   -1.3680 N.am  263  ALA263     -0.1979
    128  CA       -29.8890   25.6310   -1.5580 C.3   263  ALA263      0.1597
    129  C        -29.1120   26.4610   -2.5740 C.2   263  ALA263      0.2287
    130  O        -29.3680   27.6610   -2.7180 O.2   263  ALA263     -0.2864
    131  CB       -29.9780   26.3590   -0.2220 C.3   263  ALA263      0.0319
    132  N        -22.5270   18.6080    1.1560 N.3   285  GLY285     -0.1225
    133  CA       -23.6240   18.5880    2.1020 C.3   285  GLY285      0.1811
    134  C        -24.8910   18.9360    1.3360 C.2   285  GLY285      0.2280
    135  O        -24.8690   19.8100    0.4780 O.2   285  GLY285     -0.2866
    136  N        -28.2000   19.0090    3.0010 N.3   287  GLY287     -0.1210
    137  CA       -29.2340   19.0210    4.0100 C.3   287  GLY287      0.1956
    138  C        -28.7040   19.0220    5.4250 C.2   287  GLY287      0.2611
    139  O        -27.5010   19.0130    5.6080 O.2   287  GLY287     -0.2717
    140  N        -29.6200   19.0370    6.4000 N.am  288  GLN288     -0.1979
    141  CA       -29.2880   19.1190    7.8000 C.3   288  GLN288      0.1601
    142  C        -29.3780   17.7820    8.4930 C.2   288  GLN288      0.2287
    143  O        -29.1110   17.6840    9.6690 O.2   288  GLN288     -0.2864
    144  CB       -30.1820   20.1090    8.4940 C.3   288  GLN288      0.0394
    145  CG       -30.2260   21.4480    7.8820 C.3   288  GLN288      0.0908
    146  CD       -30.8090   22.4450    8.8260 C.2   288  GLN288      0.2608
    147  OE1      -31.3050   23.4830    8.4340 O.2   288  GLN288     -0.2717
    148  NE2      -30.7570   22.1280   10.0870 N.am  288  GLN288     -0.0878
@<TRIPOS>BOND
     1   130   129    2
     2   129   128    1
     3   122   121    2
     4   121   120    1
     5   121   127   am
     6   128   127    1
     7   128   131    1
     8   120   119    1
     9   120   123    1
    10   113   112    2
    11   123   124    1
    12   112   111    1
    13   135   134    2
    14   106   105    2
    15   124   125   ar
    16   124   126   ar
    17   132   133    1
    18   134   133    1
    19   103   104    1
    20   111   110    1
    21   111   114    1
    22   105   110   am
    23   105   104    1
    24   114   115    1
    25   104   107    1
    26   136   137    1
    27   115   116    1
    28   107   108    1
    29   107   109    1
    30   137   138    1
    31   116   117    1
    32   138   139    2
    33   138   140   am
    34   117   118    1
    35    72    71    1
    36    27    26    2
    37    10     8   ar
    38    10    11   ar
    39    29    28    1
    40   140   141    1
    41    71    70    1
    42     8     6   ar
    43    63    61    1
    44    28    25    1
    45    62    61    1
    46    70    69    1
    47    25    26    1
    48    25    24    1
    49    26    30   am
    50    11     9   ar
    51    61    58    1
    52    23    22    2
    53     6     5    1
    54     6     7   ar
    55   141   142    1
    56   141   144    1
    57    68    69    1
    58    68    65    1
    59   145   144    1
    60   145   146    1
    61     5     2    1
    62    30    31    1
    63     1     2    1
    64    24    22   am
    65    67    66    2
    66    31    32    1
    67    22    21    1
    68   147   146    2
    69    58    59    1
    70    58    57    1
    71   142   143    2
    72     9     7   ar
    73    66    65    1
    74    60    59    2
    75    33    32    2
    76    32    34   am
    77   146   148   am
    78     2     3    1
    79     4     3    2
    80    65    64    1
    81    34    35    1
    82    57    52   am
    83     3    12   am
    84    15    14    2
    85    56    54    1
    86    21    20    1
    87    35    38    1
    88    35    36    1
    89    52    53    2
    90    52    51    1
    91    54    51    1
    92    54    55    1
    93    14    20   am
    94    14    13    1
    95    38    39    1
    96    37    36    2
    97    12    13    1
    98    36    43   am
    99    39    40    1
   100    40    41    1
   101    51    50    1
   102    13    16    1
   103    42    41    1
   104    50    45   am
   105    43    44    1
   106    45    46    2
   107    45    44    1
   108    16    17    1
   109    44    47    1
   110    17    18    2
   111    17    19   am
   112    47    48    1
   113    47    49    1
   114   101    99   ar
   115   101   102   ar
   116    99    98   ar
   117   102   100   ar
   118    98   100   ar
   119    98    97    1
   120    97    94    1
   121    96    95    2
   122    92    90   am
   123    91    90    2
   124    94    95    1
   125    94    93    1
   126    82    81    1
   127    90    89    1
   128    81    83    1
   129    81    80    2
   130    79    80    1
   131    79    78    1
   132    89    88    1
   133    87    86    2
   134    78    77    1
   135    88    85    1
   136    86    85    1
   137    77    74    1
   138    85    84    1
   139    74    73    1
   140    74    75    1
   141    75    76    2
