@<TRIPOS>MOLECULE
tmp/3e73A00.pdb
 143 137 0 0 0
SMALL
GASTEIGER

@<TRIPOS>ATOM
      1  N        131.0270  245.5080  145.1360 N.3    10  ARG10      -0.1245
      2  CA       130.5240  246.5120  144.2150 C.3    10  ARG10       0.1563
      3  C        128.9960  246.4590  144.0350 C.2    10  ARG10       0.2260
      4  O        128.3810  247.4570  143.6420 O.2    10  ARG10      -0.2867
      5  CB       131.1900  246.3110  142.8550 C.3    10  ARG10       0.0307
      6  CG       131.7050  247.5640  142.2020 C.3    10  ARG10       0.0489
      7  CD       132.9110  248.0990  142.9600 C.3    10  ARG10       0.2205
      8  NE       133.7990  248.8600  142.0820 N.pl3  10  ARG10      -0.0865
      9  CZ       134.7430  249.6820  142.5150 C.cat  10  ARG10       0.5346
     10  NH1      134.9130  249.8490  143.8200 N.pl3  10  ARG10       0.1354
     11  NH2      135.5190  250.3240  141.6590 N.pl3  10  ARG10       0.1354
     12  N        128.0450  261.4330  125.5440 N.3    68  TYR68      -0.1241
     13  CA       128.3200  260.7040  126.7770 C.3    68  TYR68       0.1605
     14  C        127.7340  261.4240  127.9880 C.2    68  TYR68       0.2264
     15  O        127.0830  260.8060  128.8320 O.2    68  TYR68      -0.2867
     16  CB       129.8370  260.4240  126.9160 C.3    68  TYR68       0.0534
     17  CG       130.2360  259.5150  128.0690 C.ar   68  TYR68      -0.0201
     18  CD1      130.2830  258.1190  127.9240 C.ar   68  TYR68      -0.0009
     19  CD2      130.5760  260.0520  129.3090 C.ar   68  TYR68      -0.0009
     20  CE1      130.6580  257.2880  128.9900 C.ar   68  TYR68       0.0417
     21  CE2      130.9440  259.2330  130.3770 C.ar   68  TYR68       0.0417
     22  CZ       130.9860  257.8600  130.2140 C.ar   68  TYR68       0.1957
     23  OH       131.3430  257.0720  131.2810 O.3    68  TYR68      -0.2866
     24  N        135.1460  255.4070  122.8640 N.3   158  LEU158     -0.1245
     25  CA       134.9860  256.7770  123.3540 C.3   158  LEU158      0.1561
     26  C        135.8770  257.8050  122.6640 C.2   158  LEU158      0.2260
     27  O        135.4750  258.9520  122.5000 O.2   158  LEU158     -0.2867
     28  CB       135.1780  256.8600  124.8730 C.3   158  LEU158      0.0270
     29  CG       134.4290  255.9440  125.8550 C.3   158  LEU158      0.0019
     30  CD1      134.2090  256.6650  127.1690 C.3   158  LEU158      0.0001
     31  CD2      133.1040  255.4440  125.3170 C.3   158  LEU158      0.0001
     32  N        136.7550  251.1510  125.9840 N.3   225  HIS225     -0.1241
     33  CA       138.0810  251.4560  125.4390 C.3   225  HIS225      0.1621
     34  C        138.8230  250.2200  124.9200 C.2   225  HIS225      0.2264
     35  O        140.0400  250.2510  124.7880 O.2   225  HIS225     -0.2867
     36  CB       138.9730  252.1100  126.4980 C.3   225  HIS225      0.0745
     37  CG       138.3600  253.2880  127.1830 C.ar  225  HIS225      0.0817
     38  ND1      138.1830  254.5030  126.5580 N.ar  225  HIS225     -0.2268
     39  CD2      137.9090  253.4450  128.4510 C.ar  225  HIS225      0.1154
     40  CE1      137.6350  255.3540  127.4070 C.ar  225  HIS225      0.1986
     41  NE2      137.4580  254.7370  128.5630 N.ar  225  HIS225     -0.2212
     42  N        136.6030  242.7100  139.6870 N.3   277  LEU277     -0.1231
     43  CA       135.4410  243.4270  140.2650 C.3   277  LEU277      0.1693
     44  C        134.6170  244.3850  139.3730 C.2   277  LEU277      0.2591
     45  O        133.5730  244.8670  139.7900 O.2   277  LEU277     -0.2718
     46  CB       135.7540  244.0670  141.6360 C.3   277  LEU277      0.0284
     47  CG       136.8110  245.1310  141.9280 C.3   277  LEU277      0.0019
     48  CD1      137.0980  246.0600  140.7640 C.3   277  LEU277      0.0001
     49  CD2      136.3590  245.9270  143.1430 C.3   277  LEU277      0.0001
     50  N        135.0400  244.6480  138.1510 N.am  278  LEU278     -0.1980
     51  CA       134.1980  245.4920  137.3290 C.3   278  LEU278      0.1596
     52  C        133.1760  244.7340  136.4830 C.2   278  LEU278      0.2287
     53  O        133.5290  243.9870  135.5680 O.2   278  LEU278     -0.2864
     54  CB       135.0360  246.4360  136.4720 C.3   278  LEU278      0.0297
     55  CG       136.0560  247.2940  137.2240 C.3   278  LEU278      0.0022
     56  CD1      136.5060  248.4170  136.2990 C.3   278  LEU278      0.0001
     57  CD2      135.5170  247.8440  138.5600 C.3   278  LEU278      0.0001
     58  N        130.7420  246.3340  134.4550 N.3   280  HIS280     -0.1241
     59  CA       130.2580  247.5650  133.8370 C.3   280  HIS280      0.1621
     60  C        130.1260  247.2440  132.3680 C.2   280  HIS280      0.2264
     61  O        130.6310  246.2260  131.9330 O.2   280  HIS280     -0.2867
     62  CB       131.2650  248.7140  134.0370 C.3   280  HIS280      0.0745
     63  CG       131.5690  249.0040  135.4770 C.ar  280  HIS280      0.0817
     64  ND1      132.6220  249.8020  135.8680 N.ar  280  HIS280     -0.2268
     65  CD2      130.9640  248.5940  136.6210 C.ar  280  HIS280      0.1154
     66  CE1      132.6480  249.8780  137.1890 C.ar  280  HIS280      0.1986
     67  NE2      131.6540  249.1520  137.6700 N.ar  280  HIS280     -0.2212
     68  N        131.4500  249.2130  130.4580 N.3   282  CYS282     -0.1221
     69  CA       132.7390  249.7800  130.0760 C.3   282  CYS282      0.1808
     70  C        133.8790  248.8320  130.4350 C.2   282  CYS282      0.2601
     71  O        134.8750  248.7370  129.7170 O.2   282  CYS282     -0.2717
     72  CB       132.9500  251.1360  130.7520 C.3   282  CYS282      0.0970
     73  SG       132.4870  251.1790  132.4990 S.3   282  CYS282     -0.0800
     74  N        133.7210  248.1330  131.5530 N.am  283  HIS283     -0.1975
     75  CA       134.6790  247.1310  131.9870 C.3   283  HIS283      0.1656
     76  C        134.0600  245.8690  132.5740 C.2   283  HIS283      0.2291
     77  O        133.6130  245.8540  133.7230 O.2   283  HIS283     -0.2864
     78  CB       135.6880  247.7570  132.9520 C.3   283  HIS283      0.0771
     79  CG       136.4420  248.8940  132.3420 C.ar  283  HIS283      0.0820
     80  ND1      136.4920  250.1480  132.9090 N.ar  283  HIS283     -0.2267
     81  CD2      137.1400  248.9740  131.1840 C.ar  283  HIS283      0.1154
     82  CE1      137.2040  250.9490  132.1360 C.ar  283  HIS283      0.1986
     83  NE2      137.6070  250.2620  131.0820 N.ar  283  HIS283     -0.2212
     84  N        127.1970  251.3840  142.1960 N.3   323  LYS323     -0.1245
     85  CA       127.5830  252.5100  141.3600 C.3   323  LYS323      0.1561
     86  C        126.3730  253.3960  141.0340 C.2   323  LYS323      0.2260
     87  O        126.5100  254.6140  140.9290 O.2   323  LYS323     -0.2867
     88  CB       128.2360  252.0100  140.0640 C.3   323  LYS323      0.0271
     89  CG       128.8860  253.1040  139.2020 C.3   323  LYS323      0.0035
     90  CD       130.3920  252.9070  138.9890 C.3   323  LYS323      0.0206
     91  CE       131.2410  253.2850  140.2070 C.3   323  LYS323      0.1093
     92  NZ       132.6890  253.3670  139.8310 N.3   323  LYS323     -0.1314
     93  N        126.8350  253.3910  131.1860 N.3   328  CYS328     -0.1221
     94  CA       128.2590  253.0740  131.1750 C.3   328  CYS328      0.1808
     95  C        128.6000  252.0240  132.2280 C.2   328  CYS328      0.2601
     96  O        129.2350  251.0120  131.9280 O.2   328  CYS328     -0.2717
     97  CB       129.0910  254.3380  131.4050 C.3   328  CYS328      0.0970
     98  SG       130.8290  254.0270  131.7960 S.3   328  CYS328     -0.0800
     99  N        128.1720  252.2720  133.4610 N.am  329  HIS329     -0.1975
    100  CA       128.4620  251.3850  134.5700 C.3   329  HIS329      0.1656
    101  C        127.3780  251.4540  135.6320 C.2   329  HIS329      0.2291
    102  O        127.5830  252.0360  136.6980 O.2   329  HIS329     -0.2864
    103  CB       129.8210  251.7390  135.1650 C.3   329  HIS329      0.0771
    104  CG       130.0970  253.2040  135.1950 C.ar  329  HIS329      0.0820
    105  ND1      130.7090  253.8670  134.1490 N.ar  329  HIS329     -0.2267
    106  CD2      129.8150  254.1390  136.1330 C.ar  329  HIS329      0.1154
    107  CE1      130.8020  255.1530  134.4610 C.ar  329  HIS329      0.1986
    108  NE2      130.2610  255.3420  135.6510 N.ar  329  HIS329     -0.2212
    109  N        125.0220  256.2920  145.1220 N.3   370  ARG370     -0.1245
    110  CA       125.5980  257.6110  144.9650 C.3   370  ARG370      0.1563
    111  C        124.9770  258.2620  143.7240 C.2   370  ARG370      0.2260
    112  O        124.7600  257.5750  142.7220 O.2   370  ARG370     -0.2867
    113  CB       127.1180  257.4910  144.8100 C.3   370  ARG370      0.0307
    114  CG       127.5950  256.6010  143.6540 C.3   370  ARG370      0.0489
    115  CD       128.8650  257.1570  143.0050 C.3   370  ARG370      0.2205
    116  NE       128.8240  256.9870  141.5560 N.pl3 370  ARG370     -0.0865
    117  CZ       129.3450  257.8350  140.6640 C.cat 370  ARG370      0.5346
    118  NH1      129.9750  258.9510  141.0350 N.pl3 370  ARG370      0.1354
    119  NH2      129.2280  257.5610  139.3750 N.pl3 370  ARG370      0.1354
    120  N        125.1440  260.1880  140.2890 N.3   372  PRO372     -0.2102
    121  CA       126.1920  260.2820  139.2870 C.3   372  PRO372      0.1504
    122  C        126.8130  261.6640  139.2020 C.2   372  PRO372      0.2575
    123  O        126.1580  262.6610  139.4730 O.2   372  PRO372     -0.2718
    124  CB       125.4470  260.0170  137.9770 C.3   372  PRO372      0.0282
    125  CG       124.2140  259.3010  138.3680 C.3   372  PRO372      0.0208
    126  CD       123.8370  259.8920  139.6890 C.3   372  PRO372      0.0893
    127  N        128.0650  261.7120  138.7760 N.am  373  ASP373     -0.1974
    128  CA       128.7570  262.9680  138.5580 C.3   373  ASP373      0.1708
    129  C        127.9850  263.9320  137.6580 C.2   373  ASP373      0.2293
    130  O        127.9190  265.1230  137.9400 O.2   373  ASP373     -0.2864
    131  CB       130.1360  262.6890  137.9790 C.3   373  ASP373      0.1436
    132  CG       131.0760  262.1130  139.0060 C.2   373  ASP373      0.3671
    133  OD1      132.2830  261.9780  138.7160 O.co2 373  ASP373     -0.2456
    134  OD2      130.6050  261.8080  140.1170 O.co2 373  ASP373     -0.2456
    135  N        126.0120  258.3300  132.3370 N.3   380  GLU380     -0.1245
    136  CA       126.3320  258.1970  133.7440 C.3   380  GLU380      0.1567
    137  C        125.0450  258.4350  134.4750 C.2   380  GLU380      0.2260
    138  O        124.9240  258.1280  135.6610 O.2   380  GLU380     -0.2867
    139  CB       127.3260  259.2640  134.2230 C.3   380  GLU380      0.0388
    140  CG       128.7560  259.2070  133.6670 C.3   380  GLU380      0.1160
    141  CD       129.6260  260.3630  134.1630 C.2   380  GLU380      0.3649
    142  OE1      129.0910  261.3170  134.7820 O.co2 380  GLU380     -0.2457
    143  OE2      130.8540  260.3130  133.9270 O.co2 380  GLU380     -0.2457
@<TRIPOS>BOND
     1    27    26    2
     2    26    25    1
     3    24    25    1
     4    25    28    1
     5    35    34    2
     6    28    29    1
     7    34    33    1
     8    31    29    1
     9    33    32    1
    10    33    36    1
    11    12    13    1
    12    29    30    1
    13    36    37    1
    14    38    37   ar
    15    38    40   ar
    16    13    16    1
    17    13    14    1
    18    16    17    1
    19    37    39   ar
    20    40    41   ar
    21    18    17   ar
    22    18    20   ar
    23    14    15    2
    24    17    19   ar
    25    39    41   ar
    26    20    22   ar
    27    19    21   ar
    28    71    70    2
    29    69    70    1
    30    69    68    1
    31    69    72    1
    32    22    21   ar
    33    22    23    1
    34    70    74   am
    35    72    73    1
    36    83    81   ar
    37    83    82   ar
    38    94    93    1
    39    94    97    1
    40    94    95    1
    41    81    79   ar
    42    97    98    1
    43    74    75    1
    44    96    95    2
    45    61    60    2
    46    75    76    1
    47    75    78    1
    48    82    80   ar
    49    95    99   am
    50   135   136    1
    51    79    80   ar
    52    79    78    1
    53    60    59    1
    54    76    77    2
    55    99   100    1
    56   140   141    1
    57   140   139    1
    58   136   139    1
    59   136   137    1
    60    59    62    1
    61    59    58    1
    62   143   141   ar
    63    62    63    1
    64   105   107   ar
    65   105   104   ar
    66   141   142   ar
    67   107   108   ar
    68   137   138    2
    69   100   103    1
    70   100   101    1
    71   103   104    1
    72   104   106   ar
    73    63    64   ar
    74    63    65   ar
    75    53    52    2
    76   101   102    2
    77   108   106   ar
    78    64    66   ar
    79    56    55    1
    80    54    55    1
    81    54    51    1
    82    52    51    1
    83    65    67   ar
    84    66    67   ar
    85    55    57    1
    86    51    50    1
    87   129   130    2
    88   129   128    1
    89   124   125    1
    90   124   121    1
    91   131   128    1
    92   131   132    1
    93    50    44   am
    94   125   126    1
    95   128   127    1
    96   133   132   ar
    97   127   122   am
    98    90    89    1
    99    90    91    1
   100   132   134   ar
   101    89    88    1
   102   122   121    1
   103   122   123    2
   104   121   120    1
   105    44    45    2
   106    44    43    1
   107   119   117    1
   108    42    43    1
   109   126   120    1
   110    92    91    1
   111    88    85    1
   112    43    46    1
   113   117   118    1
   114   117   116    2
   115    48    47    1
   116    87    86    2
   117    86    85    1
   118    85    84    1
   119   116   115    1
   120    46    47    1
   121    11     9    1
   122    47    49    1
   123     8     9    2
   124     8     7    1
   125     6     5    1
   126     6     7    1
   127     9    10    1
   128   112   111    2
   129     5     2    1
   130   115   114    1
   131     4     3    2
   132   114   113    1
   133   111   110    1
   134     3     2    1
   135     2     1    1
   136   113   110    1
   137   110   109    1
