@<TRIPOS>MOLECULE
tmp/3e77A00.pdb
 106 99 0 0 0
SMALL
GASTEIGER

@<TRIPOS>ATOM
      1  N         71.0630  -60.2870   23.7940 N.3    70  GLY70      -0.1210
      2  CA        71.4280  -60.6620   25.1570 C.3    70  GLY70       0.1956
      3  C         70.7820  -59.8400   26.2570 C.2    70  GLY70       0.2612
      4  O         70.7210  -60.2760   27.4080 O.2    70  GLY70      -0.2717
      5  N         70.3190  -58.6440   25.9010 N.am   71  GLY71      -0.1942
      6  CA        69.6370  -57.7570   26.8290 C.3    71  GLY71       0.2014
      7  C         70.5420  -57.1220   27.8490 C.2    71  GLY71       0.2639
      8  O         71.7890  -57.2650   27.7840 O.2    71  GLY71      -0.2714
      9  N         69.9080  -56.3980   28.7770 N.am   72  GLY72      -0.1939
     10  CA        70.5830  -55.7510   29.8990 C.3    72  GLY72       0.2014
     11  C         71.5740  -56.6880   30.5820 C.2    72  GLY72       0.2639
     12  O         72.7640  -56.4010   30.6360 O.2    72  GLY72      -0.2714
     13  N         71.0790  -57.8250   31.0600 N.am   73  CYS73      -0.1967
     14  CA        71.8970  -58.8160   31.7550 C.3    73  CYS73       0.1712
     15  C         73.0520  -59.3960   30.9620 C.2    73  CYS73       0.2296
     16  O         74.0980  -59.7560   31.5540 O.2    73  CYS73      -0.2864
     17  CB        71.0130  -59.9270   32.2670 C.3    73  CYS73       0.0983
     18  SG        69.7900  -59.1950   33.3280 S.3    73  CYS73      -0.0798
     19  N         75.6430  -56.9340   31.5470 N.3    76  PHE76      -0.1241
     20  CA        76.2660  -57.1450   32.8470 C.3    76  PHE76       0.1605
     21  C         77.4930  -58.0490   32.7270 C.2    76  PHE76       0.2264
     22  O         78.3670  -57.9970   33.5760 O.2    76  PHE76      -0.2867
     23  CB        75.2980  -57.6970   33.9160 C.3    76  PHE76       0.0534
     24  CG        74.0980  -56.8040   34.1990 C.ar   76  PHE76      -0.0203
     25  CD1       74.0260  -55.4990   33.6960 C.ar   76  PHE76      -0.0042
     26  CD2       73.0450  -57.2690   34.9870 C.ar   76  PHE76      -0.0042
     27  CE1       72.9160  -54.6840   33.9650 C.ar   76  PHE76      -0.0003
     28  CE2       71.9330  -56.4650   35.2570 C.ar   76  PHE76      -0.0003
     29  CZ        71.8560  -55.1710   34.7470 C.ar   76  PHE76      -0.0000
     30  N         68.9770  -53.7680   39.9660 N.3   100  TRP100     -0.1241
     31  CA        69.7460  -53.8960   38.7140 C.3   100  TRP100      0.1605
     32  C         71.2590  -53.6530   38.8280 C.2   100  TRP100      0.2264
     33  O         72.0580  -54.4090   38.2710 O.2   100  TRP100     -0.2867
     34  CB        69.0950  -53.1490   37.5350 C.3   100  TRP100      0.0550
     35  CG        67.7140  -53.7070   37.2200 C.ar  100  TRP100      0.0003
     36  CD1       66.5220  -53.0820   37.4210 C.ar  100  TRP100      0.0946
     37  CD2       67.3970  -55.0130   36.7110 C.ar  100  TRP100      0.0152
     38  NE1       65.4900  -53.8880   37.0450 N.ar  100  TRP100     -0.2442
     39  CE2       65.9890  -55.0870   36.6130 C.ar  100  TRP100      0.0810
     40  CE3       68.1610  -56.1330   36.3370 C.ar  100  TRP100      0.0012
     41  CZ2       65.3150  -56.2480   36.1490 C.ar  100  TRP100      0.0191
     42  CZ3       67.4910  -57.2760   35.8670 C.ar  100  TRP100      0.0001
     43  CH2       66.0800  -57.3190   35.7790 C.ar  100  TRP100      0.0015
     44  N         73.8820  -47.5680   37.6810 N.3   145  CYS145     -0.1235
     45  CA        72.5820  -47.6920   36.9730 C.3   145  CYS145      0.1677
     46  C         71.7540  -46.4080   37.0830 C.2   145  CYS145      0.2270
     47  O         71.4120  -45.9550   38.1840 O.2   145  CYS145     -0.2867
     48  CB        71.7910  -48.9050   37.4680 C.3   145  CYS145      0.0956
     49  SG        70.0340  -48.9950   36.8890 S.3   145  CYS145     -0.0801
     50  N         68.7170  -45.6220   36.3160 N.3   147  ASN147     -0.1240
     51  CA        67.3330  -45.6710   36.7550 C.3   147  ASN147      0.1653
     52  C         66.9480  -47.0490   37.2690 C.2   147  ASN147      0.2266
     53  O         66.7850  -47.9960   36.5080 O.2   147  ASN147     -0.2867
     54  CB        66.4010  -45.2150   35.6370 C.3   147  ASN147      0.1155
     55  CG        64.9620  -45.2280   36.0470 C.2   147  ASN147      0.2627
     56  OD1       64.4990  -44.3430   36.7720 O.2   147  ASN147     -0.2716
     57  ND2       64.2240  -46.2330   35.5740 N.am  147  ASN147     -0.0877
     58  N         64.6890  -49.6610   38.3180 N.3   149  THR149     -0.1218
     59  CA        63.3420  -49.8080   37.7720 C.3   149  THR149      0.1862
     60  C         62.3240  -50.2870   38.7720 C.2   149  THR149      0.2287
     61  O         61.1420  -50.0080   38.6360 O.2   149  THR149     -0.2866
     62  CB        63.4060  -50.7630   36.5930 C.3   149  THR149      0.1770
     63  OG1       64.6380  -50.5010   35.8790 O.3   149  THR149     -0.2211
     64  CG2       62.2130  -50.6010   35.6620 C.3   149  THR149      0.0375
     65  N         74.1570  -48.2320   32.9290 N.3   169  ASP169     -0.1239
     66  CA        72.9660  -48.9690   32.5590 C.3   169  ASP169      0.1674
     67  C         71.8310  -47.9650   32.4250 C.2   169  ASP169      0.2266
     68  O         71.3820  -47.3860   33.4290 O.2   169  ASP169     -0.2867
     69  CB        72.6260  -49.9940   33.6170 C.3   169  ASP169      0.1410
     70  CG        71.5010  -50.9170   33.1930 C.2   169  ASP169      0.3668
     71  OD1       70.7810  -50.6080   32.2060 O.co2 169  ASP169     -0.2456
     72  OD2       71.3330  -51.9670   33.8480 O.co2 169  ASP169     -0.2456
     73  N         68.8930  -48.7440   30.5440 N.3   171  SER171     -0.1202
     74  CA        67.7410  -49.5290   30.1080 C.3   171  SER171      0.2020
     75  C         66.3520  -48.8850   30.2790 C.2   171  SER171      0.2619
     76  O         65.6100  -48.7610   29.3030 O.2   171  SER171     -0.2717
     77  CB        67.7870  -50.9140   30.7440 C.3   171  SER171      0.2103
     78  OG        68.9400  -51.6380   30.3210 O.3   171  SER171     -0.2182
     79  N         66.0270  -48.4270   31.4850 N.am  172  SER172     -0.1951
     80  CA        64.6620  -48.0200   31.7920 C.3   172  SER172      0.1924
     81  C         64.3520  -46.5270   31.6840 C.2   172  SER172      0.2314
     82  O         63.1980  -46.1130   31.8620 O.2   172  SER172     -0.2863
     83  CB        64.2030  -48.5750   33.1340 C.3   172  SER172      0.2116
     84  OG        65.1470  -48.3100   34.1480 O.3   172  SER172     -0.2180
     85  N         68.6850  -52.1290   27.0420 N.3   190  GLY190     -0.1225
     86  CA        67.8230  -53.1080   26.3640 C.3   190  GLY190      0.1811
     87  C         66.6690  -52.3110   25.7840 C.2   190  GLY190      0.2280
     88  O         66.1360  -51.4210   26.4640 O.2   190  GLY190     -0.2866
     89  N         63.5880  -52.9280   25.2800 N.3   192  GLN192     -0.1231
     90  CA        62.2240  -53.2220   25.7100 C.3   192  GLN192      0.1698
     91  C         61.5970  -52.2210   26.6890 C.2   192  GLN192      0.2592
     92  O         60.4370  -51.8580   26.5340 O.2   192  GLN192     -0.2718
     93  CB        62.0670  -54.6850   26.1660 C.3   192  GLN192      0.0381
     94  CG        62.6600  -55.0680   27.5180 C.3   192  GLN192      0.0905
     95  CD        64.1240  -55.4860   27.4370 C.2   192  GLN192      0.2608
     96  OE1       64.8290  -55.1620   26.4770 O.2   192  GLN192     -0.2717
     97  NE2       64.5780  -56.2240   28.4410 N.am  192  GLN192     -0.0878
     98  N         62.3590  -51.7360   27.6590 N.am  193  LYS193     -0.1980
     99  CA        61.7760  -50.8570   28.6800 C.3   193  LYS193      0.1596
    100  C         61.1330  -49.5920   28.1200 C.2   193  LYS193      0.2287
    101  O         60.0420  -49.2180   28.5390 O.2   193  LYS193     -0.2864
    102  CB        62.7980  -50.4760   29.7600 C.3   193  LYS193      0.0298
    103  CG        63.2460  -51.6450   30.6480 C.3   193  LYS193      0.0038
    104  CD        62.0770  -52.4760   31.1750 C.3   193  LYS193      0.0206
    105  CE        62.5390  -53.4640   32.2490 C.3   193  LYS193      0.1093
    106  NZ        63.8110  -54.1850   31.8530 N.3   193  LYS193     -0.1314
@<TRIPOS>BOND
     1     1     2    1
     2     2     3    1
     3    89    90    1
     4    90    93    1
     5    90    91    1
     6    87    86    1
     7    87    88    2
     8     5     3   am
     9     5     6    1
    10    93    94    1
    11     3     4    2
    12    86    85    1
    13    96    95    2
    14    92    91    2
    15    91    98   am
    16     6     7    1
    17    95    94    1
    18    95    97   am
    19    98    99    1
    20     8     7    2
    21     7     9   am
    22   100   101    2
    23   100    99    1
    24    99   102    1
    25     9    10    1
    26    76    75    2
    27   102   103    1
    28    10    11    1
    29    74    75    1
    30    74    73    1
    31    74    77    1
    32    75    79   am
    33    78    77    1
    34    11    12    2
    35    11    13   am
    36   103   104    1
    37    15    16    2
    38    15    14    1
    39    13    14    1
    40   104   105    1
    41    79    80    1
    42    19    20    1
    43    81    80    1
    44    81    82    2
    45    14    17    1
    46    80    83    1
    47   106   105    1
    48    71    70   ar
    49    17    18    1
    50    67    66    1
    51    67    68    2
    52    66    65    1
    53    66    69    1
    54    21    20    1
    55    21    22    2
    56    20    23    1
    57    83    84    1
    58    70    69    1
    59    70    72   ar
    60    25    27   ar
    61    25    24   ar
    62    23    24    1
    63    27    29   ar
    64    24    26   ar
    65    29    28   ar
    66    26    28   ar
    67    57    55   am
    68    54    55    1
    69    54    51    1
    70    64    62    1
    71    43    42   ar
    72    43    41   ar
    73    42    40   ar
    74    63    62    1
    75    55    56    2
    76    41    39   ar
    77    50    51    1
    78    40    37   ar
    79    53    52    2
    80    62    59    1
    81    39    37   ar
    82    39    38   ar
    83    37    35   ar
    84    51    52    1
    85    49    48    1
    86    45    46    1
    87    45    48    1
    88    45    44    1
    89    38    36   ar
    90    46    47    2
    91    35    36   ar
    92    35    34    1
    93    34    31    1
    94    59    58    1
    95    59    60    1
    96    33    32    2
    97    61    60    2
    98    31    32    1
    99    31    30    1
