@<TRIPOS>MOLECULE
tmp/3e79A00.pdb
 109 103 0 0 0
SMALL
GASTEIGER

@<TRIPOS>ATOM
      1  N         46.7970   41.5740   51.5480 N.3   127  GLY127     -0.1210
      2  CA        45.9630   40.5200   52.1080 C.3   127  GLY127      0.1956
      3  C         45.3960   40.8560   53.4670 C.2   127  GLY127      0.2613
      4  O         44.8380   39.9950   54.1530 O.2   127  GLY127     -0.2717
      5  N         45.5050   42.1020   53.9160 N.am  128  THR128     -0.1938
      6  CA        44.9100   42.4510   55.2070 C.3   128  THR128      0.2028
      7  C         43.5110   43.0100   55.0060 C.2   128  THR128      0.2642
      8  O         43.0030   43.1370   53.8920 O.2   128  THR128     -0.2714
      9  CB        45.7550   43.4840   55.9800 C.3   128  THR128      0.1808
     10  OG1       45.8150   44.7280   55.2560 O.3   128  THR128     -0.2208
     11  CG2       47.1930   43.0140   56.1330 C.3   128  THR128      0.0379
     12  N         42.8500   43.3900   56.1020 N.am  129  ASP129     -0.1971
     13  CA        41.4630   43.8370   55.9990 C.3   129  ASP129      0.1709
     14  C         41.2930   45.1050   55.1810 C.2   129  ASP129      0.2293
     15  O         40.1620   45.4330   54.7990 O.2   129  ASP129     -0.2864
     16  CB        40.8800   44.0070   57.4100 C.3   129  ASP129      0.1436
     17  CG        40.9930   45.4160   57.9510 C.2   129  ASP129      0.3671
     18  OD1       39.9770   46.1470   57.9450 O.co2 129  ASP129     -0.2456
     19  OD2       42.0980   45.8060   58.3940 O.co2 129  ASP129     -0.2456
     20  N         40.3190   42.0350   49.5230 N.3   134  VAL134     -0.1245
     21  CA        39.6420   41.5300   50.7150 C.3   134  VAL134      0.1561
     22  C         38.3200   42.2530   50.9090 C.2   134  VAL134      0.2260
     23  O         37.3270   41.6250   51.2910 O.2   134  VAL134     -0.2867
     24  CB        40.5010   41.6900   51.9760 C.3   134  VAL134      0.0252
     25  CG1       39.6460   41.4940   53.2250 C.3   134  VAL134      0.0019
     26  CG2       41.6570   40.6980   51.9750 C.3   134  VAL134      0.0019
     27  N         35.8080   40.7090   48.8000 N.3   137  ALA137     -0.1231
     28  CA        35.3360   39.4680   49.4240 C.3   137  ALA137      0.1694
     29  C         34.3340   39.7200   50.5470 C.2   137  ALA137      0.2591
     30  O         33.3600   38.9760   50.7380 O.2   137  ALA137     -0.2718
     31  CB        36.5340   38.6820   49.9340 C.3   137  ALA137      0.0304
     32  N         34.5420   40.7820   51.3270 N.am  138  LYS138     -0.1980
     33  CA        33.5660   41.0960   52.3750 C.3   138  LYS138      0.1596
     34  C         32.2420   41.4990   51.7640 C.2   138  LYS138      0.2287
     35  O         31.1780   41.1390   52.2750 O.2   138  LYS138     -0.2864
     36  CB        34.1580   42.1770   53.2990 C.3   138  LYS138      0.0298
     37  CG        35.3570   41.5860   54.0410 C.3   138  LYS138      0.0038
     38  CD        36.1290   42.5680   54.8970 C.3   138  LYS138      0.0206
     39  CE        36.5160   41.9090   56.2200 C.3   138  LYS138      0.1093
     40  NZ        37.7820   42.4550   56.7630 N.3   138  LYS138     -0.1314
     41  N         30.4170   38.4270   50.8550 N.3   141  ASN141     -0.1240
     42  CA        29.8170   37.7250   51.9950 C.3   141  ASN141      0.1653
     43  C         28.5120   38.3670   52.4460 C.2   141  ASN141      0.2266
     44  O         27.6110   37.6810   52.9320 O.2   141  ASN141     -0.2867
     45  CB        30.8160   37.6780   53.1630 C.3   141  ASN141      0.1155
     46  CG        31.9770   36.7620   52.8530 C.2   141  ASN141      0.2627
     47  OD1       31.7860   35.8540   52.0420 O.2   141  ASN141     -0.2716
     48  ND2       33.1330   36.9820   53.4700 N.am  141  ASN141     -0.0877
     49  N         36.3570   29.6880   51.8190 N.3   183  ILE183     -0.1245
     50  CA        36.8160   28.9270   52.9810 C.3   183  ILE183      0.1561
     51  C         35.5730   28.3900   53.6950 C.2   183  ILE183      0.2260
     52  O         34.5140   29.0050   53.5900 O.2   183  ILE183     -0.2867
     53  CB        37.6700   29.6930   54.0070 C.3   183  ILE183      0.0252
     54  CG1       36.9480   30.8990   54.6150 C.3   183  ILE183      0.0019
     55  CG2       39.0210   30.0750   53.4240 C.3   183  ILE183      0.0019
     56  CD1       37.8340   31.7680   55.4780 C.3   183  ILE183      0.0001
     57  N         41.7050   31.8300   59.1250 N.3   194  LYS194     -0.1245
     58  CA        42.0830   33.2520   58.9540 C.3   194  LYS194      0.1561
     59  C         43.3460   33.5780   59.7250 C.2   194  LYS194      0.2260
     60  O         44.1990   34.3530   59.2840 O.2   194  LYS194     -0.2867
     61  CB        40.9030   34.1420   59.3640 C.3   194  LYS194      0.0271
     62  CG        39.6950   33.8900   58.4590 C.3   194  LYS194      0.0035
     63  CD        38.7180   35.0400   58.4770 C.3   194  LYS194      0.0206
     64  CE        37.5660   34.8080   59.4330 C.3   194  LYS194      0.1093
     65  NZ        36.2460   35.0370   58.7880 N.3   194  LYS194     -0.1314
     66  N         46.2650   32.4640   57.6450 N.3   197  TRP197     -0.1227
     67  CA        46.3670   33.4540   56.5860 C.3   197  TRP197      0.1737
     68  C         47.0360   34.7150   57.1130 C.2   197  TRP197      0.2595
     69  O         47.9790   35.2620   56.5250 O.2   197  TRP197     -0.2718
     70  CB        44.9780   33.8100   56.0400 C.3   197  TRP197      0.0564
     71  CG        44.9910   34.9230   55.0280 C.ar  197  TRP197      0.0003
     72  CD1       44.7790   36.2470   55.2680 C.ar  197  TRP197      0.0946
     73  CD2       45.2230   34.8090   53.6060 C.ar  197  TRP197      0.0152
     74  NE1       44.8680   36.9640   54.0930 N.ar  197  TRP197     -0.2442
     75  CE2       45.1390   36.0990   53.0590 C.ar  197  TRP197      0.0810
     76  CE3       45.4910   33.7300   52.7590 C.ar  197  TRP197      0.0012
     77  CZ2       45.3150   36.3740   51.6920 C.ar  197  TRP197      0.0191
     78  CZ3       45.6620   33.9980   51.4100 C.ar  197  TRP197      0.0001
     79  CH2       45.5710   35.2970   50.8960 C.ar  197  TRP197      0.0015
     80  N         46.5370   35.2050   58.2530 N.am  198  ASN198     -0.1974
     81  CA        47.1960   36.4200   58.7690 C.3   198  ASN198      0.1688
     82  C         48.6150   36.1720   59.2600 C.2   198  ASN198      0.2292
     83  O         49.4610   37.0630   59.1330 O.2   198  ASN198     -0.2864
     84  CB        46.3330   37.0210   59.8840 C.3   198  ASN198      0.1181
     85  CG        45.0490   37.6010   59.3100 C.2   198  ASN198      0.2629
     86  OD1       45.0560   38.2850   58.2870 O.2   198  ASN198     -0.2716
     87  ND2       43.9460   37.3090   59.9810 N.am  198  ASN198     -0.0877
     88  N         32.4160   30.9000   53.0420 N.3   295  GLU295     -0.1231
     89  CA        32.4550   32.3350   52.7870 C.3   295  GLU295      0.1699
     90  C         33.7020   32.6760   51.9710 C.2   295  GLU295      0.2592
     91  O         34.5940   31.8250   51.9190 O.2   295  GLU295     -0.2718
     92  CB        32.4190   33.1280   54.0870 C.3   295  GLU295      0.0402
     93  CG        33.6720   33.0760   54.9280 C.3   295  GLU295      0.1161
     94  CD        33.4350   33.4220   56.3890 C.2   295  GLU295      0.3649
     95  OE1       34.4460   33.6420   57.0860 O.co2 295  GLU295     -0.2457
     96  OE2       32.2980   33.4720   56.8990 O.co2 295  GLU295     -0.2457
     97  N         33.6780   33.8780   51.3980 N.am  296  ALA296     -0.1966
     98  CA        34.7970   34.3360   50.5850 C.3   296  ALA296      0.1728
     99  C         35.9240   34.8550   51.4650 C.2   296  ALA296      0.2616
    100  O         35.6790   35.5840   52.4340 O.2   296  ALA296     -0.2715
    101  CB        34.3540   35.4090   49.5910 C.3   296  ALA296      0.0334
    102  N         37.1500   34.4710   51.1120 N.am  297  LEU297     -0.1977
    103  CA        38.3120   34.9710   51.8410 C.3   297  LEU297      0.1596
    104  C         38.9090   36.1690   51.1250 C.2   297  LEU297      0.2287
    105  O         39.1880   37.2050   51.7270 O.2   297  LEU297     -0.2864
    106  CB        39.3430   33.8610   52.0070 C.3   297  LEU297      0.0297
    107  CG        40.6820   34.2630   52.6320 C.3   297  LEU297      0.0022
    108  CD1       40.5100   34.4580   54.1290 C.3   297  LEU297      0.0001
    109  CD2       41.7450   33.2130   52.3270 C.3   297  LEU297      0.0001
@<TRIPOS>BOND
     1    27    28    1
     2    28    31    1
     3    28    29    1
     4    20    21    1
     5   101    98    1
     6    29    30    2
     7    29    32   am
     8    98    97    1
     9    98    99    1
    10    21    22    1
    11    21    24    1
    12    41    42    1
    13    79    78   ar
    14    79    77   ar
    15    22    23    2
    16   102    99   am
    17   102   103    1
    18   104   105    2
    19   104   103    1
    20    32    33    1
    21    97    90   am
    22    78    76   ar
    23    99   100    2
    24     1     2    1
    25    77    75   ar
    26    34    35    2
    27    34    33    1
    28    49    50    1
    29   103   106    1
    30    91    90    2
    31    90    89    1
    32    26    24    1
    33    24    25    1
    34    42    43    1
    35    42    45    1
    36   106   107    1
    37    47    46    2
    38     2     3    1
    39   109   107    1
    40    33    36    1
    41    43    44    2
    42   107   108    1
    43    76    73   ar
    44    89    88    1
    45    89    92    1
    46    46    45    1
    47    46    48   am
    48    50    51    1
    49    50    53    1
    50    75    73   ar
    51    75    74   ar
    52    36    37    1
    53    55    53    1
    54     3     5   am
    55     3     4    2
    56    52    51    2
    57    73    71   ar
    58     8     7    2
    59     5     6    1
    60    53    54    1
    61    37    38    1
    62    92    93    1
    63    74    72   ar
    64    54    56    1
    65    15    14    2
    66    38    39    1
    67    93    94    1
    68     7     6    1
    69     7    12   am
    70    71    72   ar
    71    71    70    1
    72    14    13    1
    73     6     9    1
    74    10     9    1
    75     9    11    1
    76    13    12    1
    77    13    16    1
    78    70    67    1
    79    39    40    1
    80    94    96   ar
    81    94    95   ar
    82    69    68    2
    83    67    68    1
    84    67    66    1
    85    68    80   am
    86    16    17    1
    87    18    17   ar
    88    17    19   ar
    89    80    81    1
    90    86    85    2
    91    62    63    1
    92    62    61    1
    93    63    64    1
    94    81    82    1
    95    81    84    1
    96    65    64    1
    97    58    57    1
    98    58    61    1
    99    58    59    1
   100    83    82    2
   101    60    59    2
   102    85    84    1
   103    85    87   am
