@<TRIPOS>MOLECULE
tmp/3e7aA00.pdb
 228 224 0 0 0
SMALL
GASTEIGER

@<TRIPOS>ATOM
      1  N         -2.6020  -32.4110   12.6210 N.3    58  ASP58      -0.1239
      2  CA        -1.7460  -32.4770   11.4240 C.3    58  ASP58       0.1674
      3  C         -2.4660  -33.1360   10.2620 C.2    58  ASP58       0.2266
      4  O         -3.1740  -34.1330   10.4620 O.2    58  ASP58      -0.2867
      5  CB        -0.4870  -33.3060   11.6850 C.3    58  ASP58       0.1410
      6  CG         0.4190  -32.7400   12.7820 C.2    58  ASP58       0.3668
      7  OD1       -0.0240  -31.9600   13.6490 O.co2  58  ASP58      -0.2456
      8  OD2        1.5870  -33.1590   12.7950 O.co2  58  ASP58      -0.2456
      9  N         -0.6020  -33.0360    6.7730 N.3    60  HIS60      -0.1241
     10  CA         0.5620  -33.5730    6.0370 C.3    60  HIS60       0.1621
     11  C          0.2210  -34.0930    4.6390 C.2    60  HIS60       0.2264
     12  O          0.5510  -35.2110    4.2630 O.2    60  HIS60      -0.2867
     13  CB         1.3050  -34.6200    6.8700 C.3    60  HIS60       0.0745
     14  CG         2.1590  -34.0300    7.9410 C.ar   60  HIS60       0.0817
     15  ND1        3.1490  -33.1100    7.6650 N.ar   60  HIS60      -0.2268
     16  CD2        2.1830  -34.2200    9.2850 C.ar   60  HIS60       0.1154
     17  CE1        3.7450  -32.7590    8.7920 C.ar   60  HIS60       0.1986
     18  NE2        3.1700  -33.4090    9.7900 N.ar   60  HIS60      -0.2212
     19  N          5.3760  -34.8380    3.7310 N.3    90  ARG90      -0.1245
     20  CA         5.1140  -36.2620    3.9520 C.3    90  ARG90       0.1563
     21  C          4.1110  -36.8900    3.0120 C.2    90  ARG90       0.2260
     22  O          4.4110  -37.9230    2.3960 O.2    90  ARG90      -0.2867
     23  CB         4.7400  -36.5360    5.3990 C.3    90  ARG90       0.0307
     24  CG         5.7170  -35.9830    6.3750 C.3    90  ARG90       0.0489
     25  CD         7.0170  -36.7270    6.3110 C.3    90  ARG90       0.2205
     26  NE         7.6320  -36.8160    7.6150 N.pl3  90  ARG90      -0.0865
     27  CZ         8.7210  -37.5320    7.8850 C.cat  90  ARG90       0.5346
     28  NH1        9.3480  -38.2310    6.9460 N.pl3  90  ARG90       0.1354
     29  NH2        9.1800  -37.5400    9.1170 N.pl3  90  ARG90       0.1354
     30  N          5.3530  -26.6330   12.5540 N.3   118  ASN118     -0.1225
     31  CA         6.7910  -26.6400   12.2880 C.3   118  ASN118      0.1785
     32  C          7.1210  -26.9770   10.8350 C.2   118  ASN118      0.2597
     33  O          8.2220  -26.6940   10.3940 O.2   118  ASN118     -0.2718
     34  CB         7.5600  -27.5610   13.2470 C.3   118  ASN118      0.1169
     35  CG         7.1880  -29.0060   13.0990 C.2   118  ASN118      0.2627
     36  OD1        6.0070  -29.3550   13.0870 O.2   118  ASN118     -0.2716
     37  ND2        8.1970  -29.8770   13.0390 N.am  118  ASN118     -0.0877
     38  N          6.1750  -27.5290   10.0770 N.am  119  HIS119     -0.1975
     39  CA         6.3940  -27.7810    8.6460 C.3   119  HIS119      0.1656
     40  C          6.0640  -26.6050    7.7180 C.2   119  HIS119      0.2291
     41  O          6.3400  -26.6510    6.5010 O.2   119  HIS119     -0.2864
     42  CB         5.6550  -29.0600    8.2270 C.3   119  HIS119      0.0771
     43  CG         6.3280  -30.3020    8.7310 C.ar  119  HIS119      0.0820
     44  ND1        7.0900  -31.1120    7.9180 N.ar  119  HIS119     -0.2267
     45  CD2        6.4350  -30.8140    9.9790 C.ar  119  HIS119      0.1154
     46  CE1        7.5940  -32.0990    8.6340 C.ar  119  HIS119      0.1986
     47  NE2        7.2040  -31.9510    9.8870 N.ar  119  HIS119     -0.2212
     48  N          7.5890  -23.9770    7.1600 N.3   121  CYS121     -0.1235
     49  CA         8.9360  -23.4940    7.4060 C.3   121  CYS121      0.1677
     50  C          9.8150  -24.0220    6.2750 C.2   121  CYS121      0.2270
     51  O          9.8630  -25.2310    6.0480 O.2   121  CYS121     -0.2867
     52  CB         9.4090  -24.0250    8.7510 C.3   121  CYS121      0.0956
     53  SG        11.1830  -23.9320    9.0250 S.3   121  CYS121     -0.0801
     54  N         13.0820  -24.4220    5.6650 N.3   123  SER123     -0.1202
     55  CA        14.1800  -25.3630    5.8830 C.3   123  SER123      0.2020
     56  C         13.6540  -26.7770    6.1380 C.2   123  SER123      0.2618
     57  O         14.3140  -27.7380    5.7480 O.2   123  SER123     -0.2717
     58  CB        15.1160  -24.9150    6.9990 C.3   123  SER123      0.2103
     59  OG        14.4770  -24.9730    8.2450 O.3   123  SER123     -0.2182
     60  N         12.4730  -26.9040    6.7390 N.am  124  ILE124     -0.1979
     61  CA        11.8560  -28.2220    6.9410 C.3   124  ILE124      0.1595
     62  C         11.2160  -28.7560    5.6470 C.2   124  ILE124      0.2287
     63  O         11.3990  -29.9220    5.3220 O.2   124  ILE124     -0.2864
     64  CB        10.8350  -28.1900    8.1080 C.3   124  ILE124      0.0276
     65  CG1       11.5600  -27.9580    9.4320 C.3   124  ILE124      0.0022
     66  CG2        9.9970  -29.4710    8.1420 C.3   124  ILE124      0.0022
     67  CD1       12.4450  -29.1060    9.8800 C.3   124  ILE124      0.0001
     68  N         13.4150  -30.5380    3.0450 N.3   127  ILE127     -0.1231
     69  CA        13.7740  -31.9230    3.3270 C.3   127  ILE127      0.1692
     70  C         12.5770  -32.8650    3.2560 C.2   127  ILE127      0.2592
     71  O         12.7100  -33.9840    2.7610 O.2   127  ILE127     -0.2718
     72  CB        14.3360  -32.0590    4.7700 C.3   127  ILE127      0.0266
     73  CG1       15.5920  -31.2090    4.9670 C.3   127  ILE127      0.0019
     74  CG2       14.6110  -33.5320    5.1280 C.3   127  ILE127      0.0020
     75  CD1       15.9390  -31.0370    6.4340 C.3   127  ILE127      0.0001
     76  N         11.4200  -32.4230    3.7600 N.am  128  TYR128     -0.1976
     77  CA        10.3310  -33.3660    4.0460 C.3   128  TYR128      0.1639
     78  C          9.2160  -33.4410    2.9920 C.2   128  TYR128      0.2290
     79  O          8.1810  -34.0710    3.2170 O.2   128  TYR128     -0.2864
     80  CB         9.7970  -33.1660    5.4720 C.3   128  TYR128      0.0560
     81  CG        10.7760  -33.6630    6.5140 C.ar  128  TYR128     -0.0198
     82  CD1       10.8900  -35.0210    6.7990 C.ar  128  TYR128     -0.0009
     83  CD2       11.6230  -32.7900    7.1770 C.ar  128  TYR128     -0.0009
     84  CE1       11.7840  -35.4740    7.7270 C.ar  128  TYR128      0.0417
     85  CE2       12.5300  -33.2410    8.0950 C.ar  128  TYR128      0.0417
     86  CZ        12.5960  -34.5800    8.3800 C.ar  128  TYR128      0.1957
     87  OH        13.5290  -35.0440    9.2980 O.3   128  TYR128     -0.2866
     88  N         10.7200  -19.6010   11.3490 N.3   189  VAL189     -0.1231
     89  CA        10.7550  -20.3180   12.6210 C.3   189  VAL189      0.1678
     90  C         12.2220  -20.3460   13.0470 C.2   189  VAL189      0.2434
     91  O         13.0700  -20.8500   12.3050 O.2   189  VAL189     -0.2733
     92  CB        10.2110  -21.7670   12.5310 C.3   189  VAL189      0.0265
     93  CG1       10.1210  -22.3750   13.9320 C.3   189  VAL189      0.0020
     94  CG2        8.8610  -21.8010   11.8320 C.3   189  VAL189      0.0020
     95  N         12.5390  -19.7670   14.2200 N.am  190  PRO190     -0.2718
     96  CA        13.9300  -19.8520   14.6820 C.3   190  PRO190      0.1535
     97  C         14.2690  -21.2390   15.2170 C.2   190  PRO190      0.2598
     98  O         13.3670  -22.0290   15.5160 O.2   190  PRO190     -0.2715
     99  CB        14.0130  -18.8070   15.8030 C.3   190  PRO190      0.0310
    100  CG        12.6200  -18.5760   16.2420 C.3   190  PRO190      0.0237
    101  CD        11.6750  -19.0310   15.1650 C.3   190  PRO190      0.0939
    102  N         15.5650  -21.5310   15.3300 N.am  191  ASP191     -0.1972
    103  CA        16.0170  -22.8310   15.8480 C.3   191  ASP191      0.1709
    104  C         16.0670  -22.8960   17.3780 C.2   191  ASP191      0.2293
    105  O         16.4820  -23.9060   17.9520 O.2   191  ASP191     -0.2864
    106  CB        17.3680  -23.2340   15.2430 C.3   191  ASP191      0.1436
    107  CG        18.4460  -22.1780   15.4290 C.2   191  ASP191      0.3671
    108  OD1       18.5210  -21.5600   16.5110 O.co2 191  ASP191     -0.2456
    109  OD2       19.2360  -21.9840   14.4770 O.co2 191  ASP191     -0.2456
    110  N          7.4140  -26.7210   18.2280 N.3   200  TRP200     -0.1241
    111  CA         8.2560  -27.9340   18.2810 C.3   200  TRP200      0.1605
    112  C          8.1890  -28.7880   19.5490 C.2   200  TRP200      0.2264
    113  O          8.5640  -29.9620   19.5140 O.2   200  TRP200     -0.2867
    114  CB         9.7290  -27.5530   18.0670 C.3   200  TRP200      0.0550
    115  CG        10.1250  -27.3880   16.6170 C.ar  200  TRP200      0.0003
    116  CD1       10.1570  -26.2260   15.9040 C.ar  200  TRP200      0.0946
    117  CD2       10.5340  -28.4220   15.7110 C.ar  200  TRP200      0.0152
    118  NE1       10.5520  -26.4660   14.6170 N.ar  200  TRP200     -0.2442
    119  CE2       10.8060  -27.8050   14.4720 C.ar  200  TRP200      0.0810
    120  CE3       10.7090  -29.8060   15.8280 C.ar  200  TRP200      0.0012
    121  CZ2       11.2510  -28.5240   13.3580 C.ar  200  TRP200      0.0191
    122  CZ3       11.1300  -30.5270   14.7150 C.ar  200  TRP200      0.0001
    123  CH2       11.4100  -29.8820   13.5000 C.ar  200  TRP200      0.0015
    124  N         14.2900  -35.3400   21.8430 N.3   214  ASP214     -0.1225
    125  CA        15.0870  -36.1640   20.9310 C.3   214  ASP214      0.1805
    126  C         14.9590  -35.7330   19.4620 C.2   214  ASP214      0.2598
    127  O         15.7010  -36.2250   18.6130 O.2   214  ASP214     -0.2718
    128  CB        14.8020  -37.6660   21.1120 C.3   214  ASP214      0.1424
    129  CG        13.4250  -38.0820   20.6250 C.2   214  ASP214      0.3668
    130  OD1       12.7490  -37.2990   19.9280 O.co2 214  ASP214     -0.2456
    131  OD2       13.0220  -39.2230   20.9410 O.co2 214  ASP214     -0.2456
    132  N         14.0520  -34.7960   19.1640 N.am  215  ARG215     -0.1966
    133  CA        13.9870  -34.2110   17.8190 C.3   215  ARG215      0.1729
    134  C         15.2430  -33.3940   17.4820 C.2   215  ARG215      0.2617
    135  O         15.4860  -33.0800   16.3200 O.2   215  ARG215     -0.2715
    136  CB        12.7540  -33.3150   17.6820 C.3   215  ARG215      0.0348
    137  CG        11.4240  -34.0250   17.8100 C.3   215  ARG215      0.0492
    138  CD        10.3090  -33.0160   17.6950 C.3   215  ARG215      0.2205
    139  NE         8.9770  -33.4960   18.0650 N.pl3 215  ARG215     -0.0865
    140  CZ         8.0990  -34.0380   17.2270 C.cat 215  ARG215      0.5346
    141  NH1        8.4020  -34.2220   15.9440 N.pl3 215  ARG215      0.1354
    142  NH2        6.8970  -34.3860   17.6710 N.pl3 215  ARG215      0.1354
    143  N         16.0160  -33.0360   18.5080 N.am  216  GLY216     -0.1940
    144  CA        17.2450  -32.2730   18.3420 C.3   216  GLY216      0.2014
    145  C         17.0240  -30.7800   18.4270 C.2   216  GLY216      0.2638
    146  O         17.9070  -29.9910   18.1050 O.2   216  GLY216     -0.2714
    147  N         15.8360  -30.3890   18.8690 N.am  217  VAL217     -0.1977
    148  CA        15.4720  -28.9860   18.9610 C.3   217  VAL217      0.1596
    149  C         14.3800  -28.8660   20.0140 C.2   217  VAL217      0.2287
    150  O         13.6560  -29.8350   20.2890 O.2   217  VAL217     -0.2864
    151  CB        15.0280  -28.4300   17.5630 C.3   217  VAL217      0.0276
    152  CG1       13.7810  -29.1520   17.0420 C.3   217  VAL217      0.0022
    153  CG2       14.8140  -26.9250   17.6010 C.3   217  VAL217      0.0022
    154  N          1.0930  -32.1890   16.3990 N.3   242  HIS242     -0.1226
    155  CA         2.5560  -32.3680   16.2690 C.3   242  HIS242      0.1752
    156  C          3.0820  -33.7930   16.4600 C.2   242  HIS242      0.2596
    157  O          4.1260  -34.1330   15.8990 O.2   242  HIS242     -0.2718
    158  CB         3.2500  -31.3520   17.2090 C.3   242  HIS242      0.0759
    159  CG         4.7420  -31.2440   17.0860 C.ar  242  HIS242      0.0818
    160  ND1        5.4060  -31.0290   15.8920 N.ar  242  HIS242     -0.2268
    161  CD2        5.6910  -31.2020   18.0520 C.ar  242  HIS242      0.1154
    162  CE1        6.7020  -30.9150   16.1300 C.ar  242  HIS242      0.1986
    163  NE2        6.9000  -31.0130   17.4340 N.ar  242  HIS242     -0.2212
    164  N          2.3750  -34.6200   17.2310 N.am  243  GLN243     -0.1965
    165  CA         2.7640  -36.0100   17.4870 C.3   243  GLN243      0.1733
    166  C          1.6720  -36.9870   17.0620 C.2   243  GLN243      0.2616
    167  O          0.4900  -36.7830   17.3790 O.2   243  GLN243     -0.2715
    168  CB         3.0450  -36.2050   18.9740 C.3   243  GLN243      0.0408
    169  CG         4.3880  -35.6750   19.4000 C.3   243  GLN243      0.0908
    170  CD         4.6570  -35.9350   20.8640 C.2   243  GLN243      0.2608
    171  OE1        3.8870  -35.5100   21.7230 O.2   243  GLN243     -0.2717
    172  NE2        5.7610  -36.6440   21.1670 N.am  243  GLN243     -0.0878
    173  N          2.0810  -38.0380   16.3530 N.am  244  VAL244     -0.1977
    174  CA         1.1770  -39.1140   15.9420 C.3   244  VAL244      0.1596
    175  C          0.6850  -39.8140   17.2020 C.2   244  VAL244      0.2287
    176  O          1.4940  -40.1680   18.0640 O.2   244  VAL244     -0.2864
    177  CB         1.8790  -40.1680   15.0330 C.3   244  VAL244      0.0276
    178  CG1        0.8480  -41.1200   14.4170 C.3   244  VAL244      0.0022
    179  CG2        2.7080  -39.4990   13.9360 C.3   244  VAL244      0.0022
    180  N         -4.1940  -35.3030   16.0980 N.3   261  PHE261     -0.1241
    181  CA        -3.4540  -35.6750   14.8820 C.3   261  PHE261      0.1605
    182  C         -4.4880  -36.1730   13.8890 C.2   261  PHE261      0.2264
    183  O         -5.2180  -37.1050   14.1820 O.2   261  PHE261     -0.2867
    184  CB        -2.4130  -36.7530   15.1830 C.3   261  PHE261      0.0534
    185  CG        -1.3860  -36.9070   14.0910 C.ar  261  PHE261     -0.0203
    186  CD1       -1.6200  -37.7670   13.0200 C.ar  261  PHE261     -0.0042
    187  CD2       -0.2050  -36.1970   14.1350 C.ar  261  PHE261     -0.0042
    188  CE1       -0.6710  -37.9060   12.0070 C.ar  261  PHE261     -0.0003
    189  CE2        0.7480  -36.3350   13.1300 C.ar  261  PHE261     -0.0003
    190  CZ         0.5030  -37.1890   12.0640 C.ar  261  PHE261     -0.0000
    191  N         -0.6110  -42.5240    9.0350 N.3   266  TYR266     -0.1227
    192  CA         0.3780  -41.5000    8.7000 C.3   266  TYR266      0.1736
    193  C          1.5530  -42.1150    7.9390 C.2   266  TYR266      0.2595
    194  O          2.1450  -43.0980    8.3900 O.2   266  TYR266     -0.2718
    195  CB         0.8620  -40.8390    9.9920 C.3   266  TYR266      0.0548
    196  CG         1.9190  -39.7580    9.8550 C.ar  266  TYR266     -0.0200
    197  CD1        1.7760  -38.7080    8.9480 C.ar  266  TYR266     -0.0009
    198  CD2        3.0280  -39.7450   10.6890 C.ar  266  TYR266     -0.0009
    199  CE1        2.7270  -37.7150    8.8490 C.ar  266  TYR266      0.0417
    200  CE2        3.9720  -38.7490   10.6070 C.ar  266  TYR266      0.0417
    201  CZ         3.8180  -37.7290    9.7010 C.ar  266  TYR266      0.1957
    202  OH         4.7720  -36.7430    9.6300 O.3   266  TYR266     -0.2866
    203  N          1.8590  -41.5410    6.7760 N.am  267  CYS267     -0.1970
    204  CA         2.9670  -41.9980    5.9040 C.3   267  CYS267      0.1712
    205  C          2.8360  -43.4240    5.4190 C.2   267  CYS267      0.2296
    206  O          3.8110  -44.0140    4.9390 O.2   267  CYS267     -0.2864
    207  CB         4.3050  -41.8820    6.6290 C.3   267  CYS267      0.0983
    208  SG         4.7870  -40.2360    6.9140 S.3   267  CYS267     -0.0798
    209  N          2.9560  -45.6030    7.3870 N.3   269  GLU269     -0.1231
    210  CA         3.9100  -46.2480    8.3020 C.3   269  GLU269      0.1699
    211  C          3.3340  -46.4810    9.6940 C.2   269  GLU269      0.2592
    212  O          3.9090  -47.2350   10.4870 O.2   269  GLU269     -0.2718
    213  CB         5.1940  -45.4210    8.4200 C.3   269  GLU269      0.0402
    214  CG         6.0620  -45.4090    7.1440 C.3   269  GLU269      0.1161
    215  CD         7.5020  -44.9650    7.3930 C.2   269  GLU269      0.3649
    216  OE1        7.7090  -43.8050    7.7840 O.co2 269  GLU269     -0.2457
    217  OE2        8.4380  -45.7710    7.1840 O.co2 269  GLU269     -0.2457
    218  N          2.2110  -45.8320    9.9980 N.am  270  PHE270     -0.1976
    219  CA         1.5500  -45.9760   11.2870 C.3   270  PHE270      0.1639
    220  C          0.1360  -46.4760   11.0560 C.2   270  PHE270      0.2290
    221  O         -0.4220  -46.2860    9.9750 O.2   270  PHE270     -0.2864
    222  CB         1.5150  -44.6370   12.0250 C.3   270  PHE270      0.0560
    223  CG         2.8690  -44.1340   12.4420 C.ar  270  PHE270     -0.0200
    224  CD1        3.6190  -43.3310   11.5990 C.ar  270  PHE270     -0.0042
    225  CD2        3.3910  -44.4560   13.6840 C.ar  270  PHE270     -0.0042
    226  CE1        4.8650  -42.8590   11.9820 C.ar  270  PHE270     -0.0003
    227  CE2        4.6340  -43.9840   14.0740 C.ar  270  PHE270     -0.0003
    228  CZ         5.3730  -43.1870   13.2160 C.ar  270  PHE270     -0.0000
@<TRIPOS>BOND
     1    22    21    2
     2    71    70    2
     3    78    79    2
     4    78    77    1
     5    21    20    1
     6    68    69    1
     7    70    69    1
     8    70    76   am
     9    69    72    1
    10    19    20    1
    11    76    77    1
    12    20    23    1
    13    77    80    1
    14    12    11    2
    15    11    10    1
    16    72    73    1
    17    72    74    1
    18   206   205    2
    19    73    75    1
    20    63    62    2
    21    23    24    1
    22   205   204    1
    23    80    81    1
    24    62    61    1
    25    54    55    1
    26    57    56    2
    27    55    56    1
    28    55    58    1
    29   204   207    1
    30   204   203    1
    31    10     9    1
    32    10    13    1
    33    51    50    2
    34    56    60   am
    35    50    49    1
    36    25    24    1
    37    25    26    1
    38    41    40    2
    39    81    82   ar
    40    81    83   ar
    41   207   208    1
    42    60    61    1
    43   203   193   am
    44    82    84   ar
    45    13    14    1
    46    61    64    1
    47    28    27    1
    48    58    59    1
    49   214   215    1
    50   214   213    1
    51    48    49    1
    52    83    85   ar
    53   217   215   ar
    54   209   210    1
    55   215   216   ar
    56    49    52    1
    57    26    27    2
    58    15    14   ar
    59    15    17   ar
    60    40    39    1
    61    84    86   ar
    62    27    29    1
    63    44    46   ar
    64    44    43   ar
    65   193   194    2
    66   193   192    1
    67    14    16   ar
    68    85    86   ar
    69    64    66    1
    70    64    65    1
    71    42    39    1
    72    42    43    1
    73   210   213    1
    74   210   211    1
    75    86    87    1
    76    46    47   ar
    77    39    38    1
    78   192   191    1
    79   192   195    1
    80    43    45   ar
    81    52    53    1
    82    17    18   ar
    83   199   197   ar
    84   199   201   ar
    85   197   196   ar
    86    16    18   ar
    87    65    67    1
    88   202   201    1
    89   211   218   am
    90   211   212    2
    91   201   200   ar
    92   196   195    1
    93   196   198   ar
    94    47    45   ar
    95   221   220    2
    96   218   219    1
    97    38    32   am
    98     3     4    2
    99     3     2    1
   100    33    32    2
   101   200   198   ar
   102    32    31    1
   103   220   219    1
   104   219   222    1
   105    88    89    1
   106     2     5    1
   107     2     1    1
   108   224   226   ar
   109   224   223   ar
   110     5     6    1
   111    94    92    1
   112   226   228   ar
   113   188   190   ar
   114   188   186   ar
   115   222   223    1
   116   190   189   ar
   117    31    30    1
   118    31    34    1
   119    91    90    2
   120   223   225   ar
   121    92    89    1
   122    92    93    1
   123    89    90    1
   124     6     8   ar
   125     6     7   ar
   126   186   185   ar
   127    37    35   am
   128    90    95   am
   129    36    35    2
   130    35    34    1
   131   189   187   ar
   132   228   227   ar
   133   121   123   ar
   134   121   119   ar
   135   123   122   ar
   136   225   227   ar
   137   182   183    2
   138   182   181    1
   139   179   177    1
   140   185   187   ar
   141   185   184    1
   142    95    96    1
   143    95   101    1
   144   178   177    1
   145   119   118   ar
   146   119   117   ar
   147   109   107   ar
   148   118   116   ar
   149    96    97    1
   150    96    99    1
   151   122   120   ar
   152   181   184    1
   153   181   180    1
   154   177   174    1
   155   101   100    1
   156    97   102   am
   157    97    98    2
   158   106   107    1
   159   106   103    1
   160   102   103    1
   161   107   108   ar
   162   117   120   ar
   163   117   115   ar
   164    99   100    1
   165   103   104    1
   166   160   162   ar
   167   160   159   ar
   168   157   156    2
   169   116   115   ar
   170   174   173    1
   171   174   175    1
   172   141   140    1
   173   162   163   ar
   174   155   154    1
   175   155   156    1
   176   155   158    1
   177   135   134    2
   178   173   166   am
   179   156   164   am
   180   115   114    1
   181   152   151    1
   182   166   167    2
   183   166   165    1
   184   159   158    1
   185   159   161   ar
   186   175   176    2
   187   140   142    1
   188   140   139    2
   189   164   165    1
   190   104   105    2
   191   163   161   ar
   192   134   133    1
   193   134   143   am
   194   165   168    1
   195   151   153    1
   196   151   148    1
   197   136   137    1
   198   136   133    1
   199   138   137    1
   200   138   139    1
   201   133   132    1
   202   114   111    1
   203   146   145    2
   204   110   111    1
   205   111   112    1
   206   144   145    1
   207   144   143    1
   208   145   147   am
   209   127   126    2
   210   147   148    1
   211   148   149    1
   212   168   169    1
   213   132   126   am
   214   169   170    1
   215   126   125    1
   216   113   112    2
   217   130   129   ar
   218   149   150    2
   219   129   131   ar
   220   129   128    1
   221   170   172   am
   222   170   171    2
   223   125   128    1
   224   125   124    1
