@<TRIPOS>MOLECULE
tmp/3e7bA00.pdb
 250 245 0 0 0
SMALL
GASTEIGER

@<TRIPOS>ATOM
      1  N         -2.7520   32.5930  -12.5830 N.3    59  ASP59      -0.1239
      2  CA        -1.9060   32.6740  -11.3940 C.3    59  ASP59       0.1674
      3  C         -2.6150   33.3390  -10.2320 C.2    59  ASP59       0.2266
      4  O         -3.2920   34.3490  -10.4320 O.2    59  ASP59      -0.2867
      5  CB        -0.6480   33.4620  -11.6580 C.3    59  ASP59       0.1410
      6  CG         0.2310   32.8700  -12.7750 C.2    59  ASP59       0.3668
      7  OD1       -0.2150   32.0550  -13.6110 O.co2  59  ASP59      -0.2456
      8  OD2        1.4000   33.2840  -12.8190 O.co2  59  ASP59      -0.2456
      9  N         -0.7000   33.2300   -6.8080 N.3    61  HIS61      -0.1241
     10  CA         0.4580   33.7200   -6.0580 C.3    61  HIS61       0.1621
     11  C          0.1150   34.2530   -4.6650 C.2    61  HIS61       0.2264
     12  O          0.4670   35.3670   -4.3130 O.2    61  HIS61      -0.2867
     13  CB         1.1920   34.7830   -6.8680 C.3    61  HIS61       0.0745
     14  CG         2.0310   34.2110   -7.9540 C.ar   61  HIS61       0.0817
     15  ND1        2.9900   33.2410   -7.7150 N.ar   61  HIS61      -0.2268
     16  CD2        2.0710   34.4630   -9.2830 C.ar   61  HIS61       0.1154
     17  CE1        3.5860   32.9320   -8.8510 C.ar   61  HIS61       0.1986
     18  NE2        3.0530   33.6610   -9.8180 N.ar   61  HIS61      -0.2212
     19  N          5.3210   35.0750   -3.9230 N.3    91  ARG91      -0.1245
     20  CA         5.0280   36.4800   -4.2070 C.3    91  ARG91       0.1563
     21  C          4.0440   37.1040   -3.2420 C.2    91  ARG91       0.2260
     22  O          4.3460   38.1560   -2.6630 O.2    91  ARG91      -0.2867
     23  CB         4.6130   36.6870   -5.6680 C.3    91  ARG91       0.0307
     24  CG         5.7240   36.3430   -6.6530 C.3    91  ARG91       0.0489
     25  CD         6.9290   37.2310   -6.4090 C.3    91  ARG91       0.2205
     26  NE         7.7950   37.4150   -7.5720 N.pl3  91  ARG91      -0.0865
     27  CZ         9.0190   37.9490   -7.4930 C.cat  91  ARG91       0.5346
     28  NH1        9.5120   38.3480   -6.3180 N.pl3  91  ARG91       0.1354
     29  NH2        9.7730   38.0770   -8.5820 N.pl3  91  ARG91       0.1354
     30  N          5.1810   26.7590  -12.6150 N.3   119  ASN119     -0.1225
     31  CA         6.6300   26.7660  -12.3720 C.3   119  ASN119      0.1785
     32  C          6.9880   27.0620  -10.8980 C.2   119  ASN119      0.2597
     33  O          8.0780   26.7030  -10.4310 O.2   119  ASN119     -0.2718
     34  CB         7.4100   27.6750  -13.3380 C.3   119  ASN119      0.1169
     35  CG         7.0510   29.1270  -13.2130 C.2   119  ASN119      0.2627
     36  OD1        5.8840   29.4740  -13.1810 O.2   119  ASN119     -0.2716
     37  ND2        8.0810   30.0000  -13.1610 N.am  119  ASN119     -0.0877
     38  N          6.0500   27.6520  -10.1560 N.am  120  HIS120     -0.1975
     39  CA         6.2850   27.8990   -8.7290 C.3   120  HIS120      0.1656
     40  C          5.9620   26.7310   -7.8140 C.2   120  HIS120      0.2291
     41  O          6.2520   26.7930   -6.6170 O.2   120  HIS120     -0.2864
     42  CB         5.5910   29.1900   -8.2860 C.3   120  HIS120      0.0771
     43  CG         6.2680   30.4260   -8.7990 C.ar  120  HIS120      0.0820
     44  ND1        7.0730   31.2040   -8.0030 N.ar  120  HIS120     -0.2267
     45  CD2        6.3170   30.9680  -10.0340 C.ar  120  HIS120      0.1154
     46  CE1        7.5670   32.2010   -8.7240 C.ar  120  HIS120      0.1986
     47  NE2        7.1180   32.0870   -9.9630 N.ar  120  HIS120     -0.2212
     48  N          7.3640   24.0350   -7.1840 N.3   122  CYS122     -0.1235
     49  CA         8.6940   23.4880   -7.4320 C.3   122  CYS122      0.1677
     50  C          9.5880   24.0320   -6.3540 C.2   122  CYS122      0.2270
     51  O          9.6530   25.2450   -6.1670 O.2   122  CYS122     -0.2867
     52  CB         9.1860   23.9100   -8.8040 C.3   122  CYS122      0.0956
     53  SG        10.8950   23.5760   -9.1100 S.3   122  CYS122     -0.0801
     54  N         12.7850   24.3270   -5.9010 N.3   124  SER124     -0.1202
     55  CA        13.9140   25.1860   -6.3300 C.3   124  SER124      0.2020
     56  C         13.4300   26.6420   -6.4070 C.2   124  SER124      0.2618
     57  O         14.1320   27.5650   -5.9860 O.2   124  SER124     -0.2717
     58  CB        14.4290   24.7750   -7.7300 C.3   124  SER124      0.2103
     59  OG        15.1010   23.4940   -7.6990 O.3   124  SER124     -0.2182
     60  N         12.2230   26.8120   -6.9390 N.am  125  ILE125     -0.1979
     61  CA        11.6630   28.1450   -7.2230 C.3   125  ILE125      0.1595
     62  C         11.0140   28.7450   -5.9890 C.2   125  ILE125      0.2287
     63  O         11.2970   29.8910   -5.6120 O.2   125  ILE125     -0.2864
     64  CB        10.6720   28.1060   -8.4120 C.3   125  ILE125      0.0276
     65  CG1       11.3650   27.6030   -9.6840 C.3   125  ILE125      0.0022
     66  CG2        9.9890   29.4700   -8.6250 C.3   125  ILE125      0.0022
     67  CD1       12.6190   28.3960  -10.0940 C.3   125  ILE125      0.0001
     68  N         13.1300   30.4270   -3.3230 N.3   128  ILE128     -0.1231
     69  CA        13.5710   31.7910   -3.6260 C.3   128  ILE128      0.1692
     70  C         12.4490   32.8330   -3.4680 C.2   128  ILE128      0.2592
     71  O         12.6890   33.9250   -2.9420 O.2   128  ILE128     -0.2718
     72  CB        14.0790   31.8740   -5.1030 C.3   128  ILE128      0.0266
     73  CG1       15.2850   30.9540   -5.3380 C.3   128  ILE128      0.0019
     74  CG2       14.4020   33.3360   -5.5210 C.3   128  ILE128      0.0020
     75  CD1       15.5360   30.6480   -6.8250 C.3   128  ILE128      0.0001
     76  N         11.2350   32.5060   -3.9250 N.am  129  TYR129     -0.1976
     77  CA        10.1870   33.5270   -4.1590 C.3   129  TYR129      0.1639
     78  C          9.0630   33.6120   -3.1100 C.2   129  TYR129      0.2290
     79  O          8.0610   34.3280   -3.3180 O.2   129  TYR129     -0.2864
     80  CB         9.6140   33.3850   -5.5770 C.3   129  TYR129      0.0560
     81  CG        10.6400   33.7410   -6.6280 C.ar  129  TYR129     -0.0198
     82  CD1       10.9870   35.0750   -6.8510 C.ar  129  TYR129     -0.0009
     83  CD2       11.2820   32.7560   -7.3710 C.ar  129  TYR129     -0.0009
     84  CE1       11.9440   35.4140   -7.7720 C.ar  129  TYR129      0.0417
     85  CE2       12.2390   33.0950   -8.3180 C.ar  129  TYR129      0.0417
     86  CZ        12.5650   34.4240   -8.5100 C.ar  129  TYR129      0.1957
     87  OH        13.5260   34.7810   -9.4530 O.3   129  TYR129     -0.2866
     88  N         10.4390   16.1510  -10.1150 N.3   189  ASP189     -0.1225
     89  CA        10.7270   17.5840  -10.0340 C.3   189  ASP189      0.1805
     90  C         10.5910   18.1460  -11.4370 C.2   189  ASP189      0.2598
     91  O         10.4760   17.3990  -12.4120 O.2   189  ASP189     -0.2718
     92  CB        12.1390   17.9050   -9.4980 C.3   189  ASP189      0.1424
     93  CG        12.2700   19.3670   -9.0090 C.2   189  ASP189      0.3668
     94  OD1       11.2380   20.1280   -8.9510 O.co2 189  ASP189     -0.2456
     95  OD2       13.4220   19.7630   -8.6980 O.co2 189  ASP189     -0.2456
     96  N         10.6360   19.4650  -11.5410 N.am  190  VAL190     -0.1966
     97  CA        10.6610   20.1120  -12.8240 C.3   190  VAL190      0.1712
     98  C         12.1110   20.0760  -13.2690 C.2   190  VAL190      0.2458
     99  O         12.9820   20.5720  -12.5460 O.2   190  VAL190     -0.2730
    100  CB        10.1740   21.5850  -12.7400 C.3   190  VAL190      0.0289
    101  CG1       10.2120   22.2540  -14.1010 C.3   190  VAL190      0.0023
    102  CG2        8.7470   21.6650  -12.1280 C.3   190  VAL190      0.0023
    103  N         12.3860   19.4770  -14.4500 N.am  191  PRO191     -0.2716
    104  CA        13.7710   19.4390  -14.9120 C.3   191  PRO191      0.1536
    105  C         14.2110   20.8110  -15.4340 C.2   191  PRO191      0.2598
    106  O         13.3830   21.6940  -15.6650 O.2   191  PRO191     -0.2715
    107  CB        13.7430   18.4000  -16.0240 C.3   191  PRO191      0.0310
    108  CG        12.3660   18.3780  -16.5020 C.3   191  PRO191      0.0237
    109  CD        11.4700   18.8210  -15.4000 C.3   191  PRO191      0.0939
    110  N         15.5220   20.9580  -15.6080 N.am  192  ASP192     -0.1972
    111  CA        16.1330   22.2060  -16.0600 C.3   192  ASP192      0.1709
    112  C         15.8290   22.4810  -17.5400 C.2   192  ASP192      0.2293
    113  O         15.9670   23.6100  -17.9970 O.2   192  ASP192     -0.2864
    114  CB        17.6650   22.1460  -15.8640 C.3   192  ASP192      0.1436
    115  CG        18.0810   22.0410  -14.3910 C.2   192  ASP192      0.3671
    116  OD1       17.5860   22.8290  -13.5620 O.co2 192  ASP192     -0.2456
    117  OD2       18.9320   21.1820  -14.0640 O.co2 192  ASP192     -0.2456
    118  N          9.5840   20.9450  -18.4230 N.3   197  CYS197     -0.1235
    119  CA        10.0730   22.3020  -18.2010 C.3   197  CYS197      0.1677
    120  C          9.3300   23.3330  -19.0510 C.2   197  CYS197      0.2270
    121  O          8.7730   24.3040  -18.5360 O.2   197  CYS197     -0.2867
    122  CB        11.5610   22.3720  -18.5050 C.3   197  CYS197      0.0956
    123  SG        12.2620   24.0110  -18.3540 S.3   197  CYS197     -0.0801
    124  N          7.0860   26.7110  -18.3090 N.3   201  TRP201     -0.1241
    125  CA         7.9340   27.9000  -18.3680 C.3   201  TRP201      0.1605
    126  C          7.8980   28.7610  -19.6340 C.2   201  TRP201      0.2264
    127  O          8.3260   29.9160  -19.5870 O.2   201  TRP201     -0.2867
    128  CB         9.3940   27.4800  -18.1640 C.3   201  TRP201      0.0550
    129  CG         9.7880   27.2190  -16.7500 C.ar  201  TRP201      0.0003
    130  CD1        9.7760   26.0250  -16.0910 C.ar  201  TRP201      0.0946
    131  CD2       10.2850   28.1810  -15.8370 C.ar  201  TRP201      0.0152
    132  NE1       10.2420   26.1850  -14.8150 N.ar  201  TRP201     -0.2442
    133  CE2       10.5710   27.5030  -14.6280 C.ar  201  TRP201      0.0810
    134  CE3       10.5420   29.5610  -15.9230 C.ar  201  TRP201      0.0012
    135  CZ2       11.1040   28.1580  -13.5090 C.ar  201  TRP201      0.0191
    136  CZ3       11.0410   30.2170  -14.8060 C.ar  201  TRP201      0.0001
    137  CH2       11.3160   29.5100  -13.6050 C.ar  201  TRP201      0.0015
    138  N         14.2970   32.5220  -24.0180 N.3   214  ASN214     -0.1225
    139  CA        13.4160   33.1040  -23.0200 C.3   214  ASN214      0.1785
    140  C         14.2300   33.9110  -22.0120 C.2   214  ASN214      0.2597
    141  O         15.1560   33.3710  -21.3980 O.2   214  ASN214     -0.2718
    142  CB        12.6240   32.0050  -22.3150 C.3   214  ASN214      0.1169
    143  CG        11.4470   32.5530  -21.5490 C.2   214  ASN214      0.2627
    144  OD1       11.6030   33.4720  -20.7530 O.2   214  ASN214     -0.2716
    145  ND2       10.2590   32.0150  -21.8040 N.am  214  ASN214     -0.0877
    146  N         13.8750   35.1880  -21.8420 N.am  215  ASP215     -0.1960
    147  CA        14.5570   36.0900  -20.9040 C.3   215  ASP215      0.1840
    148  C         14.4430   35.6530  -19.4400 C.2   215  ASP215      0.2622
    149  O         15.1090   36.2110  -18.5850 O.2   215  ASP215     -0.2715
    150  CB        14.0080   37.5180  -21.0380 C.3   215  ASP215      0.1450
    151  CG        14.4640   38.2100  -22.3230 C.2   215  ASP215      0.3671
    152  OD1       15.4680   37.7690  -22.9310 O.co2 215  ASP215     -0.2456
    153  OD2       13.8140   39.2040  -22.7250 O.co2 215  ASP215     -0.2456
    154  N         13.5810   34.6850  -19.1420 N.am  216  ARG216     -0.1963
    155  CA        13.5310   34.0990  -17.8000 C.3   216  ARG216      0.1729
    156  C         14.7850   33.2830  -17.4360 C.2   216  ARG216      0.2617
    157  O         15.0210   33.0180  -16.2520 O.2   216  ARG216     -0.2715
    158  CB        12.3040   33.2140  -17.6550 C.3   216  ARG216      0.0348
    159  CG        10.9830   33.9460  -17.7320 C.3   216  ARG216      0.0492
    160  CD         9.8650   32.9280  -17.6820 C.3   216  ARG216      0.2205
    161  NE         8.5370   33.4460  -18.0140 N.pl3 216  ARG216     -0.0865
    162  CZ         7.6780   33.9490  -17.1250 C.cat 216  ARG216      0.5346
    163  NH1        8.0060   34.0540  -15.8470 N.pl3 216  ARG216      0.1354
    164  NH2        6.4760   34.3460  -17.5090 N.pl3 216  ARG216      0.1354
    165  N         15.5660   32.8720  -18.4380 N.am  217  GLY217     -0.1940
    166  CA        16.7460   32.0380  -18.2070 C.3   217  GLY217      0.2014
    167  C         16.4530   30.5510  -18.2930 C.2   217  GLY217      0.2638
    168  O         17.3490   29.7280  -18.1040 O.2   217  GLY217     -0.2714
    169  N         15.1930   30.2290  -18.5840 N.am  218  VAL218     -0.1977
    170  CA        14.6950   28.8770  -18.6660 C.3   218  VAL218      0.1596
    171  C         13.8380   28.7840  -19.9150 C.2   218  VAL218      0.2287
    172  O         13.1450   29.7400  -20.2650 O.2   218  VAL218     -0.2864
    173  CB        13.8250   28.5380  -17.4170 C.3   218  VAL218      0.0276
    174  CG1       13.2880   27.1190  -17.4980 C.3   218  VAL218      0.0022
    175  CG2       14.6370   28.7300  -16.1470 C.3   218  VAL218      0.0022
    176  N          0.8870   32.3560  -16.3600 N.3   243  HIS243     -0.1226
    177  CA         2.3680   32.5110  -16.2770 C.3   243  HIS243      0.1752
    178  C          2.9000   33.9430  -16.4610 C.2   243  HIS243      0.2596
    179  O          3.9370   34.3070  -15.8870 O.2   243  HIS243     -0.2718
    180  CB         3.0140   31.4920  -17.2460 C.3   243  HIS243      0.0759
    181  CG         4.5060   31.3260  -17.1450 C.ar  243  HIS243      0.0818
    182  ND1        5.1770   31.0520  -15.9690 N.ar  243  HIS243     -0.2268
    183  CD2        5.4360   31.2500  -18.1250 C.ar  243  HIS243      0.1154
    184  CE1        6.4620   30.8770  -16.2260 C.ar  243  HIS243      0.1986
    185  NE2        6.6460   30.9880  -17.5280 N.ar  243  HIS243     -0.2212
    186  N          2.1860   34.7680  -17.2210 N.am  244  GLN244     -0.1965
    187  CA         2.5730   36.1600  -17.4550 C.3   244  GLN244      0.1733
    188  C          1.4900   37.1390  -16.9910 C.2   244  GLN244      0.2616
    189  O          0.3270   37.0150  -17.3660 O.2   244  GLN244     -0.2715
    190  CB         2.8300   36.3650  -18.9380 C.3   244  GLN244      0.0408
    191  CG         4.1360   35.8090  -19.3970 C.3   244  GLN244      0.0908
    192  CD         4.3760   36.0340  -20.8750 C.2   244  GLN244      0.2608
    193  OE1        3.5860   35.5980  -21.7110 O.2   244  GLN244     -0.2717
    194  NE2        5.4700   36.7270  -21.2090 N.am  244  GLN244     -0.0878
    195  N          1.8690   38.0760  -16.1280 N.am  245  VAL245     -0.1977
    196  CA         0.9870   39.1530  -15.7330 C.3   245  VAL245      0.1596
    197  C          0.5980   39.9240  -16.9940 C.2   245  VAL245      0.2287
    198  O          1.4680   40.2480  -17.8390 O.2   245  VAL245     -0.2864
    199  CB         1.6100   40.0880  -14.6270 C.3   245  VAL245      0.0276
    200  CG1        2.9020   40.7780  -15.0880 C.3   245  VAL245      0.0022
    201  CG2        0.5760   41.1110  -14.1510 C.3   245  VAL245      0.0022
    202  N         -4.4630   35.5560  -16.0140 N.3   262  PHE262     -0.1241
    203  CA        -3.7000   35.8520  -14.8100 C.3   262  PHE262      0.1605
    204  C         -4.6980   36.3180  -13.7780 C.2   262  PHE262      0.2264
    205  O         -5.3900   37.2810  -14.0260 O.2   262  PHE262     -0.2867
    206  CB        -2.6650   36.9310  -15.1150 C.3   262  PHE262      0.0534
    207  CG        -1.5960   37.0610  -14.0520 C.ar  262  PHE262     -0.0203
    208  CD1       -1.7750   37.9140  -12.9670 C.ar  262  PHE262     -0.0042
    209  CD2       -0.4150   36.3070  -14.1270 C.ar  262  PHE262     -0.0042
    210  CE1       -0.7770   38.0370  -11.9870 C.ar  262  PHE262     -0.0003
    211  CE2        0.5530   36.3930  -13.1310 C.ar  262  PHE262     -0.0003
    212  CZ         0.3840   37.2660  -12.0650 C.ar  262  PHE262     -0.0000
    213  N         -0.8160   42.7200   -8.9510 N.3   267  TYR267     -0.1227
    214  CA         0.1210   41.6360   -8.7080 C.3   267  TYR267      0.1736
    215  C          1.3420   42.1310   -7.9710 C.2   267  TYR267      0.2595
    216  O          1.9650   43.1180   -8.3530 O.2   267  TYR267     -0.2718
    217  CB         0.5270   40.9940  -10.0230 C.3   267  TYR267      0.0548
    218  CG         1.6020   39.9380   -9.9590 C.ar  267  TYR267     -0.0200
    219  CD1        1.5690   38.9050   -9.0080 C.ar  267  TYR267     -0.0009
    220  CD2        2.6280   39.9200  -10.8830 C.ar  267  TYR267     -0.0009
    221  CE1        2.5400   37.9360   -8.9850 C.ar  267  TYR267      0.0417
    222  CE2        3.5870   38.9560  -10.8730 C.ar  267  TYR267      0.0417
    223  CZ         3.5520   37.9640   -9.9230 C.ar  267  TYR267      0.1957
    224  OH         4.5070   36.9910   -9.9300 O.3   267  TYR267     -0.2866
    225  N          1.6550   41.3980   -6.9120 N.am  268  CYS268     -0.1970
    226  CA         2.6940   41.7640   -5.9790 C.3   268  CYS268      0.1712
    227  C          2.6420   43.0070   -5.1750 C.2   268  CYS268      0.2296
    228  O          3.5510   43.3130   -4.4050 O.2   268  CYS268     -0.2864
    229  CB         3.9740   40.9050   -5.9940 C.3   268  CYS268      0.0983
    230  SG         4.7880   40.6840   -7.5910 S.3   268  CYS268     -0.0798
    231  N          2.7370   45.4860   -6.9920 N.3   270  GLU270     -0.1231
    232  CA         3.6780   46.1840   -7.8730 C.3   270  GLU270      0.1699
    233  C          3.0800   46.5800   -9.2280 C.2   270  GLU270      0.2592
    234  O          3.5370   47.5320   -9.8520 O.2   270  GLU270     -0.2718
    235  CB         4.9320   45.3260   -8.0730 C.3   270  GLU270      0.0402
    236  CG         5.8830   45.4090   -6.8580 C.3   270  GLU270      0.1161
    237  CD         6.9930   44.3860   -6.9610 C.2   270  GLU270      0.3649
    238  OE1        7.1340   43.8880   -8.1010 O.co2 270  GLU270     -0.2457
    239  OE2        7.6330   44.1480   -5.9470 O.co2 270  GLU270     -0.2457
    240  N          2.0580   45.8630   -9.6810 N.am  271  PHE271     -0.1976
    241  CA         1.4180   46.1230  -10.9650 C.3   271  PHE271      0.1639
    242  C          0.0100   46.6510  -10.7220 C.2   271  PHE271      0.2290
    243  O         -0.5100   46.5350   -9.6110 O.2   271  PHE271     -0.2864
    244  CB         1.3590   44.8220  -11.7890 C.3   271  PHE271      0.0560
    245  CG         2.7090   44.2950  -12.1750 C.ar  271  PHE271     -0.0200
    246  CD1        3.4250   43.4730  -11.3090 C.ar  271  PHE271     -0.0042
    247  CD2        3.2950   44.6630  -13.3860 C.ar  271  PHE271     -0.0042
    248  CE1        4.6920   43.0030  -11.6510 C.ar  271  PHE271     -0.0003
    249  CE2        4.5600   44.1940  -13.7400 C.ar  271  PHE271     -0.0003
    250  CZ         5.2610   43.3630  -12.8690 C.ar  271  PHE271     -0.0000
@<TRIPOS>BOND
     1   138   139    1
     2   139   142    1
     3   139   140    1
     4   152   151   ar
     5   153   151   ar
     6   151   150    1
     7   142   143    1
     8   140   146   am
     9   140   141    2
    10   146   147    1
    11   145   143   am
    12   193   192    2
    13   143   144    2
    14   194   192   am
    15   150   147    1
    16   147   148    1
    17   192   191    1
    18   172   171    2
    19   171   170    1
    20   126   127    2
    21   126   125    1
    22   148   154   am
    23   148   149    2
    24   191   190    1
    25   154   155    1
    26   120   121    2
    27   120   119    1
    28   190   187    1
    29   170   169    1
    30   170   173    1
    31   169   167   am
    32   122   123    1
    33   122   119    1
    34   165   166    1
    35   165   156   am
    36   118   119    1
    37   125   124    1
    38   125   128    1
    39   167   166    1
    40   167   168    2
    41   128   129    1
    42   183   185   ar
    43   183   181   ar
    44   161   160    1
    45   161   162    2
    46   113   112    2
    47   198   197    2
    48   155   158    1
    49   155   156    1
    50   159   160    1
    51   159   158    1
    52   112   111    1
    53   185   184   ar
    54   164   162    1
    55   174   173    1
    56   187   186    1
    57   187   188    1
    58   156   157    2
    59   173   175    1
    60   189   188    2
    61   180   181    1
    62   180   177    1
    63   186   178   am
    64   181   182   ar
    65   162   163    1
    66   197   196    1
    67   188   195   am
    68   129   130   ar
    69   129   131   ar
    70   108   107    1
    71   108   109    1
    72   178   177    1
    73   178   179    2
    74   176   177    1
    75   184   182   ar
    76   195   196    1
    77   130   132   ar
    78   111   114    1
    79   111   110    1
    80   107   104    1
    81   202   203    1
    82   134   131   ar
    83   134   136   ar
    84   114   115    1
    85   131   133   ar
    86   196   199    1
    87   106   105    2
    88   110   105   am
    89   105   104    1
    90   109   103    1
    91   206   203    1
    92   206   207    1
    93   200   199    1
    94   104   103    1
    95   132   133   ar
    96   203   204    1
    97   136   137   ar
    98   133   135   ar
    99   199   201    1
   100   103    98   am
   101   115   117   ar
   102   115   116   ar
   103   209   207   ar
   104   209   211   ar
   105   101   100    1
   106   207   208   ar
   107   205   204    2
   108   249   247   ar
   109   249   250   ar
   110     7     6   ar
   111   137   135   ar
   112   247   245   ar
   113    34    35    1
   114    34    31    1
   115    98    97    1
   116    98    99    2
   117    35    36    2
   118    35    37   am
   119   211   212   ar
   120   208   210   ar
   121   250   248   ar
   122    97   100    1
   123    97    96    1
   124     8     6   ar
   125     6     5    1
   126   100   102    1
   127    30    31    1
   128     1     2    1
   129    91    90    2
   130    31    32    1
   131   245   244    1
   132   245   246   ar
   133   212   210   ar
   134   244   241    1
   135     5     2    1
   136   248   246   ar
   137    96    90   am
   138    90    89    1
   139     2     3    1
   140   241   242    1
   141   241   240    1
   142    32    33    2
   143    32    38   am
   144   220   222   ar
   145   220   218   ar
   146   222   223   ar
   147   242   243    2
   148     4     3    2
   149    38    39    1
   150    88    89    1
   151    67    65    1
   152    89    92    1
   153    45    47   ar
   154    45    43   ar
   155   217   218    1
   156   217   214    1
   157    47    46   ar
   158   218   219   ar
   159   224   223    1
   160   223   221   ar
   161   234   233    2
   162    18    16   ar
   163    18    17   ar
   164    65    64    1
   165   240   233   am
   166    92    93    1
   167    87    86    1
   168    16    14   ar
   169   233   232    1
   170    53    52    1
   171    93    94   ar
   172    93    95   ar
   173   219   221   ar
   174   213   214    1
   175    17    15   ar
   176    52    49    1
   177    43    42    1
   178    43    44   ar
   179    39    42    1
   180    39    40    1
   181    46    44   ar
   182   214   215    1
   183    66    64    1
   184    29    27    1
   185    86    85   ar
   186    86    84   ar
   187    64    61    1
   188   216   215    2
   189    85    83   ar
   190   238   237   ar
   191   235   232    1
   192   235   236    1
   193   215   225   am
   194    14    15   ar
   195    14    13    1
   196   232   231    1
   197    40    41    2
   198    84    82   ar
   199    58    59    1
   200    58    55    1
   201   230   229    1
   202    26    27    2
   203    26    25    1
   204    27    28    1
   205    49    48    1
   206    49    50    1
   207    83    81   ar
   208    61    60    1
   209    61    62    1
   210   237   236    1
   211   237   239   ar
   212    60    56   am
   213   225   226    1
   214    13    10    1
   215    82    81   ar
   216    75    73    1
   217     9    10    1
   218    24    25    1
   219    24    23    1
   220    81    80    1
   221    56    55    1
   222    56    57    2
   223    50    51    2
   224    55    54    1
   225    10    11    1
   226   229   226    1
   227    62    63    2
   228   226   227    1
   229    23    20    1
   230    80    77    1
   231    74    72    1
   232    73    72    1
   233   227   228    2
   234    72    69    1
   235    11    12    2
   236    20    19    1
   237    20    21    1
   238    77    76    1
   239    77    78    1
   240    76    70   am
   241    69    70    1
   242    69    68    1
   243    70    71    2
   244    79    78    2
   245    21    22    2
