@<TRIPOS>MOLECULE
tmp/3e7cC00.pdb
 138 129 0 0 0
SMALL
GASTEIGER

@<TRIPOS>ATOM
      1  N         91.5630   -1.6570  -13.8280 N.3    48  ILE48      -0.1245
      2  CA        91.3270   -2.6860  -12.8250 C.3    48  ILE48       0.1561
      3  C         90.4420   -2.1010  -11.7200 C.2    48  ILE48       0.2260
      4  O         89.4860   -2.7400  -11.2750 O.2    48  ILE48      -0.2867
      5  CB        92.6550   -3.2360  -12.2510 C.3    48  ILE48       0.0252
      6  CG1       93.3590   -4.1370  -13.2700 C.3    48  ILE48       0.0019
      7  CG2       92.4280   -4.0270  -10.9580 C.3    48  ILE48       0.0019
      8  CD1       94.8230   -4.3470  -12.9380 C.3    48  ILE48       0.0001
      9  N         86.8310   -1.7810  -12.5740 N.3    51  VAL51      -0.1245
     10  CA        86.1060   -3.0430  -12.5400 C.3    51  VAL51       0.1561
     11  C         85.5540   -3.2640  -11.1360 C.2    51  VAL51       0.2260
     12  O         84.3880   -3.6360  -10.9570 O.2    51  VAL51      -0.2867
     13  CB        87.0000   -4.2290  -12.9770 C.3    51  VAL51       0.0252
     14  CG1       86.2710   -5.5630  -12.7980 C.3    51  VAL51       0.0019
     15  CG2       87.4420   -4.0560  -14.4240 C.3    51  VAL51       0.0019
     16  N         81.3770   -3.2700  -10.4360 N.3    55  LYS55      -0.1245
     17  CA        80.7450   -4.3860   -9.7400 C.3    55  LYS55       0.1561
     18  C         80.0300   -3.9510   -8.4710 C.2    55  LYS55       0.2260
     19  O         79.1270   -4.6340   -8.0070 O.2    55  LYS55      -0.2867
     20  CB        81.7500   -5.5030   -9.4260 C.3    55  LYS55       0.0271
     21  CG        82.4620   -6.0470  -10.6510 C.3    55  LYS55       0.0035
     22  CD        83.1440   -7.3850  -10.3780 C.3    55  LYS55       0.0206
     23  CE        83.9280   -7.3890   -9.0740 C.3    55  LYS55       0.1093
     24  NZ        84.4800   -8.7460   -8.7640 N.3    55  LYS55      -0.1314
     25  N         74.5820   -3.6130  -11.5070 N.3    60  PHE60      -0.1227
     26  CA        75.5870   -4.1210  -12.4440 C.3    60  PHE60       0.1736
     27  C         75.8400   -5.6310  -12.3280 C.2    60  PHE60       0.2595
     28  O         75.8410   -6.3440  -13.3380 O.2    60  PHE60      -0.2718
     29  CB        76.9040   -3.3370  -12.3280 C.3    60  PHE60       0.0547
     30  CG        77.8170   -3.5220  -13.5090 C.ar   60  PHE60      -0.0202
     31  CD1       77.5890   -2.8330  -14.6940 C.ar   60  PHE60      -0.0042
     32  CD2       78.9010   -4.3860  -13.4370 C.ar   60  PHE60      -0.0042
     33  CE1       78.4320   -3.0120  -15.7870 C.ar   60  PHE60      -0.0003
     34  CE2       79.7570   -4.5570  -14.5200 C.ar   60  PHE60      -0.0003
     35  CZ        79.5260   -3.8830  -15.6920 C.ar   60  PHE60      -0.0000
     36  N         76.0600   -6.1220  -11.1090 N.am   61  ARG61      -0.1980
     37  CA        76.2800   -7.5520  -10.9030 C.3    61  ARG61       0.1597
     38  C         75.1380   -8.4140  -11.4510 C.2    61  ARG61       0.2287
     39  O         75.3530   -9.5580  -11.8550 O.2    61  ARG61      -0.2864
     40  CB        76.5000   -7.8630   -9.4230 C.3    61  ARG61       0.0334
     41  CG        77.9270   -7.6460   -8.9640 C.3    61  ARG61       0.0492
     42  CD        78.2240   -8.4670   -7.7170 C.3    61  ARG61       0.2205
     43  NE        79.6560   -8.6890   -7.5260 N.pl3  61  ARG61      -0.0865
     44  CZ        80.4530   -7.8900   -6.8230 C.cat  61  ARG61       0.5346
     45  NH1       79.9610   -6.8040   -6.2410 N.pl3  61  ARG61       0.1354
     46  NH2       81.7450   -8.1770   -6.7020 N.pl3  61  ARG61       0.1354
     47  N         77.1010  -11.9170  -16.9440 N.3    65  LEU65      -0.1231
     48  CA        78.5460  -11.7100  -16.8600 C.3    65  LEU65       0.1693
     49  C         79.1170  -11.2330  -18.1980 C.2    65  LEU65       0.2592
     50  O         80.0390  -10.4270  -18.2420 O.2    65  LEU65      -0.2718
     51  CB        79.2320  -13.0120  -16.4160 C.3    65  LEU65       0.0284
     52  CG        80.7390  -13.0070  -16.1810 C.3    65  LEU65       0.0019
     53  CD1       81.1420  -11.9550  -15.1490 C.3    65  LEU65       0.0001
     54  CD2       81.2060  -14.4090  -15.7540 C.3    65  LEU65       0.0001
     55  N         78.5660  -11.7340  -19.2960 N.am   66  ASP66      -0.1974
     56  CA        79.0900  -11.3650  -20.6000 C.3    66  ASP66       0.1709
     57  C         78.8110   -9.9040  -20.8700 C.2    66  ASP66       0.2293
     58  O         79.6380   -9.2190  -21.4730 O.2    66  ASP66      -0.2864
     59  CB        78.4910  -12.2260  -21.7020 C.3    66  ASP66       0.1436
     60  CG        78.9990  -13.6550  -21.6590 C.2    66  ASP66       0.3671
     61  OD1       80.0570  -13.8870  -21.0290 O.co2  66  ASP66      -0.2456
     62  OD2       78.3390  -14.5430  -22.2490 O.co2  66  ASP66      -0.2456
     63  N         78.4840   -7.4520  -18.5750 N.3    68  GLN68      -0.1231
     64  CA        79.4040   -6.7060  -17.7360 C.3    68  GLN68       0.1698
     65  C         80.7530   -6.5370  -18.4240 C.2    68  GLN68       0.2592
     66  O         81.3490   -5.4420  -18.3990 O.2    68  GLN68      -0.2718
     67  CB        79.6020   -7.4190  -16.3980 C.3    68  GLN68       0.0381
     68  CG        78.3080   -7.6350  -15.6270 C.3    68  GLN68       0.0905
     69  CD        78.5330   -8.3630  -14.3080 C.2    68  GLN68       0.2608
     70  OE1       79.4870   -8.0690  -13.5770 O.2    68  GLN68      -0.2717
     71  NE2       77.6530   -9.3220  -13.9950 N.am   68  GLN68      -0.0878
     72  N         81.2410   -7.6130  -19.0360 N.am   69  MET69      -0.1979
     73  CA        82.5430   -7.5450  -19.7060 C.3    69  MET69       0.1605
     74  C         82.4420   -6.6310  -20.9080 C.2    69  MET69       0.2287
     75  O         83.3470   -5.8530  -21.1880 O.2    69  MET69      -0.2864
     76  CB        83.0200   -8.9200  -20.1770 C.3    69  MET69       0.0413
     77  CG        83.6150   -9.8120  -19.0970 C.3    69  MET69       0.0598
     78  SD        83.9020  -11.4920  -19.7170 S.3    69  MET69      -0.1393
     79  CE        84.7500  -11.1390  -21.2690 C.3    69  MET69       0.0692
     80  N         82.4040   -2.7990  -19.7770 N.3    72  LEU72      -0.1231
     81  CA        83.7070   -2.3150  -19.3390 C.3    72  LEU72       0.1693
     82  C         84.6590   -2.2000  -20.5310 C.2    72  LEU72       0.2591
     83  O         85.4250   -1.2330  -20.6480 O.2    72  LEU72      -0.2718
     84  CB        84.2630   -3.2070  -18.2310 C.3    72  LEU72       0.0284
     85  CG        83.4860   -2.9180  -16.9410 C.3    72  LEU72       0.0019
     86  CD1       83.5640   -4.0610  -15.9650 C.3    72  LEU72       0.0001
     87  CD2       84.0020   -1.6200  -16.2970 C.3    72  LEU72       0.0001
     88  N         84.5630   -3.1620  -21.4380 N.am   73  GLN73      -0.1979
     89  CA        85.3430   -3.1340  -22.6610 C.3    73  GLN73       0.1601
     90  C         85.0200   -1.9400  -23.5360 C.2    73  GLN73       0.2287
     91  O         85.9220   -1.3560  -24.1360 O.2    73  GLN73      -0.2864
     92  CB        85.1410   -4.4190  -23.4560 C.3    73  GLN73       0.0394
     93  CG        85.9240   -5.6120  -22.9130 C.3    73  GLN73       0.0908
     94  CD        85.3280   -6.9370  -23.3500 C.2    73  GLN73       0.2608
     95  OE1       84.3260   -6.9720  -24.0690 O.2    73  GLN73      -0.2717
     96  NE2       85.9380   -8.0360  -22.9110 N.am   73  GLN73      -0.0878
     97  N         99.3010   -5.9030  -19.3220 N.3   220  GLU220     -0.1231
     98  CA        98.4980   -6.9570  -19.9640 C.3   220  GLU220      0.1699
     99  C         96.9910   -6.7080  -19.9450 C.2   220  GLU220      0.2592
    100  O         96.3290   -6.7620  -20.9890 O.2   220  GLU220     -0.2718
    101  CB        98.8430   -8.3440  -19.3840 C.3   220  GLU220      0.0402
    102  CG       100.2610   -8.7980  -19.7100 C.3   220  GLU220      0.1161
    103  CD       100.6070  -10.1750  -19.1510 C.2   220  GLU220      0.3649
    104  OE1       99.7690  -11.1000  -19.2190 O.co2 220  GLU220     -0.2457
    105  OE2      101.7360  -10.3410  -18.6520 O.co2 220  GLU220     -0.2457
    106  N         96.4490   -6.4160  -18.7680 N.am  221  MET221     -0.1979
    107  CA        95.0410   -6.0480  -18.6580 C.3   221  MET221      0.1605
    108  C         94.5990   -5.1720  -19.8320 C.2   221  MET221      0.2287
    109  O         93.6490   -5.5020  -20.5390 O.2   221  MET221     -0.2864
    110  CB        94.7930   -5.3050  -17.3440 C.3   221  MET221      0.0413
    111  CG        93.3530   -4.8590  -17.1370 C.3   221  MET221      0.0598
    112  SD        92.1820   -6.2290  -16.9560 S.3   221  MET221     -0.1393
    113  CE        90.7720   -5.3290  -16.3330 C.3   221  MET221      0.0692
    114  N         95.1200   -6.5420  -23.5280 N.3   224  GLU224     -0.1231
    115  CA        94.0010   -7.4440  -23.7790 C.3   224  GLU224      0.1699
    116  C         92.7590   -6.6940  -24.2660 C.2   224  GLU224      0.2592
    117  O         92.2130   -6.9730  -25.3460 O.2   224  GLU224     -0.2718
    118  CB        93.6680   -8.1720  -22.4820 C.3   224  GLU224      0.0402
    119  CG        92.8800   -9.4340  -22.6480 C.3   224  GLU224      0.1161
    120  CD        92.3790   -9.9580  -21.3230 C.2   224  GLU224      0.3649
    121  OE1       91.3550   -9.4340  -20.8240 O.co2 224  GLU224     -0.2457
    122  OE2       93.0100  -10.8970  -20.7840 O.co2 224  GLU224     -0.2457
    123  N         92.3130   -5.7430  -23.4500 N.am  225  ILE225     -0.1980
    124  CA        91.1370   -4.9650  -23.7700 C.3   225  ILE225      0.1595
    125  C         91.3390   -4.2470  -25.0870 C.2   225  ILE225      0.2287
    126  O         90.4120   -4.0990  -25.8770 O.2   225  ILE225     -0.2864
    127  CB        90.8270   -3.9620  -22.6600 C.3   225  ILE225      0.0276
    128  CG1       90.4920   -4.7160  -21.3680 C.3   225  ILE225      0.0022
    129  CG2       89.6920   -3.0310  -23.0770 C.3   225  ILE225      0.0022
    130  CD1       89.9830   -3.8260  -20.2530 C.3   225  ILE225      0.0001
    131  N         91.2380   -6.9090  -28.1570 N.3   228  ASN228     -0.1240
    132  CA        89.8760   -7.3830  -28.3310 C.3   228  ASN228      0.1653
    133  C         88.9560   -6.2910  -28.8510 C.2   228  ASN228      0.2266
    134  O         87.8210   -6.5610  -29.2320 O.2   228  ASN228     -0.2867
    135  CB        89.3310   -7.9380  -27.0160 C.3   228  ASN228      0.1155
    136  CG        88.0320   -8.6980  -27.2000 C.2   228  ASN228      0.2627
    137  OD1       87.9210   -9.5620  -28.0720 O.2   228  ASN228     -0.2716
    138  ND2       87.0410   -8.3830  -26.3730 N.am  228  ASN228     -0.0877
@<TRIPOS>BOND
     1   134   133    2
     2   133   132    1
     3   132   131    1
     4   132   135    1
     5   137   136    2
     6   136   135    1
     7   136   138   am
     8   126   125    2
     9   117   116    2
    10   125   124    1
    11   116   115    1
    12   116   123   am
    13    91    90    2
    14    95    94    2
    15   115   114    1
    16   115   118    1
    17   124   123    1
    18   124   127    1
    19    90    89    1
    20    92    93    1
    21    92    89    1
    22    94    93    1
    23    94    96   am
    24   129   127    1
    25    89    88    1
    26   127   128    1
    27   119   118    1
    28   119   120    1
    29    62    60   ar
    30    59    60    1
    31    59    56    1
    32    60    61   ar
    33    58    57    2
    34    88    82   am
    35   128   130    1
    36   120   121   ar
    37   120   122   ar
    38    79    78    1
    39    75    74    2
    40   100    99    2
    41    74    73    1
    42    57    56    1
    43    83    82    2
    44    56    55    1
    45   109   108    2
    46    82    81    1
    47    76    73    1
    48    76    77    1
    49    98    99    1
    50    98   101    1
    51    98    97    1
    52    99   106   am
    53   108   107    1
    54    80    81    1
    55    78    77    1
    56   102   101    1
    57   102   103    1
    58    73    72    1
    59    81    84    1
    60    55    49   am
    61   104   103   ar
    62   103   105   ar
    63    72    65   am
    64   106   107    1
    65   107   110    1
    66    63    64    1
    67    65    66    2
    68    65    64    1
    69    50    49    2
    70    84    85    1
    71    49    48    1
    72    64    67    1
    73   110   111    1
    74   111   112    1
    75   112   113    1
    76    47    48    1
    77    85    87    1
    78    85    86    1
    79    48    51    1
    80    51    52    1
    81    67    68    1
    82    52    54    1
    83    52    53    1
    84    33    35   ar
    85    33    31   ar
    86    35    34   ar
    87    68    69    1
    88    31    30   ar
    89    34    32   ar
    90    15    13    1
    91    69    71   am
    92    69    70    2
    93     1     2    1
    94    30    32   ar
    95    30    29    1
    96    28    27    2
    97     6     8    1
    98     6     5    1
    99    13    14    1
   100    13    10    1
   101     2     5    1
   102     2     3    1
   103     9    10    1
   104    10    11    1
   105    26    27    1
   106    26    29    1
   107    26    25    1
   108    27    36   am
   109     5     7    1
   110    39    38    2
   111     3     4    2
   112    38    37    1
   113    11    12    2
   114    36    37    1
   115    37    40    1
   116    21    22    1
   117    21    20    1
   118    16    17    1
   119    22    23    1
   120    17    20    1
   121    17    18    1
   122    40    41    1
   123    23    24    1
   124    41    42    1
   125    18    19    2
   126    42    43    1
   127    43    44    2
   128    44    46    1
   129    44    45    1
