@<TRIPOS>MOLECULE
tmp/3e7cC01.pdb
 212 198 0 0 0
SMALL
GASTEIGER

@<TRIPOS>ATOM
      1  N        108.1570   12.0730  -24.4850 N.3    32  THR32      -0.1218
      2  CA       106.8340   11.5320  -24.7660 C.3    32  THR32       0.1862
      3  C        106.8120   10.0310  -24.4760 C.2    32  THR32       0.2287
      4  O        105.8160    9.5000  -23.9820 O.2    32  THR32      -0.2866
      5  CB       106.4180   11.7840  -26.2220 C.3    32  THR32       0.1770
      6  OG1      106.4630   13.1890  -26.4940 O.3    32  THR32      -0.2211
      7  CG2      105.0060   11.2720  -26.4640 C.3    32  THR32       0.0375
      8  N        104.0980    8.4130  -21.8740 N.3    36  MET36      -0.1245
      9  CA       103.1420    7.4560  -22.4330 C.3    36  MET36       0.1570
     10  C        103.2300    6.1260  -21.6920 C.2    36  MET36       0.2261
     11  O        102.2070    5.5120  -21.3830 O.2    36  MET36      -0.2867
     12  CB       103.4090    7.2110  -23.9190 C.3    36  MET36       0.0387
     13  CG       103.1590    8.4010  -24.8200 C.3    36  MET36       0.0595
     14  SD       103.3150    7.9340  -26.5520 S.3    36  MET36      -0.1393
     15  CE       104.9890    7.2960  -26.5790 C.3    36  MET36       0.0692
     16  N        101.8970    6.3650  -18.2140 N.3    39  LEU39      -0.1231
     17  CA       100.4390    6.5250  -18.2480 C.3    39  LEU39       0.1693
     18  C         99.7250    5.2170  -18.5900 C.2    39  LEU39       0.2592
     19  O         98.5770    4.9930  -18.1770 O.2    39  LEU39      -0.2718
     20  CB       100.0060    7.6460  -19.2130 C.3    39  LEU39       0.0284
     21  CG       100.3360    9.0870  -18.7900 C.3    39  LEU39       0.0019
     22  CD1       99.7700   10.1290  -19.7720 C.3    39  LEU39       0.0001
     23  CD2       99.8370    9.3550  -17.3790 C.3    39  LEU39       0.0001
     24  N        100.4030    4.3670  -19.3550 N.am   40  ASN40      -0.1974
     25  CA        99.8960    3.0320  -19.6570 C.3    40  ASN40       0.1688
     26  C         99.8490    2.1780  -18.4140 C.2    40  ASN40       0.2292
     27  O         98.8630    1.4670  -18.1600 O.2    40  ASN40      -0.2864
     28  CB       100.7640    2.3520  -20.7130 C.3    40  ASN40       0.1181
     29  CG       100.5150    2.9060  -22.0940 C.2    40  ASN40       0.2629
     30  OD1       99.5890    3.6990  -22.2920 O.2    40  ASN40      -0.2716
     31  ND2      101.3230    2.4860  -23.0610 N.am   40  ASN40      -0.0877
     32  N         99.8230    3.3230  -15.2400 N.3    42  LEU42      -0.1231
     33  CA        98.8090    3.9270  -14.3770 C.3    42  LEU42       0.1693
     34  C         97.4350    3.5590  -14.8640 C.2    42  LEU42       0.2592
     35  O         96.5420    3.2340  -14.0750 O.2    42  LEU42      -0.2718
     36  CB        98.9250    5.4450  -14.3780 C.3    42  LEU42       0.0284
     37  CG        97.9570    6.1220  -13.4150 C.3    42  LEU42       0.0019
     38  CD1       98.0360    5.4630  -12.0350 C.3    42  LEU42       0.0001
     39  CD2       98.2340    7.6300  -13.3430 C.3    42  LEU42       0.0001
     40  N         97.2540    3.6110  -16.1770 N.am   43  GLY43      -0.1957
     41  CA        95.9470    3.3430  -16.7440 C.3    43  GLY43       0.1869
     42  C         95.4810    1.9130  -16.5040 C.2    43  GLY43       0.2309
     43  O         94.2990    1.6660  -16.2100 O.2    43  GLY43      -0.2863
     44  N         94.1170    1.8350  -13.3190 N.3    46  GLN46      -0.1245
     45  CA        92.8550    2.5640  -13.2350 C.3    46  GLN46       0.1566
     46  C         91.7110    1.6860  -13.7470 C.2    46  GLN46       0.2260
     47  O         90.6180    1.7020  -13.1940 O.2    46  GLN46      -0.2867
     48  CB        92.8890    3.8730  -14.0430 C.3    46  GLN46       0.0367
     49  CG        94.0880    4.8120  -13.7700 C.3    46  GLN46       0.0905
     50  CD        93.8350    5.8040  -12.6450 C.2    46  GLN46       0.2608
     51  OE1       93.1020    5.5180  -11.7020 O.2    46  GLN46      -0.2717
     52  NE2       94.4570    6.9760  -12.7390 N.am   46  GLN46      -0.0878
     53  N         85.7560    1.7510  -20.8620 N.3    76  TRP76      -0.1227
     54  CA        86.8530    2.0140  -19.9340 C.3    76  TRP76       0.1737
     55  C         87.4280    3.3940  -20.1630 C.2    76  TRP76       0.2595
     56  O         87.7720    4.0890  -19.2060 O.2    76  TRP76      -0.2718
     57  CB        87.9650    0.9560  -20.0420 C.3    76  TRP76       0.0564
     58  CG        88.5810    0.8830  -21.3930 C.ar   76  TRP76       0.0003
     59  CD1       88.0660    0.2710  -22.5000 C.ar   76  TRP76       0.0946
     60  CD2       89.8340    1.4380  -21.7910 C.ar   76  TRP76       0.0152
     61  NE1       88.9170    0.4240  -23.5690 N.ar   76  TRP76      -0.2442
     62  CE2       90.0180    1.1270  -23.1550 C.ar   76  TRP76       0.0810
     63  CE3       90.8230    2.1640  -21.1270 C.ar   76  TRP76       0.0012
     64  CZ2       91.1450    1.5170  -23.8630 C.ar   76  TRP76       0.0191
     65  CZ3       91.9470    2.5530  -21.8360 C.ar   76  TRP76       0.0001
     66  CH2       92.0990    2.2270  -23.1880 C.ar   76  TRP76       0.0015
     67  N         87.5100    3.8110  -21.4260 N.am   77  MET77      -0.1979
     68  CA        88.1900    5.0580  -21.7270 C.3    77  MET77       0.1605
     69  C         87.2620    6.2640  -21.5730 C.2    77  MET77       0.2287
     70  O         87.7360    7.4020  -21.3870 O.2    77  MET77      -0.2864
     71  CB        88.8290    5.0350  -23.1220 C.3    77  MET77       0.0413
     72  CG        89.3540    6.4220  -23.5510 C.3    77  MET77       0.0598
     73  SD        90.8430    6.9120  -22.6390 S.3    77  MET77      -0.1393
     74  CE        92.0650    6.0700  -23.6280 C.3    77  MET77       0.0692
     75  N         87.8860    6.6840  -17.9930 N.3    80  MET80      -0.1245
     76  CA        89.2110    7.2540  -17.7860 C.3    80  MET80       0.1570
     77  C         89.1640    8.7510  -18.0730 C.2    80  MET80       0.2261
     78  O         89.5330    9.5750  -17.2390 O.2    80  MET80      -0.2867
     79  CB        90.2250    6.6100  -18.7390 C.3    80  MET80       0.0387
     80  CG        90.4750    5.0980  -18.5670 C.3    80  MET80       0.0595
     81  SD        91.7280    4.7740  -17.3270 S.3    80  MET80      -0.1393
     82  CE        90.5690    4.6440  -15.9660 C.3    80  MET80       0.0692
     83  N         86.7320   10.7340  -15.5060 N.3    83  ALA83      -0.1231
     84  CA        87.3450   10.8340  -14.1910 C.3    83  ALA83       0.1694
     85  C         88.5550   11.7850  -14.2190 C.2    83  ALA83       0.2591
     86  O         88.7230   12.6050  -13.3070 O.2    83  ALA83      -0.2718
     87  CB        87.7490    9.4310  -13.6840 C.3    83  ALA83       0.0304
     88  N         89.3850   11.6900  -15.2660 N.am   84  LEU84      -0.1980
     89  CA        90.5180   12.6230  -15.4330 C.3    84  LEU84       0.1596
     90  C         90.0100   14.0450  -15.6640 C.2    84  LEU84       0.2287
     91  O         90.5150   15.0060  -15.0700 O.2    84  LEU84      -0.2864
     92  CB        91.4530   12.2120  -16.5850 C.3    84  LEU84       0.0297
     93  CG        92.5000   13.2580  -17.0310 C.3    84  LEU84       0.0022
     94  CD1       93.5670   13.4950  -15.9630 C.3    84  LEU84       0.0001
     95  CD2       93.1600   12.9230  -18.3790 C.3    84  LEU84       0.0001
     96  N         89.1030   15.2850  -12.3350 N.3    87  ARG87      -0.1245
     97  CA        90.3060   15.5480  -11.5570 C.3    87  ARG87       0.1563
     98  C         90.9310   16.8750  -11.9420 C.2    87  ARG87       0.2260
     99  O         91.2830   17.6770  -11.0950 O.2    87  ARG87      -0.2867
    100  CB        91.3430   14.4500  -11.7890 C.3    87  ARG87       0.0307
    101  CG        91.0810   13.1740  -11.0410 C.3    87  ARG87       0.0489
    102  CD        91.7020   13.1810   -9.6580 C.3    87  ARG87       0.2205
    103  NE        91.4810   11.8860   -9.0220 N.pl3  87  ARG87      -0.0865
    104  CZ        92.1920   10.7950   -9.2900 C.cat  87  ARG87       0.5346
    105  NH1       91.9170    9.6510   -8.6750 N.pl3  87  ARG87       0.1354
    106  NH2       93.1810   10.8490  -10.1730 N.pl3  87  ARG87       0.1354
    107  N         96.7580   13.7090  -14.3280 N.3    97  PHE97      -0.1241
    108  CA        96.6510   12.2530  -14.3990 C.3    97  PHE97       0.1605
    109  C         96.8710   11.6290  -13.0280 C.2    97  PHE97       0.2264
    110  O         96.3020   10.5810  -12.7030 O.2    97  PHE97      -0.2867
    111  CB        97.6550   11.6790  -15.3990 C.3    97  PHE97       0.0534
    112  CG        97.2390   11.8310  -16.8360 C.ar   97  PHE97      -0.0203
    113  CD1       97.6650   12.9290  -17.5780 C.ar   97  PHE97      -0.0042
    114  CD2       96.4290   10.8750  -17.4490 C.ar   97  PHE97      -0.0042
    115  CE1       97.2990   13.0760  -18.9030 C.ar   97  PHE97      -0.0003
    116  CE2       96.0540   11.0110  -18.7790 C.ar   97  PHE97      -0.0003
    117  CZ        96.4890   12.1250  -19.5100 C.ar   97  PHE97      -0.0000
    118  N        103.8940   15.1900  -29.7630 N.3   112  GLY112     -0.1210
    119  CA       102.7510   14.2950  -29.8010 C.3   112  GLY112      0.1956
    120  C        101.8410   14.2810  -28.5850 C.2   112  GLY112      0.2611
    121  O        100.9340   13.4580  -28.5070 O.2   112  GLY112     -0.2717
    122  N        102.0620   15.1920  -27.6450 N.am  113  MET113     -0.1979
    123  CA       101.2590   15.2330  -26.4260 C.3   113  MET113      0.1605
    124  C         99.8990   15.9220  -26.5800 C.2   113  MET113      0.2287
    125  O         98.8640   15.3690  -26.2170 O.2   113  MET113     -0.2864
    126  CB       102.0540   15.8840  -25.2930 C.3   113  MET113      0.0413
    127  CG       101.7520   15.2720  -23.9520 C.3   113  MET113      0.0598
    128  SD       102.1280   13.5150  -24.0190 S.3   113  MET113     -0.1393
    129  CE       100.9350   12.9000  -22.8350 C.3   113  MET113      0.0692
    130  N         96.4450   14.6120  -28.1980 N.3   116  GLN116     -0.1231
    131  CA        95.5170   13.7680  -27.4640 C.3   116  GLN116      0.1698
    132  C         95.0480   14.4870  -26.2180 C.2   116  GLN116      0.2592
    133  O         93.8740   14.4640  -25.8840 O.2   116  GLN116     -0.2718
    134  CB        96.1750   12.4400  -27.0890 C.3   116  GLN116      0.0381
    135  CG        95.2840   11.4940  -26.2970 C.3   116  GLN116      0.0905
    136  CD        94.7560   10.3540  -27.1370 C.2   116  GLN116      0.2608
    137  OE1       94.4850   10.5200  -28.3190 O.2   116  GLN116     -0.2717
    138  NE2       94.6070    9.1890  -26.5290 N.am  116  GLN116     -0.0878
    139  N         95.9730   15.1330  -25.5320 N.am  117  CYS117     -0.1970
    140  CA        95.6360   15.8060  -24.2920 C.3   117  CYS117      0.1712
    141  C         94.5140   16.8360  -24.4820 C.2   117  CYS117      0.2296
    142  O         93.6940   17.0270  -23.5870 O.2   117  CYS117     -0.2864
    143  CB        96.8680   16.4720  -23.7000 C.3   117  CYS117      0.0983
    144  SG        98.0640   15.2960  -23.0880 S.3   117  CYS117     -0.0798
    145  N         91.2230   15.3170  -23.6280 N.3   120  MET120     -0.1245
    146  CA        91.0250   15.3080  -22.1920 C.3   120  MET120      0.1570
    147  C         90.7200   16.7220  -21.7300 C.2   120  MET120      0.2261
    148  O         89.8390   16.9320  -20.8950 O.2   120  MET120     -0.2867
    149  CB        92.2570   14.7780  -21.4720 C.3   120  MET120      0.0387
    150  CG        92.6010   13.3580  -21.8290 C.3   120  MET120      0.0595
    151  SD        91.2300   12.2790  -21.4190 S.3   120  MET120     -0.1393
    152  CE        92.0260   10.6750  -21.5840 C.3   120  MET120      0.0692
    153  N         94.2850    7.4400  -31.2860 N.3   204  TYR204     -0.1227
    154  CA        95.6640    7.8020  -30.9970 C.3   204  TYR204      0.1736
    155  C         96.2810    6.8360  -29.9930 C.2   204  TYR204      0.2595
    156  O         97.5010    6.8080  -29.8130 O.2   204  TYR204     -0.2718
    157  CB        95.7240    9.2430  -30.4870 C.3   204  TYR204      0.0548
    158  CG        97.1090    9.8350  -30.4400 C.ar  204  TYR204     -0.0200
    159  CD1       98.1670    9.2460  -31.1230 C.ar  204  TYR204     -0.0009
    160  CD2       97.3570   10.9980  -29.7320 C.ar  204  TYR204     -0.0009
    161  CE1       99.4310    9.7920  -31.0850 C.ar  204  TYR204      0.0417
    162  CE2       98.6180   11.5530  -29.6900 C.ar  204  TYR204      0.0417
    163  CZ        99.6510   10.9450  -30.3670 C.ar  204  TYR204      0.1957
    164  OH       100.9040   11.5040  -30.3220 O.3   204  TYR204     -0.2866
    165  N         95.4260    6.0460  -29.3460 N.am  205  CYS205     -0.1970
    166  CA        95.8740    5.0300  -28.4050 C.3   205  CYS205      0.1712
    167  C         96.1000    3.7130  -29.1320 C.2   205  CYS205      0.2296
    168  O         97.1470    3.0930  -28.9800 O.2   205  CYS205     -0.2864
    169  CB        94.8530    4.8280  -27.2860 C.3   205  CYS205      0.0983
    170  SG        95.2370    3.4300  -26.2010 S.3   205  CYS205     -0.0798
    171  N         99.1150    3.9860  -31.5330 N.3   208  THR208     -0.1218
    172  CA       100.3320    3.8140  -30.7550 C.3   208  THR208      0.1862
    173  C        100.5660    2.3450  -30.3980 C.2   208  THR208      0.2287
    174  O        101.7100    1.8860  -30.2880 O.2   208  THR208     -0.2866
    175  CB       100.2570    4.6340  -29.4670 C.3   208  THR208      0.1770
    176  OG1      100.1150    6.0190  -29.8010 O.3   208  THR208     -0.2211
    177  CG2      101.5110    4.4490  -28.6450 C.3   208  THR208      0.0375
    178  N        106.7400    0.6300  -26.9410 N.3   216  ILE216     -0.1245
    179  CA       105.9180    1.1970  -25.8870 C.3   216  ILE216      0.1561
    180  C        105.1900    0.1000  -25.1130 C.2   216  ILE216      0.2260
    181  O        104.4480   -0.6960  -25.6930 O.2   216  ILE216     -0.2867
    182  CB       104.9160    2.2210  -26.4690 C.3   216  ILE216      0.0252
    183  CG1      104.0960    2.8630  -25.3550 C.3   216  ILE216      0.0019
    184  CG2      104.0180    1.5720  -27.5100 C.3   216  ILE216      0.0019
    185  CD1      104.9270    3.6510  -24.3930 C.3   216  ILE216      0.0001
    186  N        102.4770   -1.5220  -22.7280 N.3   218  PHE218     -0.1241
    187  CA       101.1550   -1.5040  -22.1080 C.3   218  PHE218      0.1605
    188  C        101.1180   -2.6720  -21.1280 C.2   218  PHE218      0.2264
    189  O        101.6540   -3.7280  -21.4260 O.2   218  PHE218     -0.2867
    190  CB       100.0500   -1.7120  -23.1540 C.3   218  PHE218      0.0534
    191  CG        99.8710   -0.5640  -24.1080 C.ar  218  PHE218     -0.0203
    192  CD1      100.6840   -0.4400  -25.2230 C.ar  218  PHE218     -0.0042
    193  CD2       98.8700    0.3790  -23.9060 C.ar  218  PHE218     -0.0042
    194  CE1      100.5220    0.6190  -26.1110 C.ar  218  PHE218     -0.0003
    195  CE2       98.7010    1.4360  -24.7900 C.ar  218  PHE218     -0.0003
    196  CZ        99.5280    1.5590  -25.8930 C.ar  218  PHE218     -0.0000
    197  N         95.3010   -4.0630  -20.0370 N.3   222  LEU222     -0.1245
    198  CA        94.9790   -3.1000  -21.0880 C.3   222  LEU222      0.1561
    199  C         95.2100   -3.6650  -22.4770 C.2   222  LEU222      0.2260
    200  O         94.3720   -3.5340  -23.3620 O.2   222  LEU222     -0.2867
    201  CB        95.8360   -1.8500  -20.9250 C.3   222  LEU222      0.0270
    202  CG        95.1560   -0.5500  -20.5190 C.3   222  LEU222      0.0019
    203  CD1       93.7550   -0.4780  -21.0710 C.3   222  LEU222      0.0001
    204  CD2       95.1490   -0.4110  -19.0150 C.3   222  LEU222      0.0001
    205  N         92.5620   -3.8110  -25.3400 N.3   226  ILE226     -0.1245
    206  CA        92.8410   -3.1070  -26.5840 C.3   226  ILE226      0.1561
    207  C         92.7500   -4.0340  -27.8100 C.2   226  ILE226      0.2260
    208  O         92.1030   -3.7000  -28.8050 O.2   226  ILE226     -0.2867
    209  CB        94.2060   -2.3820  -26.5320 C.3   226  ILE226      0.0252
    210  CG1       94.1310   -1.2040  -25.5630 C.3   226  ILE226      0.0019
    211  CG2       94.6000   -1.8830  -27.9070 C.3   226  ILE226      0.0019
    212  CD1       95.3610   -0.3090  -25.5910 C.3   226  ILE226      0.0001
@<TRIPOS>BOND
     1   171   172    1
     2   153   154    1
     3   159   161   ar
     4   159   158   ar
     5   161   163   ar
     6   154   157    1
     7   154   155    1
     8   172   173    1
     9   172   175    1
    10   157   158    1
    11   158   160   ar
    12   173   174    2
    13   163   164    1
    14   163   162   ar
    15   155   156    2
    16   155   165   am
    17   176   175    1
    18   119   118    1
    19   119   120    1
    20   160   162   ar
    21   175   177    1
    22   165   166    1
    23   167   168    2
    24   167   166    1
    25   208   207    2
    26   120   121    2
    27   120   122   am
    28   166   169    1
    29   137   136    2
    30   130   131    1
    31   211   209    1
    32   207   206    1
    33   122   123    1
    34   184   182    1
    35   131   134    1
    36   131   132    1
    37   169   170    1
    38   136   138   am
    39   136   135    1
    40   134   135    1
    41   178   179    1
    42   206   209    1
    43   206   205    1
    44   124   123    1
    45   124   125    2
    46    15    14    1
    47    14    13    1
    48   209   210    1
    49     6     5    1
    50   182   179    1
    51   182   183    1
    52     7     5    1
    53   123   126    1
    54     5     2    1
    55   132   133    2
    56   132   139   am
    57   194   196   ar
    58   194   192   ar
    59   196   195   ar
    60   179   180    1
    61   181   180    2
    62   212   210    1
    63   139   140    1
    64   183   185    1
    65   126   127    1
    66   192   191   ar
    67    13    12    1
    68   195   193   ar
    69     2     1    1
    70     2     3    1
    71   141   140    1
    72   141   142    2
    73     3     4    2
    74   140   143    1
    75   191   193   ar
    76   191   190    1
    77   128   127    1
    78   128   129    1
    79    12     9    1
    80    64    66   ar
    81    64    62   ar
    82   143   144    1
    83    74    73    1
    84   145   146    1
    85    61    62   ar
    86    61    59   ar
    87    72    71    1
    88    72    73    1
    89   200   199    2
    90    66    65   ar
    91    62    60   ar
    92   190   187    1
    93    71    68    1
    94    31    29   am
    95   186   187    1
    96    59    58   ar
    97   199   198    1
    98     9     8    1
    99     9    10    1
   100    30    29    2
   101   146   147    1
   102   146   149    1
   103   187   188    1
   104    29    28    1
   105    65    63   ar
   106   150   149    1
   107   150   151    1
   108    60    58   ar
   109    60    63   ar
   110   147   148    2
   111    68    69    1
   112    68    67    1
   113    10    11    2
   114   152   151    1
   115    69    70    2
   116   189   188    2
   117    67    55   am
   118    58    57    1
   119   198   201    1
   120   198   197    1
   121   203   202    1
   122   201   202    1
   123    53    54    1
   124    28    25    1
   125   202   204    1
   126    55    54    1
   127    55    56    2
   128    57    54    1
   129    22    21    1
   130    25    24    1
   131    25    26    1
   132   117   115   ar
   133   117   116   ar
   134    24    18   am
   135    20    21    1
   136    20    17    1
   137   115   113   ar
   138    21    23    1
   139   116   114   ar
   140    79    80    1
   141    79    76    1
   142    18    17    1
   143    18    19    2
   144    80    81    1
   145    26    27    2
   146    95    93    1
   147    17    16    1
   148    77    76    1
   149    77    78    2
   150    75    76    1
   151   113   112   ar
   152   114   112   ar
   153    81    82    1
   154    93    92    1
   155    93    94    1
   156   112   111    1
   157    41    42    1
   158    41    40    1
   159    92    89    1
   160    42    43    2
   161    40    34   am
   162    90    89    1
   163    90    91    2
   164    83    84    1
   165    89    88    1
   166   111   108    1
   167    88    85   am
   168    32    33    1
   169    34    33    1
   170    34    35    2
   171   108   107    1
   172   108   109    1
   173    36    33    1
   174    36    37    1
   175    85    84    1
   176    85    86    2
   177    84    87    1
   178    48    49    1
   179    48    45    1
   180    49    50    1
   181    46    45    1
   182    46    47    2
   183    37    39    1
   184    37    38    1
   185    44    45    1
   186   109   110    2
   187    52    50   am
   188    50    51    2
   189    96    97    1
   190    98    97    1
   191    98    99    2
   192   100    97    1
   193   100   101    1
   194   101   102    1
   195   106   104    1
   196   102   103    1
   197   104   103    2
   198   104   105    1
