@<TRIPOS>MOLECULE
tmp/3e7fB00.pdb
 132 125 0 0 0
SMALL
GASTEIGER

@<TRIPOS>ATOM
      1  N        -25.9660   39.9730  -31.2550 N.3    43  GLY43      -0.1210
      2  CA       -26.5930   40.0080  -32.5510 C.3    43  GLY43       0.1956
      3  C        -25.7910   41.0190  -33.3580 C.2    43  GLY43       0.2612
      4  O        -24.7380   41.4710  -32.9120 O.2    43  GLY43      -0.2717
      5  N        -26.3090   41.4390  -34.5040 N.am   44  GLY44      -0.1942
      6  CA       -25.6320   42.4400  -35.3100 C.3    44  GLY44       0.2014
      7  C        -24.7740   41.8220  -36.3980 C.2    44  GLY44       0.2640
      8  O        -24.4220   40.6240  -36.3280 O.2    44  GLY44      -0.2714
      9  N        -24.4320   42.6540  -37.3930 N.am   45  SER45      -0.1935
     10  CA       -23.6300   42.2500  -38.5430 C.3    45  SER45       0.2055
     11  C        -22.1830   41.8820  -38.2590 C.2    45  SER45       0.2644
     12  O        -21.6690   40.9490  -38.8530 O.2    45  SER45      -0.2714
     13  CB       -23.7410   43.2710  -39.6890 C.3    45  SER45       0.2130
     14  OG       -22.9820   44.4580  -39.4420 O.3    45  SER45      -0.2179
     15  N        -21.5170   42.5940  -37.3530 N.am   46  THR46      -0.1937
     16  CA       -20.1300   42.2600  -37.0200 C.3    46  THR46       0.2013
     17  C        -20.0280   40.8600  -36.4240 C.2    46  THR46       0.2484
     18  O        -19.2440   40.0310  -36.8820 O.2    46  THR46      -0.2729
     19  CB       -19.4470   43.2890  -36.0370 C.3    46  THR46       0.1807
     20  OG1      -20.0860   44.5740  -36.0880 O.3    46  THR46      -0.2208
     21  CG2      -17.9780   43.4330  -36.3690 C.3    46  THR46       0.0379
     22  N        -20.7980   40.5940  -35.3480 N.am   47  PRO47      -0.2726
     23  CA       -20.6920   39.2650  -34.7310 C.3    47  PRO47       0.1402
     24  C        -21.0440   38.1510  -35.7000 C.2    47  PRO47       0.2269
     25  O        -20.5340   37.0330  -35.6050 O.2    47  PRO47      -0.2865
     26  CB       -21.7380   39.3440  -33.6220 C.3    47  PRO47       0.0296
     27  CG       -21.6880   40.7920  -33.2250 C.3    47  PRO47       0.0237
     28  CD       -21.7010   41.4570  -34.5690 C.3    47  PRO47       0.0939
     29  N        -28.5330   39.0470  -25.5580 N.3    74  ASP74      -0.1239
     30  CA       -29.6900   39.9140  -25.5930 C.3    74  ASP74       0.1674
     31  C        -30.6050   39.3780  -26.6870 C.2    74  ASP74       0.2266
     32  O        -30.1820   38.5830  -27.5320 O.2    74  ASP74      -0.2867
     33  CB       -29.3030   41.4070  -25.7820 C.3    74  ASP74       0.1410
     34  CG       -28.9560   41.7820  -27.2340 C.2    74  ASP74       0.3668
     35  OD1      -29.6890   42.6350  -27.7750 O.co2  74  ASP74      -0.2456
     36  OD2      -27.8920   41.3460  -27.7840 O.co2  74  ASP74      -0.2456
     37  N        -34.5830   40.1620  -28.9700 N.3    76  ARG76      -0.1245
     38  CA       -35.7800   40.9210  -29.2890 C.3    76  ARG76       0.1563
     39  C        -36.9870   40.0320  -29.0390 C.2    76  ARG76       0.2260
     40  O        -36.9790   38.8380  -29.3680 O.2    76  ARG76      -0.2867
     41  CB       -35.7670   41.2710  -30.7660 C.3    76  ARG76       0.0307
     42  CG       -34.8410   42.3630  -31.1090 C.3    76  ARG76       0.0489
     43  CD       -33.4270   41.8440  -31.3510 C.3    76  ARG76       0.2205
     44  NE       -32.5670   42.9390  -31.8120 N.pl3  76  ARG76      -0.0865
     45  CZ       -32.4090   43.2820  -33.0860 C.cat  76  ARG76       0.5346
     46  NH1      -33.0000   42.5880  -34.0570 N.pl3  76  ARG76       0.1354
     47  NH2      -31.5980   44.2750  -33.4020 N.pl3  76  ARG76       0.1354
     48  N        -21.3730   43.8470  -29.1630 N.3   158  GLY158     -0.1210
     49  CA       -21.2380   44.8380  -30.2080 C.3   158  GLY158      0.1956
     50  C        -21.5360   46.1800  -29.5670 C.2   158  GLY158      0.2612
     51  O        -21.8150   46.2670  -28.3710 O.2   158  GLY158     -0.2717
     52  N        -21.4870   47.2440  -30.3510 N.am  159  LEU159     -0.1965
     53  CA       -21.7360   48.5780  -29.7990 C.3   159  LEU159      0.1728
     54  C        -22.6290   49.3420  -30.7420 C.2   159  LEU159      0.2616
     55  O        -22.5290   49.1670  -31.9500 O.2   159  LEU159     -0.2715
     56  CB       -20.4170   49.3450  -29.6170 C.3   159  LEU159      0.0311
     57  CG       -19.3740   48.7000  -28.6740 C.3   159  LEU159      0.0022
     58  CD1      -17.9870   49.3830  -28.8060 C.3   159  LEU159      0.0001
     59  CD2      -19.8600   48.7610  -27.2110 C.3   159  LEU159      0.0001
     60  N        -23.4990   50.1790  -30.1910 N.am  160  GLY160     -0.1955
     61  CA       -24.3820   51.0150  -30.9760 C.3   160  GLY160      0.1869
     62  C        -23.7880   52.4150  -31.0430 C.2   160  GLY160      0.2309
     63  O        -22.8800   52.7450  -30.2940 O.2   160  GLY160     -0.2863
     64  N        -24.8530   52.2480  -26.6510 N.3   164  HIS164     -0.1241
     65  CA       -25.2820   51.0620  -25.9050 C.3   164  HIS164      0.1621
     66  C        -24.5460   49.8040  -26.3160 C.2   164  HIS164      0.2264
     67  O        -23.7820   49.8070  -27.2850 O.2   164  HIS164     -0.2867
     68  CB       -26.7880   50.8480  -26.0360 C.3   164  HIS164      0.0745
     69  CG       -27.1750   50.0190  -27.2200 C.ar  164  HIS164      0.0817
     70  ND1      -27.3050   50.5470  -28.4880 N.ar  164  HIS164     -0.2268
     71  CD2      -27.3940   48.6850  -27.3400 C.ar  164  HIS164      0.1154
     72  CE1      -27.6200   49.5800  -29.3340 C.ar  164  HIS164      0.1986
     73  NE2      -27.7000   48.4450  -28.6560 N.ar  164  HIS164     -0.2212
     74  N        -25.3910   45.2250  -25.9220 N.3   166  ALA166     -0.1231
     75  CA       -26.4650   44.2400  -25.6340 C.3   166  ALA166      0.1694
     76  C        -27.7910   44.9750  -25.8780 C.2   166  ALA166      0.2592
     77  O        -27.8760   45.7090  -26.8340 O.2   166  ALA166     -0.2718
     78  CB       -26.3400   43.7060  -24.1750 C.3   166  ALA166      0.0304
     79  N        -28.7970   44.8350  -25.0100 N.am  167  SER167     -0.1952
     80  CA       -29.9860   45.6910  -25.1160 C.3   167  SER167      0.1924
     81  C        -30.0320   46.6340  -23.8750 C.2   167  SER167      0.2314
     82  O        -31.0590   46.7750  -23.1840 O.2   167  SER167     -0.2863
     83  CB       -31.2680   44.9230  -25.3970 C.3   167  SER167      0.2116
     84  OG       -31.3170   44.5150  -26.7720 O.3   167  SER167     -0.2180
     85  N        -29.7070   50.2130  -23.0420 N.3   169  PHE169     -0.1241
     86  CA       -29.8420   51.5370  -23.6090 C.3   169  PHE169      0.1605
     87  C        -29.5200   52.7380  -22.7320 C.2   169  PHE169      0.2264
     88  O        -29.5380   52.6610  -21.4960 O.2   169  PHE169     -0.2867
     89  CB       -31.2060   51.6350  -24.3190 C.3   169  PHE169      0.0534
     90  CG       -31.3370   50.6560  -25.4740 C.ar  169  PHE169     -0.0203
     91  CD1      -31.9910   49.4550  -25.3160 C.ar  169  PHE169     -0.0042
     92  CD2      -30.6650   50.8720  -26.6520 C.ar  169  PHE169     -0.0042
     93  CE1      -32.0520   48.5350  -26.3330 C.ar  169  PHE169     -0.0003
     94  CE2      -30.7370   49.9420  -27.6980 C.ar  169  PHE169     -0.0003
     95  CZ       -31.4170   48.7780  -27.5210 C.ar  169  PHE169     -0.0000
     96  N        -32.8050   53.4480  -32.4410 N.3   193  MET193     -0.1230
     97  CA       -32.6840   52.0070  -32.6390 C.3   193  MET193      0.1702
     98  C        -34.0040   51.3430  -33.0050 C.2   193  MET193      0.2592
     99  O        -35.0630   51.8120  -32.6260 O.2   193  MET193     -0.2718
    100  CB       -32.0080   51.3360  -31.4450 C.3   193  MET193      0.0401
    101  CG       -30.5890   51.8200  -31.1790 C.3   193  MET193      0.0596
    102  SD       -29.6410   52.3740  -32.6310 S.3   193  MET193     -0.1393
    103  CE       -28.2830   51.1310  -32.6360 C.3   193  MET193      0.0692
    104  N        -33.9220   50.2660  -33.7770 N.am  194  LYS194     -0.1980
    105  CA       -35.0880   49.5020  -34.2130 C.3   194  LYS194      0.1596
    106  C        -34.5650   48.0630  -34.2850 C.2   194  LYS194      0.2287
    107  O        -33.3540   47.8440  -34.3810 O.2   194  LYS194     -0.2864
    108  CB       -35.5140   49.9380  -35.6300 C.3   194  LYS194      0.0298
    109  CG       -36.4050   51.1760  -35.7150 C.3   194  LYS194      0.0038
    110  CD       -37.5890   50.9110  -36.6320 C.3   194  LYS194      0.0206
    111  CE       -38.6220   52.0310  -36.5530 C.3   194  LYS194      0.1093
    112  NZ       -39.9790   51.5480  -36.1150 N.3   194  LYS194     -0.1314
    113  N        -36.9100   44.1720  -25.3220 N.3   199  ARG199     -0.1245
    114  CA       -35.7630   43.2800  -25.3620 C.3   199  ARG199      0.1563
    115  C        -35.5590   42.6480  -23.9930 C.2   199  ARG199      0.2260
    116  O        -35.9700   43.1930  -22.9610 O.2   199  ARG199     -0.2867
    117  CB       -34.4700   44.0450  -25.7000 C.3   199  ARG199      0.0307
    118  CG       -34.5790   45.1480  -26.7540 C.3   199  ARG199      0.0489
    119  CD       -35.0820   44.5710  -28.0770 C.3   199  ARG199      0.2205
    120  NE       -35.0950   45.5670  -29.1550 N.pl3 199  ARG199     -0.0865
    121  CZ       -34.0110   46.0430  -29.7610 C.cat 199  ARG199      0.5346
    122  NH1      -32.8120   45.6290  -29.4200 N.pl3 199  ARG199      0.1354
    123  NH2      -34.1280   46.8980  -30.7540 N.pl3 199  ARG199      0.1354
    124  N        -19.1700   55.0180  -34.5950 N.3   222  LYS222     -0.1245
    125  CA       -19.0410   54.4170  -33.2690 C.3   222  LYS222      0.1561
    126  C        -17.7540   54.8050  -32.5540 C.2   222  LYS222      0.2260
    127  O        -17.4840   54.3370  -31.4410 O.2   222  LYS222     -0.2867
    128  CB       -19.1560   52.8910  -33.3160 C.3   222  LYS222      0.0271
    129  CG       -20.5450   52.3900  -33.6680 C.3   222  LYS222      0.0035
    130  CD       -20.4990   50.9210  -34.0980 C.3   222  LYS222      0.0206
    131  CE       -21.8660   50.4770  -34.6210 C.3   222  LYS222      0.1093
    132  NZ       -21.9250   48.9960  -34.6650 N.3   222  LYS222     -0.1314
@<TRIPOS>BOND
     1    13    14    1
     2    13    10    1
     3    12    11    2
     4    10    11    1
     5    10     9    1
     6    11    15   am
     7     9     7   am
     8    15    16    1
     9    16    17    1
    10    16    19    1
    11    18    17    2
    12   110   111    1
    13   110   109    1
    14   111   112    1
    15    17    22   am
    16     7     8    2
    17     7     6    1
    18    21    19    1
    19    20    19    1
    20   109   108    1
    21    24    25    2
    22    24    23    1
    23   108   105    1
    24    22    23    1
    25    22    28    1
    26     6     5    1
    27    23    26    1
    28   132   131    1
    29   131   130    1
    30   124   125    1
    31    28    27    1
    32     5     3   am
    33   107   106    2
    34   106   105    1
    35   105   104    1
    36   130   129    1
    37    46    45    1
    38   104    98   am
    39   129   128    1
    40    26    27    1
    41    47    45    1
    42     3     4    2
    43     3     2    1
    44   128   125    1
    45   125   126    1
    46    45    44    2
    47    98    97    1
    48    98    99    2
    49    97    96    1
    50    97   100    1
    51   103   102    1
    52   102   101    1
    53   126   127    2
    54     2     1    1
    55    55    54    2
    56    44    43    1
    57   100   101    1
    58    43    42    1
    59    42    41    1
    60    62    61    1
    61    62    63    2
    62    61    60    1
    63    41    38    1
    64   123   121    1
    65    54    60   am
    66    54    53    1
    67    52    53    1
    68    52    50   am
    69    49    50    1
    70    49    48    1
    71    53    56    1
    72   121   122    1
    73   121   120    2
    74    56    57    1
    75    50    51    2
    76    40    39    2
    77    72    73   ar
    78    72    70   ar
    79    38    39    1
    80    38    37    1
    81   120   119    1
    82    58    57    1
    83    57    59    1
    84    73    71   ar
    85    70    69   ar
    86   119   118    1
    87    36    34   ar
    88    35    34   ar
    89    94    95   ar
    90    94    92   ar
    91    32    31    2
    92    95    93   ar
    93    71    69   ar
    94    67    66    2
    95    34    33    1
    96    69    68    1
    97    77    76    2
    98    84    83    1
    99   118   117    1
   100    31    30    1
   101    92    90   ar
   102    64    65    1
   103    93    91   ar
   104    66    65    1
   105    68    65    1
   106    74    75    1
   107    76    75    1
   108    76    79   am
   109    33    30    1
   110   117   114    1
   111    75    78    1
   112    30    29    1
   113    90    91   ar
   114    90    89    1
   115    83    80    1
   116   114   113    1
   117   114   115    1
   118    80    79    1
   119    80    81    1
   120    89    86    1
   121   115   116    2
   122    81    82    2
   123    86    85    1
   124    86    87    1
   125    87    88    2
