@<TRIPOS>MOLECULE
tmp/3e7gC00.pdb
 217 211 0 0 0
SMALL
GASTEIGER

@<TRIPOS>ATOM
      1  N         -0.1450   20.5740   30.3800 N.3   112  TRP112     -0.1241
      2  CA         0.5310   21.4240   31.3700 C.3   112  TRP112      0.1605
      3  C          1.9210   20.8510   31.5980 C.2   112  TRP112      0.2264
      4  O          2.9360   21.5550   31.6090 O.2   112  TRP112     -0.2867
      5  CB        -0.2610   21.4130   32.6850 C.3   112  TRP112      0.0550
      6  CG         0.2940   22.2840   33.7660 C.ar  112  TRP112      0.0003
      7  CD1        1.4080   23.0670   33.7120 C.ar  112  TRP112      0.0946
      8  CD2       -0.2120   22.3960   35.0960 C.ar  112  TRP112      0.0152
      9  NE1        1.6350   23.6560   34.9370 N.ar  112  TRP112     -0.2442
     10  CE2        0.6530   23.2550   35.8030 C.ar  112  TRP112      0.0810
     11  CE3       -1.3170   21.8460   35.7610 C.ar  112  TRP112      0.0012
     12  CZ2        0.4520   23.5750   37.1410 C.ar  112  TRP112      0.0191
     13  CZ3       -1.5230   22.1650   37.0920 C.ar  112  TRP112      0.0001
     14  CH2       -0.6380   23.0260   37.7690 C.ar  112  TRP112      0.0015
     15  N          4.3090   21.7670   28.9720 N.3   115  ALA115     -0.1245
     16  CA         4.5790   23.2010   28.7240 C.3   115  ALA115      0.1562
     17  C          6.0280   23.5570   29.0560 C.2   115  ALA115      0.2260
     18  O          6.3760   23.7120   30.2050 O.2   115  ALA115     -0.2867
     19  CB         3.6080   24.0690   29.5460 C.3   115  ALA115      0.0290
     20  N          7.6950   26.3050   28.8230 N.3   117  ARG117     -0.1231
     21  CA         7.9410   27.6040   29.4480 C.3   117  ARG117      0.1694
     22  C          7.3690   27.8110   30.8450 C.2   117  ARG117      0.2592
     23  O          7.3970   28.9320   31.3570 O.2   117  ARG117     -0.2718
     24  CB         7.4410   28.6880   28.5030 C.3   117  ARG117      0.0321
     25  CG         8.3110   28.7460   27.2700 C.3   117  ARG117      0.0489
     26  CD         7.8470   29.7500   26.2430 C.3   117  ARG117      0.2205
     27  NE         8.8820   29.9700   25.2370 N.pl3 117  ARG117     -0.0865
     28  CZ         8.7460   30.7920   24.2020 C.cat 117  ARG117      0.5346
     29  NH1        7.6080   31.4590   24.0370 N.pl3 117  ARG117      0.1354
     30  NH2        9.7600   30.9920   23.3600 N.pl3 117  ARG117      0.1354
     31  N          6.8770   26.7380   31.4610 N.am  118  CYS118     -0.1956
     32  CA         6.2680   26.8070   32.7820 C.3   118  CYS118      0.1843
     33  C          7.1090   26.2010   33.8870 C.2   118  CYS118      0.2625
     34  O          7.3110   24.9760   33.9390 O.2   118  CYS118     -0.2714
     35  CB         4.9110   26.1060   32.7710 C.3   118  CYS118      0.0997
     36  SG         4.1140   25.9920   34.4200 S.3   118  CYS118     -0.0797
     37  N          7.5600   27.0540   34.7970 N.am  119  ILE119     -0.1963
     38  CA         8.3760   26.5990   35.9010 C.3   119  ILE119      0.1727
     39  C          7.5680   25.9140   37.0120 C.2   119  ILE119      0.2616
     40  O          8.1280   25.1950   37.8320 O.2   119  ILE119     -0.2715
     41  CB         9.1800   27.7780   36.5090 C.3   119  ILE119      0.0290
     42  CG1       10.2890   27.2180   37.4140 C.3   119  ILE119      0.0022
     43  CG2        8.2500   28.7050   37.2940 C.3   119  ILE119      0.0023
     44  CD1       11.3040   28.2340   37.8870 C.3   119  ILE119      0.0001
     45  N          6.2530   26.1110   37.0280 N.am  120  GLY120     -0.1955
     46  CA         5.4590   25.5130   38.0850 C.3   120  GLY120      0.1869
     47  C          4.8850   24.1380   37.8120 C.2   120  GLY120      0.2309
     48  O          3.9080   23.7500   38.4380 O.2   120  GLY120     -0.2863
     49  N          3.2800   20.9400   40.0000 N.3   123  GLN123     -0.1245
     50  CA         1.8860   20.9140   40.4190 C.3   123  GLN123      0.1566
     51  C          0.9380   20.3080   39.3760 C.2   123  GLN123      0.2260
     52  O         -0.2630   20.2400   39.6170 O.2   123  GLN123     -0.2867
     53  CB         1.3970   22.3410   40.6960 C.3   123  GLN123      0.0367
     54  CG         1.8310   22.9580   42.0130 C.3   123  GLN123      0.0905
     55  CD         1.1740   22.2920   43.2130 C.2   123  GLN123      0.2608
     56  OE1       -0.0290   21.9890   43.1990 O.2   123  GLN123     -0.2717
     57  NE2        1.9540   22.0730   44.2590 N.am  123  GLN123     -0.0878
     58  N         -5.0190   19.7750   39.1540 N.3   127  LEU127     -0.1245
     59  CA        -5.7020   20.6910   38.2570 C.3   127  LEU127      0.1561
     60  C         -7.1990   20.4350   38.2690 C.2   127  LEU127      0.2260
     61  O         -7.6400   19.3250   38.0420 O.2   127  LEU127     -0.2867
     62  CB        -5.1790   20.5480   36.8220 C.3   127  LEU127      0.0270
     63  CG        -5.7940   21.4990   35.7790 C.3   127  LEU127      0.0019
     64  CD1       -5.4460   22.9540   36.1400 C.3   127  LEU127      0.0001
     65  CD2       -5.2720   21.1800   34.3960 C.3   127  LEU127      0.0001
     66  N         -5.3880   25.9690   41.2560 N.3   160  SER160     -0.1217
     67  CA        -5.2310   25.9170   39.8110 C.3   160  SER160      0.1889
     68  C         -6.4700   25.3360   39.1280 C.2   160  SER160      0.2288
     69  O         -7.0070   24.3210   39.5570 O.2   160  SER160     -0.2866
     70  CB        -4.0250   25.0600   39.4670 C.3   160  SER160      0.2089
     71  OG        -2.8460   25.6950   39.8960 O.3   160  SER160     -0.2183
     72  N         -8.8210   25.1820   35.0780 N.3   162  ILE162     -0.1245
     73  CA        -8.8980   25.4610   33.6550 C.3   162  ILE162      0.1561
     74  C        -10.3390   25.2280   33.2340 C.2   162  ILE162      0.2260
     75  O        -10.9770   24.2810   33.6850 O.2   162  ILE162     -0.2867
     76  CB        -7.9610   24.5410   32.8080 C.3   162  ILE162      0.0252
     77  CG1       -8.1100   24.9140   31.3270 C.3   162  ILE162      0.0019
     78  CG2       -8.3370   23.0350   32.9830 C.3   162  ILE162      0.0019
     79  CD1       -7.1810   24.1480   30.3910 C.3   162  ILE162      0.0001
     80  N         -4.0130   32.8780   32.1700 N.3   270  VAL270     -0.1245
     81  CA        -3.7720   33.0280   30.7350 C.3   270  VAL270      0.1561
     82  C         -5.0790   32.6450   30.0330 C.2   270  VAL270      0.2260
     83  O         -5.5970   31.5370   30.2130 O.2   270  VAL270     -0.2867
     84  CB        -2.6160   32.1210   30.2980 C.3   270  VAL270      0.0252
     85  CG1       -2.4180   32.1940   28.7840 C.3   270  VAL270      0.0019
     86  CG2       -1.3520   32.5350   31.0330 C.3   270  VAL270      0.0019
     87  N         -4.7730   31.1520   24.8980 N.3   273  MET273     -0.1245
     88  CA        -4.0400   30.0660   24.2560 C.3   273  MET273      0.1570
     89  C         -4.9600   28.9820   23.7170 C.2   273  MET273      0.2261
     90  O         -6.1610   28.9940   23.9440 O.2   273  MET273     -0.2867
     91  CB        -3.0070   29.4870   25.2180 C.3   273  MET273      0.0387
     92  CG        -1.8730   30.4780   25.4580 C.3   273  MET273      0.0595
     93  SD        -0.5490   29.9110   26.5020 S.3   273  MET273     -0.1393
     94  CE         0.5630   29.1320   25.3180 C.3   273  MET273      0.0692
     95  N         -6.8020   29.3380   31.7730 N.3   287  PHE287     -0.1227
     96  CA        -6.3430   28.5730   32.9240 C.3   287  PHE287      0.1736
     97  C         -5.5950   29.4820   33.8700 C.2   287  PHE287      0.2595
     98  O         -5.1660   30.5660   33.4690 O.2   287  PHE287     -0.2718
     99  CB        -5.4500   27.3980   32.5010 C.3   287  PHE287      0.0547
    100  CG        -4.2610   27.7950   31.6760 C.ar  287  PHE287     -0.0202
    101  CD1       -3.1210   28.3210   32.2810 C.ar  287  PHE287     -0.0042
    102  CD2       -4.2870   27.6620   30.2840 C.ar  287  PHE287     -0.0042
    103  CE1       -2.0150   28.7160   31.5140 C.ar  287  PHE287     -0.0003
    104  CE2       -3.1820   28.0540   29.5060 C.ar  287  PHE287     -0.0003
    105  CZ        -2.0490   28.5800   30.1250 C.ar  287  PHE287     -0.0000
    106  N         -5.4570   29.0550   35.1260 N.am  288  ASN288     -0.1960
    107  CA        -4.7250   29.8520   36.0980 C.3   288  ASN288      0.1819
    108  C         -3.8620   28.9840   37.0090 C.2   288  ASN288      0.2622
    109  O         -4.0320   27.7500   37.0990 O.2   288  ASN288     -0.2715
    110  CB        -5.6960   30.6610   36.9700 C.3   288  ASN288      0.1195
    111  CG        -6.3540   29.8060   38.0730 C.2   288  ASN288      0.2630
    112  OD1       -7.3730   29.1430   37.8510 O.2   288  ASN288     -0.2716
    113  ND2       -5.7490   29.8080   39.2510 N.am  288  ASN288     -0.0877
    114  N         -2.9210   29.6500   37.6630 N.am  289  GLY289     -0.1940
    115  CA        -2.0680   29.0200   38.6500 C.3   289  GLY289      0.2014
    116  C         -1.9870   30.1160   39.7050 C.2   289  GLY289      0.2639
    117  O         -2.9570   30.8430   39.9070 O.2   289  GLY289     -0.2714
    118  N         -0.8530   30.2460   40.3820 N.am  290  TRP290     -0.1959
    119  CA        -0.6710   31.3330   41.3390 C.3   290  TRP290      0.1771
    120  C          0.6350   31.9990   40.9240 C.2   290  TRP290      0.2620
    121  O          1.4370   31.4120   40.2030 O.2   290  TRP290     -0.2715
    122  CB        -0.6360   30.8340   42.8060 C.3   290  TRP290      0.0590
    123  CG         0.3200   29.7240   43.1110 C.ar  290  TRP290      0.0006
    124  CD1        1.6850   29.8060   43.1930 C.ar  290  TRP290      0.0946
    125  CD2       -0.0180   28.3580   43.4030 C.ar  290  TRP290      0.0152
    126  NE1        2.2100   28.5770   43.5200 N.ar  290  TRP290     -0.2442
    127  CE2        1.1900   27.6730   43.6530 C.ar  290  TRP290      0.0810
    128  CE3       -1.2220   27.6540   43.4750 C.ar  290  TRP290      0.0012
    129  CZ2        1.2320   26.3110   43.9720 C.ar  290  TRP290      0.0191
    130  CZ3       -1.1850   26.2890   43.7960 C.ar  290  TRP290      0.0001
    131  CH2        0.0380   25.6370   44.0400 C.ar  290  TRP290      0.0015
    132  N          0.8350   33.2260   41.3710 N.am  291  TYR291     -0.1960
    133  CA         2.0090   34.0140   41.0200 C.3   291  TYR291      0.1771
    134  C          3.3880   33.6260   41.5300 C.2   291  TYR291      0.2619
    135  O          3.5420   33.0810   42.6210 O.2   291  TYR291     -0.2715
    136  CB         1.7730   35.4630   41.4510 C.3   291  TYR291      0.0574
    137  CG         1.2210   36.3340   40.3640 C.ar  291  TYR291     -0.0198
    138  CD1        1.9890   36.6310   39.2380 C.ar  291  TYR291     -0.0009
    139  CD2       -0.0610   36.8740   40.4580 C.ar  291  TYR291     -0.0009
    140  CE1        1.5130   37.4380   38.2460 C.ar  291  TYR291      0.0417
    141  CE2       -0.5570   37.7000   39.4520 C.ar  291  TYR291      0.0417
    142  CZ         0.2400   37.9810   38.3540 C.ar  291  TYR291      0.1957
    143  OH        -0.1980   38.8490   37.3880 O.3   291  TYR291     -0.2866
    144  N          4.3990   33.9120   40.7220 N.am  292  MET292     -0.1977
    145  CA         5.7710   33.7340   41.1690 C.3   292  MET292      0.1605
    146  C          6.1190   35.2250   41.3820 C.2   292  MET292      0.2287
    147  O          5.8900   36.0510   40.4950 O.2   292  MET292     -0.2864
    148  CB         6.6620   33.1050   40.0900 C.3   292  MET292      0.0413
    149  CG         8.1200   33.0360   40.5230 C.3   292  MET292      0.0598
    150  SD         9.2190   31.9910   39.5600 S.3   292  MET292     -0.1393
    151  CE         9.6480   33.0480   38.2460 C.3   292  MET292      0.0692
    152  N          7.3600   37.9810   38.7840 N.3   295  GLU295     -0.1245
    153  CA         6.5280   38.3970   37.6550 C.3   295  GLU295      0.1567
    154  C          5.9910   39.8250   37.8780 C.2   295  GLU295      0.2260
    155  O          5.9140   40.6340   36.9360 O.2   295  GLU295     -0.2867
    156  CB         5.3470   37.4460   37.4800 C.3   295  GLU295      0.0388
    157  CG         5.7050   35.9840   37.2120 C.3   295  GLU295      0.1160
    158  CD         4.4720   35.2000   36.7940 C.2   295  GLU295      0.3649
    159  OE1        3.9880   35.4070   35.6500 O.co2 295  GLU295     -0.2457
    160  OE2        3.9630   34.4040   37.6170 O.co2 295  GLU295     -0.2457
    161  N          9.0610   42.2450   36.4260 N.3   299  ARG299     -0.1245
    162  CA         8.4960   42.6120   35.1300 C.3   299  ARG299      0.1563
    163  C          7.4320   43.7180   35.1360 C.2   299  ARG299      0.2260
    164  O          7.5750   44.7180   34.4300 O.2   299  ARG299     -0.2867
    165  CB         7.9280   41.3640   34.4310 C.3   299  ARG299      0.0307
    166  CG         8.8880   40.1520   34.3900 C.3   299  ARG299      0.0489
    167  CD        10.2180   40.4900   33.7040 C.3   299  ARG299      0.2205
    168  NE         9.9650   41.0950   32.4020 N.pl3 299  ARG299     -0.0865
    169  CZ         9.6770   40.4190   31.2980 C.cat 299  ARG299      0.5346
    170  NH1        9.6220   39.0850   31.3050 N.pl3 299  ARG299      0.1354
    171  NH2        9.3760   41.0880   30.1940 N.pl3 299  ARG299      0.1354
    172  N          4.6230   32.5630   45.2620 N.3   352  MET352     -0.1245
    173  CA         5.8330   31.7790   45.3460 C.3   352  MET352      0.1570
    174  C          7.0760   32.5760   44.9590 C.2   352  MET352      0.2261
    175  O          7.0830   33.2550   43.9200 O.2   352  MET352     -0.2867
    176  CB         5.6380   30.5860   44.4270 C.3   352  MET352      0.0387
    177  CG         6.8110   29.7270   44.1820 C.3   352  MET352      0.0595
    178  SD         6.1630   28.3290   43.2600 S.3   352  MET352     -0.1393
    179  CE         6.5070   27.0400   44.4090 C.3   352  MET352      0.0692
    180  N         12.9860   30.9110   29.4310 N.3   381  TRP381     -0.1241
    181  CA        11.8030   31.2780   30.2010 C.3   381  TRP381      0.1605
    182  C         11.8240   30.7340   31.6270 C.2   381  TRP381      0.2264
    183  O         11.1380   31.2640   32.4910 O.2   381  TRP381     -0.2867
    184  CB        10.5340   30.7870   29.5000 C.3   381  TRP381      0.0550
    185  CG        10.1160   31.6660   28.3780 C.ar  381  TRP381      0.0003
    186  CD1       10.8350   31.9700   27.2500 C.ar  381  TRP381      0.0946
    187  CD2        8.8770   32.3740   28.2690 C.ar  381  TRP381      0.0152
    188  NE1       10.1190   32.8230   26.4520 N.ar  381  TRP381     -0.2442
    189  CE2        8.9130   33.0890   27.0510 C.ar  381  TRP381      0.0810
    190  CE3        7.7390   32.4690   29.0810 C.ar  381  TRP381      0.0012
    191  CZ2        7.8530   33.8970   26.6230 C.ar  381  TRP381      0.0191
    192  CZ3        6.6740   33.2730   28.6570 C.ar  381  TRP381      0.0001
    193  CH2        6.7430   33.9770   27.4380 C.ar  381  TRP381      0.0015
    194  N         -0.2310   23.3810   24.6900 N.3   407  TYR407     -0.1241
    195  CA        -0.9020   24.6800   24.7110 C.3   407  TYR407      0.1605
    196  C         -0.1400   25.5920   23.7370 C.2   407  TYR407      0.2264
    197  O          1.0210   25.9150   23.9720 O.2   407  TYR407     -0.2867
    198  CB        -0.8600   25.3120   26.1070 C.3   407  TYR407      0.0534
    199  CG        -1.7200   24.6200   27.1220 C.ar  407  TYR407     -0.0201
    200  CD1       -3.1120   24.6100   27.0020 C.ar  407  TYR407     -0.0009
    201  CD2       -1.1420   23.9280   28.1900 C.ar  407  TYR407     -0.0009
    202  CE1       -3.9060   23.9150   27.9220 C.ar  407  TYR407      0.0417
    203  CE2       -1.9270   23.2350   29.1160 C.ar  407  TYR407      0.0417
    204  CZ        -3.2960   23.2330   28.9680 C.ar  407  TYR407      0.1957
    205  OH        -4.0460   22.5190   29.8560 O.3   407  TYR407     -0.2866
    206  N          0.1050   29.1990   21.1790 N.3   409  TYR409     -0.1241
    207  CA        -0.2770   30.5930   21.1060 C.3   409  TYR409      0.1605
    208  C         -1.2620   30.6320   19.9260 C.2   409  TYR409      0.2264
    209  O         -1.3450   29.6780   19.1510 O.2   409  TYR409     -0.2867
    210  CB         0.9190   31.4630   20.7520 C.3   409  TYR409      0.0534
    211  CG         1.9590   31.5750   21.8300 C.ar  409  TYR409     -0.0201
    212  CD1        1.6300   32.0760   23.0920 C.ar  409  TYR409     -0.0009
    213  CD2        3.2870   31.2320   21.5790 C.ar  409  TYR409     -0.0009
    214  CE1        2.5940   32.2400   24.0770 C.ar  409  TYR409      0.0417
    215  CE2        4.2660   31.3870   22.5630 C.ar  409  TYR409      0.0417
    216  CZ         3.9120   31.8940   23.8110 C.ar  409  TYR409      0.1957
    217  OH         4.8680   32.0590   24.7830 O.3   409  TYR409     -0.2866
@<TRIPOS>BOND
     1   209   208    2
     2   208   207    1
     3   210   207    1
     4   210   211    1
     5   207   206    1
     6   213   211   ar
     7   213   215   ar
     8   211   212   ar
     9   215   216   ar
    10   212   214   ar
    11    30    28    1
    12    89    90    2
    13    89    88    1
    14   196   197    2
    15   196   195    1
    16   216   214   ar
    17   216   217    1
    18    29    28    1
    19    28    27    2
    20    88    87    1
    21    88    91    1
    22   194   195    1
    23   195   198    1
    24    91    92    1
    25    27    26    1
    26    94    93    1
    27    92    93    1
    28   198   199    1
    29    26    25    1
    30   188   189   ar
    31   188   186   ar
    32   191   189   ar
    33   191   193   ar
    34   200   199   ar
    35   200   202   ar
    36   189   187   ar
    37   199   201   ar
    38   186   185   ar
    39    25    24    1
    40   193   192   ar
    41   202   204   ar
    42   201   203   ar
    43   187   185   ar
    44   187   190   ar
    45   185   184    1
    46    24    21    1
    47   192   190   ar
    48    16    15    1
    49    16    17    1
    50    16    19    1
    51    85    84    1
    52    20    21    1
    53   204   203   ar
    54   204   205    1
    55    17    18    2
    56   180   181    1
    57    21    22    1
    58   184   181    1
    59   104   105   ar
    60   104   102   ar
    61    82    83    2
    62    82    81    1
    63   105   103   ar
    64   171   169    1
    65   181   182    1
    66   102   100   ar
    67    84    81    1
    68    84    86    1
    69     1     2    1
    70    79    77    1
    71    81    80    1
    72    22    23    2
    73    22    31   am
    74   169   170    1
    75   169   168    2
    76    77    76    1
    77     2     3    1
    78     2     5    1
    79    31    32    1
    80   103   101   ar
    81     3     4    2
    82   182   183    2
    83   100   101   ar
    84   100    99    1
    85    95    96    1
    86   168   167    1
    87    99    96    1
    88     5     6    1
    89    35    32    1
    90    35    36    1
    91    32    33    1
    92    76    78    1
    93    76    73    1
    94    96    97    1
    95    74    73    1
    96    74    75    2
    97    98    97    2
    98    73    72    1
    99   167   166    1
   100     7     6   ar
   101     7     9   ar
   102     6     8   ar
   103    97   106   am
   104    33    34    2
   105    33    37   am
   106   166   165    1
   107    65    63    1
   108   164   163    2
   109   165   162    1
   110    37    38    1
   111     9    10   ar
   112     8    11   ar
   113     8    10   ar
   114   106   107    1
   115   162   163    1
   116   162   161    1
   117   159   158   ar
   118    11    13   ar
   119    63    64    1
   120    63    62    1
   121    10    12   ar
   122    38    41    1
   123    38    39    1
   124   107   110    1
   125   107   108    1
   126    41    43    1
   127    41    42    1
   128   158   157    1
   129   158   160   ar
   130    62    59    1
   131   155   154    2
   132   110   111    1
   133   108   109    2
   134   108   114   am
   135    39    45   am
   136    39    40    2
   137    45    46    1
   138    13    14   ar
   139    12    14   ar
   140   157   156    1
   141   143   142    1
   142    42    44    1
   143   156   153    1
   144   153   154    1
   145   153   152    1
   146   114   115    1
   147    47    46    1
   148    47    48    2
   149   112   111    2
   150    61    60    2
   151   111   113   am
   152   140   142   ar
   153   140   138   ar
   154   151   150    1
   155    59    60    1
   156    59    58    1
   157   142   141   ar
   158   115   116    1
   159    68    69    2
   160    68    67    1
   161   138   137   ar
   162    51    52    2
   163    51    50    1
   164   141   139   ar
   165    70    67    1
   166    70    71    1
   167   150   149    1
   168   116   117    2
   169   116   118   am
   170    67    66    1
   171    49    50    1
   172   148   149    1
   173   148   145    1
   174   121   120    2
   175   137   139   ar
   176   137   136    1
   177   118   119    1
   178    50    53    1
   179   147   146    2
   180    53    54    1
   181   144   145    1
   182   144   134   am
   183   120   119    1
   184   120   132   am
   185   133   132    1
   186   133   136    1
   187   133   134    1
   188   145   146    1
   189   119   122    1
   190   134   135    2
   191    54    55    1
   192   122   123    1
   193   123   124   ar
   194   123   125   ar
   195   124   126   ar
   196    56    55    2
   197    55    57   am
   198   178   177    1
   199   178   179    1
   200   125   128   ar
   201   125   127   ar
   202   128   130   ar
   203   126   127   ar
   204   127   129   ar
   205   130   131   ar
   206   175   174    2
   207   129   131   ar
   208   177   176    1
   209   176   173    1
   210   174   173    1
   211   172   173    1
