@<TRIPOS>MOLECULE
tmp/3e7gC02.pdb
 150 150 0 0 0
SMALL
GASTEIGER

@<TRIPOS>ATOM
      1  N         -5.2070   37.8990   29.3170 N.3   181  GLN181     -0.1245
      2  CA        -5.3850   37.3730   30.6690 C.3   181  GLN181      0.1566
      3  C         -6.8360   37.6220   31.1210 C.2   181  GLN181      0.2260
      4  O         -7.5260   38.4680   30.5570 O.2   181  GLN181     -0.2867
      5  CB        -4.4260   38.0420   31.6610 C.3   181  GLN181      0.0367
      6  CG        -2.9320   37.8910   31.3560 C.3   181  GLN181      0.0905
      7  CD        -2.3730   38.9300   30.3710 C.2   181  GLN181      0.2608
      8  OE1       -2.9080   40.0350   30.2260 O.2   181  GLN181     -0.2717
      9  NE2       -1.2750   38.5820   29.7110 N.am  181  GLN181     -0.0878
     10  N         -6.5950   41.9950   34.1040 N.3   184  ARG184     -0.1245
     11  CA        -5.5130   42.8540   33.6310 C.3   184  ARG184      0.1563
     12  C         -5.9310   44.3210   33.8000 C.2   184  ARG184      0.2260
     13  O         -7.1170   44.6380   33.7610 O.2   184  ARG184     -0.2867
     14  CB        -5.2340   42.5560   32.1510 C.3   184  ARG184      0.0307
     15  CG        -4.0670   43.3090   31.5350 C.3   184  ARG184      0.0489
     16  CD        -2.7220   42.7790   32.0300 C.3   184  ARG184      0.2205
     17  NE        -1.6260   43.5730   31.4760 N.pl3 184  ARG184     -0.0865
     18  CZ        -1.0790   43.3840   30.2780 C.cat 184  ARG184      0.5346
     19  NH1       -1.4990   42.4000   29.4870 N.pl3 184  ARG184      0.1354
     20  NH2       -0.1440   44.2250   29.8420 N.pl3 184  ARG184      0.1354
     21  N         -1.7140   44.9550   43.0490 N.3   264  TRP264     -0.1227
     22  CA        -1.7660   44.0590   41.9010 C.3   264  TRP264      0.1737
     23  C         -2.8110   43.0250   42.1820 C.2   264  TRP264      0.2595
     24  O         -3.1820   42.8290   43.3330 O.2   264  TRP264     -0.2718
     25  CB        -0.4120   43.3780   41.6490 C.3   264  TRP264      0.0564
     26  CG        -0.2560   42.9600   40.2310 C.ar  264  TRP264      0.0003
     27  CD1       -0.4180   41.6970   39.7150 C.ar  264  TRP264      0.0946
     28  CD2        0.0180   43.8160   39.1130 C.ar  264  TRP264      0.0152
     29  NE1       -0.2670   41.7230   38.3490 N.ar  264  TRP264     -0.2442
     30  CE2        0.0030   43.0070   37.9520 C.ar  264  TRP264      0.0810
     31  CE3        0.2760   45.1940   38.9780 C.ar  264  TRP264      0.0012
     32  CZ2        0.2370   43.5270   36.6690 C.ar  264  TRP264      0.0191
     33  CZ3        0.5080   45.7140   37.6950 C.ar  264  TRP264      0.0001
     34  CH2        0.4870   44.8790   36.5620 C.ar  264  TRP264      0.0015
     35  N         -3.3120   42.3870   41.1320 N.am  265  TYR265     -0.1976
     36  CA        -4.3100   41.3440   41.3120 C.3   265  TYR265      0.1639
     37  C         -3.6330   40.0450   41.7310 C.2   265  TYR265      0.2290
     38  O         -2.4600   39.8160   41.4370 O.2   265  TYR265     -0.2864
     39  CB        -5.1220   41.1410   40.0380 C.3   265  TYR265      0.0560
     40  CG        -4.3310   41.2370   38.7660 C.ar  265  TYR265     -0.0198
     41  CD1       -4.0950   42.4770   38.1640 C.ar  265  TYR265     -0.0009
     42  CD2       -3.8310   40.0860   38.1550 C.ar  265  TYR265     -0.0009
     43  CE1       -3.3870   42.5750   36.9760 C.ar  265  TYR265      0.0417
     44  CE2       -3.1180   40.1590   36.9760 C.ar  265  TYR265      0.0417
     45  CZ        -2.8980   41.4040   36.3830 C.ar  265  TYR265      0.1957
     46  OH        -2.2040   41.4650   35.2030 O.3   265  TYR265     -0.2866
     47  N         -3.2130   35.0560   38.4730 N.3   268  PRO268     -0.2102
     48  CA        -2.5410   35.0830   37.1690 C.3   268  PRO268      0.1504
     49  C         -3.2690   34.0410   36.3020 C.2   268  PRO268      0.2576
     50  O         -3.2260   32.8460   36.5860 O.2   268  PRO268     -0.2718
     51  CB        -1.1020   34.6810   37.5170 C.3   268  PRO268      0.0282
     52  CG        -1.3050   33.6660   38.6140 C.3   268  PRO268      0.0208
     53  CD        -2.4680   34.2290   39.4490 C.3   268  PRO268      0.0893
     54  N         -3.9570   34.4970   35.2650 N.am  269  ALA269     -0.1966
     55  CA        -4.7030   33.5980   34.4020 C.3   269  ALA269      0.1728
     56  C         -4.4730   33.8830   32.9170 C.2   269  ALA269      0.2616
     57  O         -4.6940   35.0050   32.4630 O.2   269  ALA269     -0.2715
     58  CB        -6.1990   33.7090   34.7300 C.3   269  ALA269      0.0334
     59  N         -4.0130   32.8780   32.1700 N.am  270  VAL270     -0.1977
     60  CA        -3.7720   33.0280   30.7350 C.3   270  VAL270      0.1596
     61  C         -5.0790   32.6450   30.0330 C.2   270  VAL270      0.2287
     62  O         -5.5970   31.5370   30.2130 O.2   270  VAL270     -0.2864
     63  CB        -2.6160   32.1210   30.2980 C.3   270  VAL270      0.0276
     64  CG1       -2.4180   32.1940   28.7840 C.3   270  VAL270      0.0022
     65  CG2       -1.3520   32.5350   31.0330 C.3   270  VAL270      0.0022
     66  N         -6.8020   29.3380   31.7730 N.3   287  PHE287     -0.1227
     67  CA        -6.3430   28.5730   32.9240 C.3   287  PHE287      0.1736
     68  C         -5.5950   29.4820   33.8700 C.2   287  PHE287      0.2595
     69  O         -5.1660   30.5660   33.4690 O.2   287  PHE287     -0.2718
     70  CB        -5.4500   27.3980   32.5010 C.3   287  PHE287      0.0547
     71  CG        -4.2610   27.7950   31.6760 C.ar  287  PHE287     -0.0202
     72  CD1       -3.1210   28.3210   32.2810 C.ar  287  PHE287     -0.0042
     73  CD2       -4.2870   27.6620   30.2840 C.ar  287  PHE287     -0.0042
     74  CE1       -2.0150   28.7160   31.5140 C.ar  287  PHE287     -0.0003
     75  CE2       -3.1820   28.0540   29.5060 C.ar  287  PHE287     -0.0003
     76  CZ        -2.0490   28.5800   30.1250 C.ar  287  PHE287     -0.0000
     77  N         -5.4570   29.0550   35.1260 N.am  288  ASN288     -0.1960
     78  CA        -4.7250   29.8520   36.0980 C.3   288  ASN288      0.1819
     79  C         -3.8620   28.9840   37.0090 C.2   288  ASN288      0.2622
     80  O         -4.0320   27.7500   37.0990 O.2   288  ASN288     -0.2715
     81  CB        -5.6960   30.6610   36.9700 C.3   288  ASN288      0.1195
     82  CG        -6.3540   29.8060   38.0730 C.2   288  ASN288      0.2630
     83  OD1       -7.3730   29.1430   37.8510 O.2   288  ASN288     -0.2716
     84  ND2       -5.7490   29.8080   39.2510 N.am  288  ASN288     -0.0877
     85  N         -2.9210   29.6500   37.6630 N.am  289  GLY289     -0.1940
     86  CA        -2.0680   29.0200   38.6500 C.3   289  GLY289      0.2014
     87  C         -1.9870   30.1160   39.7050 C.2   289  GLY289      0.2639
     88  O         -2.9570   30.8430   39.9070 O.2   289  GLY289     -0.2714
     89  N         -0.8530   30.2460   40.3820 N.am  290  TRP290     -0.1959
     90  CA        -0.6710   31.3330   41.3390 C.3   290  TRP290      0.1771
     91  C          0.6350   31.9990   40.9240 C.2   290  TRP290      0.2620
     92  O          1.4370   31.4120   40.2030 O.2   290  TRP290     -0.2715
     93  CB        -0.6360   30.8340   42.8060 C.3   290  TRP290      0.0590
     94  CG         0.3200   29.7240   43.1110 C.ar  290  TRP290      0.0006
     95  CD1        1.6850   29.8060   43.1930 C.ar  290  TRP290      0.0946
     96  CD2       -0.0180   28.3580   43.4030 C.ar  290  TRP290      0.0152
     97  NE1        2.2100   28.5770   43.5200 N.ar  290  TRP290     -0.2442
     98  CE2        1.1900   27.6730   43.6530 C.ar  290  TRP290      0.0810
     99  CE3       -1.2220   27.6540   43.4750 C.ar  290  TRP290      0.0012
    100  CZ2        1.2320   26.3110   43.9720 C.ar  290  TRP290      0.0191
    101  CZ3       -1.1850   26.2890   43.7960 C.ar  290  TRP290      0.0001
    102  CH2        0.0380   25.6370   44.0400 C.ar  290  TRP290      0.0015
    103  N          0.8350   33.2260   41.3710 N.am  291  TYR291     -0.1960
    104  CA         2.0090   34.0140   41.0200 C.3   291  TYR291      0.1771
    105  C          3.3880   33.6260   41.5300 C.2   291  TYR291      0.2619
    106  O          3.5420   33.0810   42.6210 O.2   291  TYR291     -0.2715
    107  CB         1.7730   35.4630   41.4510 C.3   291  TYR291      0.0574
    108  CG         1.2210   36.3340   40.3640 C.ar  291  TYR291     -0.0198
    109  CD1        1.9890   36.6310   39.2380 C.ar  291  TYR291     -0.0009
    110  CD2       -0.0610   36.8740   40.4580 C.ar  291  TYR291     -0.0009
    111  CE1        1.5130   37.4380   38.2460 C.ar  291  TYR291      0.0417
    112  CE2       -0.5570   37.7000   39.4520 C.ar  291  TYR291      0.0417
    113  CZ         0.2400   37.9810   38.3540 C.ar  291  TYR291      0.1957
    114  OH        -0.1980   38.8490   37.3880 O.3   291  TYR291     -0.2866
    115  N          4.3990   33.9120   40.7220 N.am  292  MET292     -0.1977
    116  CA         5.7710   33.7340   41.1690 C.3   292  MET292      0.1605
    117  C          6.1190   35.2250   41.3820 C.2   292  MET292      0.2287
    118  O          5.8900   36.0510   40.4950 O.2   292  MET292     -0.2864
    119  CB         6.6620   33.1050   40.0900 C.3   292  MET292      0.0413
    120  CG         8.1200   33.0360   40.5230 C.3   292  MET292      0.0598
    121  SD         9.2190   31.9910   39.5600 S.3   292  MET292     -0.1393
    122  CE         9.6480   33.0480   38.2460 C.3   292  MET292      0.0692
    123  N          7.3600   37.9810   38.7840 N.3   295  GLU295     -0.1245
    124  CA         6.5280   38.3970   37.6550 C.3   295  GLU295      0.1567
    125  C          5.9910   39.8250   37.8780 C.2   295  GLU295      0.2260
    126  O          5.9140   40.6340   36.9360 O.2   295  GLU295     -0.2867
    127  CB         5.3470   37.4460   37.4800 C.3   295  GLU295      0.0388
    128  CG         5.7050   35.9840   37.2120 C.3   295  GLU295      0.1160
    129  CD         4.4720   35.2000   36.7940 C.2   295  GLU295      0.3649
    130  OE1        3.9880   35.4070   35.6500 O.co2 295  GLU295     -0.2457
    131  OE2        3.9630   34.4040   37.6170 O.co2 295  GLU295     -0.2457
    132  N          6.3620   43.5380   35.9130 N.3   300  ASP300     -0.1239
    133  CA         5.2930   44.5270   35.9300 C.3   300  ASP300      0.1674
    134  C          5.7360   45.8790   36.4650 C.2   300  ASP300      0.2266
    135  O          5.4220   46.9170   35.8790 O.2   300  ASP300     -0.2867
    136  CB         4.1000   44.0330   36.7480 C.3   300  ASP300      0.1410
    137  CG         3.4270   42.8090   36.1350 C.2   300  ASP300      0.3668
    138  OD1        3.1830   42.7880   34.9100 O.co2 300  ASP300     -0.2456
    139  OD2        3.1130   41.8670   36.8960 O.co2 300  ASP300     -0.2456
    140  N          6.6600   49.0260   31.0880 N.3   306  ARG306     -0.1245
    141  CA         5.4950   48.7280   31.9210 C.3   306  ARG306      0.1563
    142  C          5.3230   49.8300   32.9800 C.2   306  ARG306      0.2260
    143  O          5.4060   51.0100   32.6400 O.2   306  ARG306     -0.2867
    144  CB         5.6400   47.3460   32.5790 C.3   306  ARG306      0.0307
    145  CG         5.8520   46.1720   31.5810 C.3   306  ARG306      0.0489
    146  CD         4.6300   45.9240   30.6770 C.3   306  ARG306      0.2205
    147  NE         3.4120   45.7210   31.4540 N.pl3 306  ARG306     -0.0865
    148  CZ         3.2490   44.7690   32.3700 C.cat 306  ARG306      0.5346
    149  NH1        4.2310   43.9020   32.6230 N.pl3 306  ARG306      0.1354
    150  NH2        2.1230   44.7110   33.0740 N.pl3 306  ARG306      0.1354
@<TRIPOS>BOND
     1    64    63    1
     2     1     2    1
     3    19    18    1
     4    75    76   ar
     5    75    73   ar
     6     9     7   am
     7    20    18    1
     8    61    62    2
     9    61    60    1
    10    76    74   ar
    11     8     7    2
    12    18    17    2
    13    73    71   ar
    14    63    60    1
    15    63    65    1
    16     7     6    1
    17     4     3    2
    18     2     3    1
    19     2     5    1
    20   146   147    1
    21   146   145    1
    22    60    59    1
    23   140   141    1
    24     6     5    1
    25   147   148    2
    26    17    16    1
    27    74    72   ar
    28    15    16    1
    29    15    14    1
    30   145   144    1
    31    71    72   ar
    32    71    70    1
    33    66    67    1
    34   141   144    1
    35   141   142    1
    36    14    11    1
    37    59    56   am
    38   148   149    1
    39   148   150    1
    40    57    56    2
    41    70    67    1
    42   143   142    2
    43    56    55    1
    44    67    68    1
    45    69    68    2
    46    11    12    1
    47    11    10    1
    48    13    12    2
    49    68    77   am
    50    55    58    1
    51    55    54    1
    52   138   137   ar
    53    77    78    1
    54    46    45    1
    55    54    49   am
    56   130   129   ar
    57   135   134    2
    58   132   133    1
    59   133   134    1
    60   133   136    1
    61    78    81    1
    62    78    79    1
    63   137   136    1
    64   137   139   ar
    65    49    50    2
    66    49    48    1
    67    45    43   ar
    68    45    44   ar
    69    34    32   ar
    70    34    33   ar
    71    32    30   ar
    72   129   128    1
    73   129   131   ar
    74   126   125    2
    75    81    82    1
    76    43    41   ar
    77    44    42   ar
    78    79    80    2
    79    79    85   am
    80    48    51    1
    81    48    47    1
    82   128   127    1
    83   114   113    1
    84   127   124    1
    85    51    52    1
    86   124   125    1
    87   124   123    1
    88    85    86    1
    89    33    31   ar
    90    83    82    2
    91    30    29   ar
    92    30    28   ar
    93    82    84   am
    94    42    40   ar
    95    41    40   ar
    96   122   121    1
    97   111   113   ar
    98   111   109   ar
    99    29    27   ar
   100   113   112   ar
   101    47    53    1
   102    52    53    1
   103    86    87    1
   104    40    39    1
   105    31    28   ar
   106    28    26   ar
   107   109   108   ar
   108   112   110   ar
   109   121   120    1
   110    87    88    2
   111    87    89   am
   112    27    26   ar
   113    39    36    1
   114   119   120    1
   115   119   116    1
   116    92    91    2
   117    26    25    1
   118   108   110   ar
   119   108   107    1
   120    89    90    1
   121   118   117    2
   122   115   116    1
   123   115   105   am
   124    91    90    1
   125    91   103   am
   126   104   103    1
   127   104   107    1
   128   104   105    1
   129    35    36    1
   130    35    23   am
   131   116   117    1
   132    36    37    1
   133    90    93    1
   134    38    37    2
   135   105   106    2
   136    25    22    1
   137    22    23    1
   138    22    21    1
   139    23    24    2
   140    93    94    1
   141    94    95   ar
   142    94    96   ar
   143    95    97   ar
   144    96    99   ar
   145    96    98   ar
   146    99   101   ar
   147    97    98   ar
   148    98   100   ar
   149   101   102   ar
   150   100   102   ar
