@<TRIPOS>MOLECULE
tmp/3e7iA02.pdb
 128 126 0 0 0
SMALL
GASTEIGER

@<TRIPOS>ATOM
      1  N        120.3030  108.6720   26.4570 N.3   118  CYS118     -0.1235
      2  CA       121.1270  109.8120   26.0710 C.3   118  CYS118      0.1677
      3  C        120.5920  110.4760   24.8090 C.2   118  CYS118      0.2270
      4  O        120.2120  109.7930   23.8530 O.2   118  CYS118     -0.2867
      5  CB       122.5590  109.3850   25.8290 C.3   118  CYS118      0.0956
      6  SG       123.5640  110.7380   25.2730 S.3   118  CYS118     -0.0801
      7  N        127.6710  111.7250   40.9200 N.3   181  GLN181     -0.1245
      8  CA       128.3220  112.4210   39.8140 C.3   181  GLN181      0.1566
      9  C        129.5820  113.1710   40.2340 C.2   181  GLN181      0.2260
     10  O        129.6920  113.6380   41.3620 O.2   181  GLN181     -0.2867
     11  CB       127.3320  113.3800   39.1450 C.3   181  GLN181      0.0367
     12  CG       126.5110  114.2270   40.1020 C.3   181  GLN181      0.0905
     13  CD       125.4330  115.0380   39.4000 C.2   181  GLN181      0.2608
     14  OE1      124.4810  114.4840   38.8870 O.2   181  GLN181     -0.2717
     15  NE2      125.5900  116.3560   39.3790 N.am  181  GLN181     -0.0878
     16  N        130.9040  116.2110   39.9090 N.3   183  ILE183     -0.1245
     17  CA       130.6880  117.4820   40.5930 C.3   183  ILE183      0.1561
     18  C        129.2170  117.6180   40.9540 C.2   183  ILE183      0.2260
     19  O        128.3410  117.5600   40.1040 O.2   183  ILE183     -0.2867
     20  CB       131.1250  118.6450   39.7060 C.3   183  ILE183      0.0252
     21  CG1      132.6430  118.5740   39.5000 C.3   183  ILE183      0.0019
     22  CG2      130.7260  119.9410   40.3430 C.3   183  ILE183      0.0019
     23  CD1      133.1710  119.3600   38.3260 C.3   183  ILE183      0.0001
     24  N        127.8090  124.5710   38.2290 N.3   265  TYR265     -0.1241
     25  CA       129.0170  124.0290   37.5820 C.3   265  TYR265      0.1605
     26  C        128.7600  123.6880   36.1270 C.2   265  TYR265      0.2264
     27  O        127.6660  123.2700   35.7560 O.2   265  TYR265     -0.2867
     28  CB       129.4960  122.7710   38.2960 C.3   265  TYR265      0.0534
     29  CG       128.3890  121.7750   38.6070 C.ar  265  TYR265     -0.0201
     30  CD1      127.5810  121.9240   39.7430 C.ar  265  TYR265     -0.0009
     31  CD2      128.1590  120.6770   37.7790 C.ar  265  TYR265     -0.0009
     32  CE1      126.5750  120.9970   40.0470 C.ar  265  TYR265      0.0417
     33  CE2      127.1550  119.7550   38.0690 C.ar  265  TYR265      0.0417
     34  CZ       126.3640  119.9170   39.2020 C.ar  265  TYR265      0.1957
     35  OH       125.3480  119.0240   39.4570 O.3   265  TYR265     -0.2866
     36  N        130.2250  121.2550   34.3250 N.3   267  LEU267     -0.1231
     37  CA       130.6500  119.9080   33.9260 C.3   267  LEU267      0.1678
     38  C        129.7870  118.7630   34.3810 C.2   267  LEU267      0.2434
     39  O        129.8820  118.3340   35.5230 O.2   267  LEU267     -0.2733
     40  CB       132.0700  119.6350   34.4110 C.3   267  LEU267      0.0284
     41  CG       132.6660  118.3250   33.9120 C.3   267  LEU267      0.0019
     42  CD1      132.8190  118.4130   32.4140 C.3   267  LEU267      0.0001
     43  CD2      134.0090  118.0780   34.5490 C.3   267  LEU267      0.0001
     44  N        128.9590  118.2190   33.4770 N.am  268  PRO268     -0.2718
     45  CA       128.0990  117.1050   33.8660 C.3   268  PRO268      0.1535
     46  C        128.8590  115.8120   33.6210 C.2   268  PRO268      0.2598
     47  O        129.2590  115.5190   32.4830 O.2   268  PRO268     -0.2715
     48  CB       126.8960  117.2700   32.9420 C.3   268  PRO268      0.0310
     49  CG       127.5490  117.6470   31.6700 C.3   268  PRO268      0.0237
     50  CD       128.7100  118.5920   32.0710 C.3   268  PRO268      0.0939
     51  N        129.0930  115.0570   34.6900 N.am  269  ALA269     -0.1964
     52  CA       129.7970  113.7870   34.5660 C.3   269  ALA269      0.1728
     53  C        129.1340  112.7410   35.4490 C.2   269  ALA269      0.2616
     54  O        128.9670  112.9570   36.6560 O.2   269  ALA269     -0.2715
     55  CB       131.2500  113.9510   34.9450 C.3   269  ALA269      0.0334
     56  N        128.7270  111.6280   34.8300 N.am  270  VAL270     -0.1977
     57  CA       128.0970  110.5350   35.5660 C.3   270  VAL270      0.1596
     58  C        129.2180  109.6990   36.1610 C.2   270  VAL270      0.2287
     59  O        130.1100  109.2310   35.4400 O.2   270  VAL270     -0.2864
     60  CB       127.2270  109.6540   34.6590 C.3   270  VAL270      0.0276
     61  CG1      126.7890  108.4160   35.4030 C.3   270  VAL270      0.0022
     62  CG2      126.0130  110.4070   34.2480 C.3   270  VAL270      0.0022
     63  N        132.0580  109.1070   32.9740 N.3   287  PHE287     -0.1227
     64  CA       132.0540  109.7340   31.6610 C.3   287  PHE287      0.1736
     65  C        131.2900  111.0420   31.7430 C.2   287  PHE287      0.2595
     66  O        130.4370  111.2180   32.6270 O.2   287  PHE287     -0.2718
     67  CB       131.4340  108.8010   30.6150 C.3   287  PHE287      0.0547
     68  CG       130.1670  108.1230   31.0630 C.ar  287  PHE287     -0.0202
     69  CD1      128.9330  108.7730   30.9670 C.ar  287  PHE287     -0.0042
     70  CD2      130.2070  106.8310   31.5950 C.ar  287  PHE287     -0.0042
     71  CE1      127.7560  108.1400   31.3980 C.ar  287  PHE287     -0.0003
     72  CE2      129.0370  106.1910   32.0290 C.ar  287  PHE287     -0.0003
     73  CZ       127.8120  106.8440   31.9320 C.ar  287  PHE287     -0.0000
     74  N        131.5960  111.9620   30.8300 N.am  288  ASN288     -0.1960
     75  CA       130.9550  113.2820   30.8210 C.3   288  ASN288      0.1819
     76  C        130.6800  113.8490   29.4270 C.2   288  ASN288      0.2622
     77  O        131.4160  113.5890   28.4640 O.2   288  ASN288     -0.2715
     78  CB       131.8420  114.2940   31.5180 C.3   288  ASN288      0.1195
     79  CG       132.9930  114.7390   30.6300 C.2   288  ASN288      0.2630
     80  OD1      133.8990  113.9650   30.3320 O.2   288  ASN288     -0.2716
     81  ND2      132.9420  115.9810   30.1800 N.am  288  ASN288     -0.0877
     82  N        129.6390  114.6720   29.3600 N.am  289  GLY289     -0.1940
     83  CA       129.2610  115.3120   28.1190 C.3   289  GLY289      0.2014
     84  C        129.3110  116.7960   28.3820 C.2   289  GLY289      0.2639
     85  O        130.3650  117.3370   28.7000 O.2   289  GLY289     -0.2714
     86  N        128.1710  117.4540   28.2310 N.am  290  TRP290     -0.1959
     87  CA       128.0420  118.8790   28.4940 C.3   290  TRP290      0.1771
     88  C        126.5690  119.0960   28.6720 C.2   290  TRP290      0.2619
     89  O        125.7730  118.3100   28.2070 O.2   290  TRP290     -0.2715
     90  CB       128.6110  119.7400   27.3630 C.3   290  TRP290      0.0590
     91  CG       128.0260  119.5490   26.0260 C.ar  290  TRP290      0.0006
     92  CD1      126.7380  119.7860   25.6490 C.ar  290  TRP290      0.0946
     93  CD2      128.7230  119.1340   24.8450 C.ar  290  TRP290      0.0152
     94  NE1      126.5860  119.5460   24.2970 N.ar  290  TRP290     -0.2442
     95  CE2      127.7930  119.1470   23.7830 C.ar  290  TRP290      0.0810
     96  CE3      130.0460  118.7560   24.5820 C.ar  290  TRP290      0.0012
     97  CZ2      128.1430  118.7950   22.4790 C.ar  290  TRP290      0.0191
     98  CZ3      130.3940  118.4060   23.2870 C.ar  290  TRP290      0.0001
     99  CH2      129.4440  118.4290   22.2510 C.ar  290  TRP290      0.0015
    100  N        126.2040  120.1500   29.3720 N.am  291  TYR291     -0.1974
    101  CA       124.8120  120.4250   29.6730 C.3   291  TYR291      0.1639
    102  C        123.8950  120.8150   28.5360 C.2   291  TYR291      0.2290
    103  O        124.3210  121.2730   27.4790 O.2   291  TYR291     -0.2864
    104  CB       124.7370  121.5100   30.7290 C.3   291  TYR291      0.0560
    105  CG       124.7340  120.9990   32.1390 C.ar  291  TYR291     -0.0198
    106  CD1      123.5900  120.4330   32.6940 C.ar  291  TYR291     -0.0009
    107  CD2      125.8690  121.1040   32.9260 C.ar  291  TYR291     -0.0009
    108  CE1      123.5770  119.9860   34.0100 C.ar  291  TYR291      0.0417
    109  CE2      125.8720  120.6620   34.2360 C.ar  291  TYR291      0.0417
    110  CZ       124.7320  120.1050   34.7760 C.ar  291  TYR291      0.1957
    111  OH       124.7740  119.6510   36.0700 O.3   291  TYR291     -0.2866
    112  N        118.2000  121.4060   31.7420 N.3   295  GLU295     -0.1245
    113  CA       118.5970  120.4820   32.8020 C.3   295  GLU295      0.1567
    114  C        118.7540  121.2750   34.0920 C.2   295  GLU295      0.2260
    115  O        118.2270  120.9180   35.1500 O.2   295  GLU295     -0.2867
    116  CB       119.9290  119.8330   32.4640 C.3   295  GLU295      0.0388
    117  CG       119.9600  119.1560   31.1270 C.3   295  GLU295      0.1160
    118  CD       121.0750  118.1560   31.0350 C.2   295  GLU295      0.3649
    119  OE1      121.0050  117.1540   31.7730 O.co2 295  GLU295     -0.2457
    120  OE2      122.0170  118.3780   30.2430 O.co2 295  GLU295     -0.2457
    121  N        116.9560  121.3430   37.8510 N.3   300  ASP300     -0.1239
    122  CA       117.7240  121.7530   39.0280 C.3   300  ASP300      0.1674
    123  C        117.2310  123.0370   39.7560 C.2   300  ASP300      0.2266
    124  O        117.2450  123.0860   40.9980 O.2   300  ASP300     -0.2867
    125  CB       119.2130  121.9030   38.6670 C.3   300  ASP300      0.1410
    126  CG       119.8450  120.5980   38.1880 C.2   300  ASP300      0.3668
    127  OD1      119.5630  119.5190   38.7580 O.co2 300  ASP300     -0.2456
    128  OD2      120.6480  120.6620   37.2370 O.co2 300  ASP300     -0.2456
@<TRIPOS>BOND
     1    99    97   ar
     2    99    98   ar
     3    97    95   ar
     4    98    96   ar
     5    95    94   ar
     6    95    93   ar
     7     4     3    2
     8    94    92   ar
     9    96    93   ar
    10     3     2    1
    11    93    91   ar
    12     6     5    1
    13    92    91   ar
    14     5     2    1
    15    91    90    1
    16     2     1    1
    17    90    87    1
    18   103   102    2
    19    83    84    1
    20    83    82    1
    21    89    88    2
    22    86    84   am
    23    86    87    1
    24    84    85    2
    25    77    76    2
    26    87    88    1
    27   102   101    1
    28    88   100   am
    29    82    76   am
    30   100   101    1
    31    76    75    1
    32   101   104    1
    33    81    79   am
    34   120   118   ar
    35    80    79    2
    36    67    68    1
    37    67    64    1
    38    79    78    1
    39   104   105    1
    40    75    74    1
    41    75    78    1
    42    74    65   am
    43    69    68   ar
    44    69    71   ar
    45   118   117    1
    46   118   119   ar
    47    68    70   ar
    48   117   116    1
    49    71    73   ar
    50    70    72   ar
    51    64    65    1
    52    64    63    1
    53    49    50    1
    54    49    48    1
    55   112   113    1
    56    65    66    2
    57    73    72   ar
    58    50    44    1
    59   105   106   ar
    60   105   107   ar
    61    42    41    1
    62   116   113    1
    63    47    46    2
    64   106   108   ar
    65   113   114    1
    66   107   109   ar
    67    48    45    1
    68    44    45    1
    69    44    38   am
    70    46    45    1
    71    46    51   am
    72    41    40    1
    73    41    43    1
    74    37    36    1
    75    37    38    1
    76    37    40    1
    77   108   110   ar
    78   114   115    2
    79   109   110   ar
    80    62    60    1
    81    38    39    2
    82    52    51    1
    83    52    55    1
    84    52    53    1
    85    60    61    1
    86    60    57    1
    87   110   111    1
    88    56    53   am
    89    56    57    1
    90    59    58    2
    91    53    54    2
    92    57    58    1
    93    27    26    2
    94    26    25    1
    95   128   126   ar
    96    25    24    1
    97    25    28    1
    98    31    33   ar
    99    31    29   ar
   100   121   122    1
   101    33    34   ar
   102   126   125    1
   103   126   127   ar
   104    28    29    1
   105    23    21    1
   106    29    30   ar
   107   125   122    1
   108    14    13    2
   109   122   123    1
   110    11     8    1
   111    11    12    1
   112    34    35    1
   113    34    32   ar
   114    15    13   am
   115    13    12    1
   116    21    20    1
   117    20    22    1
   118    20    17    1
   119    30    32   ar
   120   123   124    2
   121     8     9    1
   122     8     7    1
   123    16    17    1
   124    19    18    2
   125     9    10    2
   126    17    18    1
