@<TRIPOS>MOLECULE
tmp/3e7iA03.pdb
 86 85 0 0 0
SMALL
GASTEIGER

@<TRIPOS>ATOM
      1  N        114.0720  124.4200   39.2180 N.3   302  CYS302     -0.1221
      2  CA       112.6220  124.3840   39.4080 C.3   302  CYS302      0.1808
      3  C        112.0240  123.0200   39.7120 C.2   302  CYS302      0.2601
      4  O        111.2860  122.4610   38.9010 O.2   302  CYS302     -0.2717
      5  CB       111.9430  124.9640   38.1760 C.3   302  CYS302      0.0970
      6  SG       112.6280  126.5370   37.6930 S.3   302  CYS302     -0.0800
      7  N        112.3270  122.4940   40.8900 N.am  303  ASP303     -0.1959
      8  CA       111.8130  121.1960   41.2970 C.3   303  ASP303      0.1840
      9  C        111.5330  121.2510   42.7820 C.2   303  ASP303      0.2622
     10  O        112.3270  121.8000   43.5460 O.2   303  ASP303     -0.2715
     11  CB       112.8440  120.1060   41.0080 C.3   303  ASP303      0.1450
     12  CG       112.4280  119.1950   39.8800 C.2   303  ASP303      0.3671
     13  OD1      111.9600  119.7160   38.8470 O.co2 303  ASP303     -0.2456
     14  OD2      112.5810  117.9600   40.0170 O.co2 303  ASP303     -0.2456
     15  N        110.3990  120.7020   43.1920 N.am  304  THR304     -0.1951
     16  CA       110.0470  120.6860   44.6000 C.3   304  THR304      0.1897
     17  C        111.1940  120.0460   45.3830 C.2   304  THR304      0.2313
     18  O        111.4310  120.3580   46.5500 O.2   304  THR304     -0.2863
     19  CB       108.7680  119.8650   44.8170 C.3   304  THR304      0.1794
     20  OG1      107.6780  120.5170   44.1620 O.3   304  THR304     -0.2208
     21  CG2      108.4590  119.7220   46.2950 C.3   304  THR304      0.0378
     22  N        114.5060  124.6560   43.8540 N.3   308  ASN308     -0.1225
     23  CA       113.1580  125.1970   43.9890 C.3   308  ASN308      0.1785
     24  C        113.1740  126.7530   44.0050 C.2   308  ASN308      0.2597
     25  O        113.2530  127.3760   45.0710 O.2   308  ASN308     -0.2718
     26  CB       112.5930  124.5890   45.2880 C.3   308  ASN308      0.1169
     27  CG       111.1830  125.0090   45.5920 C.2   308  ASN308      0.2627
     28  OD1      110.8870  126.1890   45.6800 O.2   308  ASN308     -0.2716
     29  ND2      110.3060  124.0360   45.7890 N.am  308  ASN308     -0.0877
     30  N        113.1100  127.3790   42.8280 N.am  309  ILE309     -0.1966
     31  CA       113.1300  128.8440   42.7530 C.3   309  ILE309      0.1727
     32  C        112.0120  129.4590   41.8940 C.2   309  ILE309      0.2616
     33  O        111.9200  130.6780   41.7970 O.2   309  ILE309     -0.2715
     34  CB       114.4720  129.3760   42.1810 C.3   309  ILE309      0.0290
     35  CG1      114.4300  129.3480   40.6530 C.3   309  ILE309      0.0022
     36  CG2      115.6300  128.5270   42.6500 C.3   309  ILE309      0.0023
     37  CD1      115.6220  129.9730   40.0180 C.3   309  ILE309      0.0001
     38  N        111.1660  128.6220   41.2900 N.am  310  LEU310     -0.1963
     39  CA       110.0760  129.0690   40.4020 C.3   310  LEU310      0.1728
     40  C        109.1700  130.2230   40.8740 C.2   310  LEU310      0.2616
     41  O        109.0310  131.2330   40.1740 O.2   310  LEU310     -0.2715
     42  CB       109.2100  127.8630   39.9940 C.3   310  LEU310      0.0311
     43  CG       108.7710  127.7390   38.5300 C.3   310  LEU310      0.0022
     44  CD1      107.2800  127.8170   38.4630 C.3   310  LEU310      0.0001
     45  CD2      109.3990  128.8280   37.6740 C.3   310  LEU310      0.0001
     46  N        108.5380  130.0830   42.0320 N.am  311  GLU311     -0.1963
     47  CA       107.6790  131.1540   42.5340 C.3   311  GLU311      0.1733
     48  C        108.3690  132.5290   42.5900 C.2   311  GLU311      0.2616
     49  O        107.9460  133.4710   41.9170 O.2   311  GLU311     -0.2715
     50  CB       107.1310  130.7900   43.9240 C.3   311  GLU311      0.0429
     51  CG       106.7810  131.9900   44.7930 C.3   311  GLU311      0.1163
     52  CD       105.6070  131.7160   45.6980 C.2   311  GLU311      0.3649
     53  OE1      105.5760  130.6230   46.3010 O.co2 311  GLU311     -0.2457
     54  OE2      104.7180  132.5930   45.8090 O.co2 311  GLU311     -0.2457
     55  N        109.4300  132.6320   43.3900 N.am  312  GLU312     -0.1977
     56  CA       110.1710  133.8760   43.5450 C.3   312  GLU312      0.1602
     57  C        110.6120  134.5280   42.2430 C.2   312  GLU312      0.2287
     58  O        110.6600  135.7550   42.1590 O.2   312  GLU312     -0.2864
     59  CB       111.3940  133.6620   44.4330 C.3   312  GLU312      0.0415
     60  CG       112.2900  134.8890   44.5140 C.3   312  GLU312      0.1163
     61  CD       113.2570  134.8420   45.6750 C.2   312  GLU312      0.3649
     62  OE1      114.0830  133.8960   45.7330 O.co2 312  GLU312     -0.2457
     63  OE2      113.1830  135.7600   46.5240 O.co2 312  GLU312     -0.2457
     64  N        101.7190  131.7000   35.1840 N.3   328  TRP328     -0.1227
     65  CA       102.9190  132.3850   35.6670 C.3   328  TRP328      0.1737
     66  C        104.0520  131.3860   35.7620 C.2   328  TRP328      0.2595
     67  O        105.2220  131.7360   35.5640 O.2   328  TRP328     -0.2718
     68  CB       102.7010  132.9640   37.0550 C.3   328  TRP328      0.0564
     69  CG       102.3100  131.9370   38.0510 C.ar  328  TRP328      0.0003
     70  CD1      101.0630  131.4510   38.2640 C.ar  328  TRP328      0.0946
     71  CD2      103.1650  131.2780   38.9920 C.ar  328  TRP328      0.0152
     72  NE1      101.0750  130.5350   39.2860 N.ar  328  TRP328     -0.2442
     73  CE2      102.3530  130.4070   39.7520 C.ar  328  TRP328      0.0810
     74  CE3      104.5370  131.3400   39.2710 C.ar  328  TRP328      0.0012
     75  CZ2      102.8640  129.6050   40.7770 C.ar  328  TRP328      0.0191
     76  CZ3      105.0430  130.5410   40.2930 C.ar  328  TRP328      0.0001
     77  CH2      104.2040  129.6870   41.0320 C.ar  328  TRP328      0.0015
     78  N        103.7070  130.1430   36.0920 N.am  329  LYS329     -0.1980
     79  CA       104.7260  129.1170   36.1860 C.3   329  LYS329      0.1596
     80  C        105.3740  128.9360   34.8220 C.2   329  LYS329      0.2287
     81  O        106.5990  128.8760   34.7050 O.2   329  LYS329     -0.2864
     82  CB       104.1300  127.7980   36.6680 C.3   329  LYS329      0.0298
     83  CG       103.8190  127.7650   38.1600 C.3   329  LYS329      0.0038
     84  CD       103.5800  126.3460   38.5970 C.3   329  LYS329      0.0206
     85  CE       103.0200  126.2560   39.9890 C.3   329  LYS329      0.1093
     86  NZ       102.8790  124.8080   40.3820 N.3   329  LYS329     -0.1314
@<TRIPOS>BOND
     1    81    80    2
     2    80    79    1
     3    64    65    1
     4    67    66    2
     5    65    66    1
     6    65    68    1
     7    66    78   am
     8    78    79    1
     9    79    82    1
    10    82    83    1
    11    68    69    1
    12    45    43    1
    13     6     5    1
    14    69    70   ar
    15    69    71   ar
    16    83    84    1
    17     5     2    1
    18    70    72   ar
    19    44    43    1
    20    43    42    1
    21    84    85    1
    22    13    12   ar
    23     4     3    2
    24    71    74   ar
    25    71    73   ar
    26     1     2    1
    27    74    76   ar
    28    72    73   ar
    29     2     3    1
    30     3     7   am
    31    73    75   ar
    32    12    14   ar
    33    12    11    1
    34    85    86    1
    35    42    39    1
    36    37    35    1
    37    41    40    2
    38    76    77   ar
    39    39    40    1
    40    39    38    1
    41    35    34    1
    42    75    77   ar
    43    40    46   am
    44     7     8    1
    45    11     8    1
    46    38    32   am
    47     8     9    1
    48    33    32    2
    49    32    31    1
    50    49    48    2
    51    46    47    1
    52    58    57    2
    53    34    36    1
    54    34    31    1
    55    57    56    1
    56    47    48    1
    57    47    50    1
    58    48    55   am
    59    31    30    1
    60     9    15   am
    61     9    10    2
    62    30    24   am
    63    15    16    1
    64    55    56    1
    65    56    59    1
    66    22    23    1
    67    50    51    1
    68    23    24    1
    69    23    26    1
    70    24    25    2
    71    20    19    1
    72    59    60    1
    73    60    61    1
    74    16    19    1
    75    16    17    1
    76    51    52    1
    77    19    21    1
    78    26    27    1
    79    17    18    2
    80    27    28    2
    81    27    29   am
    82    61    62   ar
    83    61    63   ar
    84    52    54   ar
    85    52    53   ar
