@<TRIPOS>MOLECULE
tmp/3e7jB00.pdb
 218 208 0 0 0
SMALL
GASTEIGER

@<TRIPOS>ATOM
      1  N         18.5260   58.5090  -11.0100 N.3    65  ASP65      -0.1225
      2  CA        17.9770   57.3780  -10.2660 C.3    65  ASP65       0.1805
      3  C         18.3260   57.5280   -8.7930 C.2    65  ASP65       0.2598
      4  O         18.7650   58.5920   -8.3640 O.2    65  ASP65      -0.2718
      5  CB        18.5210   56.0550  -10.8100 C.3    65  ASP65       0.1424
      6  CG        20.0090   55.8870  -10.5620 C.2    65  ASP65       0.3668
      7  OD1       20.4580   54.7350  -10.3810 O.co2  65  ASP65      -0.2456
      8  OD2       20.7300   56.9080  -10.5450 O.co2  65  ASP65      -0.2456
      9  N         18.1450   56.4640   -8.0180 N.am   66  PHE66      -0.1962
     10  CA        18.3820   56.5310   -6.5770 C.3    66  PHE66       0.1771
     11  C         19.8150   56.9440   -6.2250 C.2    66  PHE66       0.2619
     12  O         20.0430   57.6310   -5.2260 O.2    66  PHE66      -0.2715
     13  CB        18.0090   55.2090   -5.9000 C.3    66  PHE66       0.0574
     14  CG        19.0120   54.1080   -6.1070 C.ar   66  PHE66      -0.0200
     15  CD1       20.0150   53.8860   -5.1780 C.ar   66  PHE66      -0.0042
     16  CD2       18.9460   53.2830   -7.2210 C.ar   66  PHE66      -0.0042
     17  CE1       20.9360   52.8640   -5.3600 C.ar   66  PHE66      -0.0003
     18  CE2       19.8710   52.2650   -7.4090 C.ar   66  PHE66      -0.0003
     19  CZ        20.8620   52.0550   -6.4810 C.ar   66  PHE66      -0.0000
     20  N         20.7730   56.5410   -7.0540 N.am   67  ARG67      -0.1977
     21  CA        22.1760   56.8870   -6.8310 C.3    67  ARG67       0.1597
     22  C         22.4150   58.3960   -6.8520 C.2    67  ARG67       0.2287
     23  O         23.3080   58.8970   -6.1660 O.2    67  ARG67      -0.2864
     24  CB        23.0760   56.1970   -7.8610 C.3    67  ARG67       0.0334
     25  CG        23.1450   54.6810   -7.7080 C.3    67  ARG67       0.0492
     26  CD        24.1520   54.0680   -8.6590 C.3    67  ARG67       0.2205
     27  NE        24.3580   52.6480   -8.3860 N.pl3  67  ARG67      -0.0865
     28  CZ        23.4770   51.6980   -8.6800 C.cat  67  ARG67       0.5346
     29  NH1       22.3150   52.0210   -9.2370 N.pl3  67  ARG67       0.1354
     30  NH2       23.7460   50.4280   -8.3960 N.pl3  67  ARG67       0.1354
     31  N         15.0860   54.2200  -11.9910 N.3   115  GLY115     -0.1210
     32  CA        15.4390   53.1210  -11.0960 C.3   115  GLY115      0.1956
     33  C         15.3000   53.4410   -9.6180 C.2   115  GLY115      0.2611
     34  O         16.0770   54.2200   -9.0660 O.2   115  GLY115     -0.2717
     35  N         14.3020   52.8310   -8.9810 N.am  116  ASP116     -0.1973
     36  CA        14.0720   52.9730   -7.5400 C.3   116  ASP116      0.1709
     37  C         13.8540   54.4150   -7.0880 C.2   116  ASP116      0.2293
     38  O         14.2490   54.7980   -5.9840 O.2   116  ASP116     -0.2864
     39  CB        15.2100   52.3250   -6.7440 C.3   116  ASP116      0.1436
     40  CG        15.2310   50.8130   -6.8830 C.2   116  ASP116      0.3671
     41  OD1       14.2690   50.1540   -6.4310 O.co2 116  ASP116     -0.2456
     42  OD2       16.2130   50.2820   -7.4440 O.co2 116  ASP116     -0.2456
     43  N         13.2840   55.9160   -3.6220 N.3   119  ARG119     -0.1245
     44  CA        14.3890   56.1550   -2.7000 C.3   119  ARG119      0.1563
     45  C         14.7640   57.6320   -2.6760 C.2   119  ARG119      0.2260
     46  O         15.1080   58.1770   -1.6270 O.2   119  ARG119     -0.2867
     47  CB        15.6030   55.3060   -3.0790 C.3   119  ARG119      0.0307
     48  CG        15.3870   53.8140   -2.9020 C.3   119  ARG119      0.0489
     49  CD        16.5810   53.0140   -3.3910 C.3   119  ARG119      0.2205
     50  NE        16.3450   51.5760   -3.3000 N.pl3 119  ARG119     -0.0865
     51  CZ        17.1070   50.6570   -3.8830 C.cat 119  ARG119      0.5346
     52  NH1       18.1550   51.0240   -4.6070 N.pl3 119  ARG119      0.1354
     53  NH2       16.8200   49.3680   -3.7480 N.pl3 119  ARG119      0.1354
     54  N          2.9870   46.1760   -2.1100 N.3   167  ASP167     -0.1225
     55  CA         4.2430   45.4330   -2.0090 C.3   167  ASP167      0.1805
     56  C          4.2590   44.4720   -0.8200 C.2   167  ASP167      0.2597
     57  O          3.2060   44.0680   -0.3280 O.2   167  ASP167     -0.2718
     58  CB         5.4440   46.3790   -1.9610 C.3   167  ASP167      0.1424
     59  CG         6.7090   45.7360   -2.5040 C.2   167  ASP167      0.3668
     60  OD1        7.7120   45.6550   -1.7590 O.co2 167  ASP167     -0.2456
     61  OD2        6.6940   45.2980   -3.6740 O.co2 167  ASP167     -0.2456
     62  N          5.4570   44.1120   -0.3630 N.am  168  LYS168     -0.1979
     63  CA         5.6140   43.0630    0.6460 C.3   168  LYS168      0.1596
     64  C          6.2670   43.5690    1.9290 C.2   168  LYS168      0.2287
     65  O          6.9320   44.6040    1.9330 O.2   168  LYS168     -0.2864
     66  CB         6.4320   41.9020    0.0750 C.3   168  LYS168      0.0298
     67  CG         6.0530   41.5060   -1.3450 C.3   168  LYS168      0.0038
     68  CD         4.7140   40.7920   -1.3940 C.3   168  LYS168      0.0206
     69  CE         4.3300   40.4480   -2.8230 C.3   168  LYS168      0.1093
     70  NZ         3.0000   39.7880   -2.8950 N.3   168  LYS168     -0.1314
     71  N         10.0620   41.0410    2.3820 N.3   171  VAL171     -0.1231
     72  CA        11.0330   41.3100    1.3220 C.3   171  VAL171      0.1692
     73  C         10.5410   42.4530    0.4340 C.2   171  VAL171      0.2593
     74  O          9.5890   43.1520    0.7850 O.2   171  VAL171     -0.2718
     75  CB        11.3050   40.0550    0.4550 C.3   171  VAL171      0.0266
     76  CG1       11.8980   38.9410    1.3020 C.3   171  VAL171      0.0020
     77  CG2       10.0310   39.5870   -0.2260 C.3   171  VAL171      0.0020
     78  N         11.1970   42.6460   -0.7060 N.am  172  GLY172     -0.1942
     79  CA        10.7570   43.6430   -1.6750 C.3   172  GLY172      0.2014
     80  C         11.0430   45.0810   -1.2860 C.2   172  GLY172      0.2638
     81  O         11.6630   45.3460   -0.2580 O.2   172  GLY172     -0.2714
     82  N         10.5770   46.0090   -2.1180 N.am  173  ALA173     -0.1977
     83  CA        10.8650   47.4330   -1.9480 C.3   173  ALA173      0.1597
     84  C         10.3190   48.0140   -0.6440 C.2   173  ALA173      0.2287
     85  O         10.8730   48.9750   -0.1090 O.2   173  ALA173     -0.2864
     86  CB        10.3330   48.2270   -3.1440 C.3   173  ALA173      0.0319
     87  N         12.4780   48.0550    2.4770 N.3   176  GLU176     -0.1245
     88  CA        13.6620   48.9050    2.3720 C.3   176  GLU176      0.1567
     89  C         13.4600   50.2610    3.0630 C.2   176  GLU176      0.2260
     90  O         13.0410   50.3040    4.2160 O.2   176  GLU176     -0.2867
     91  CB        14.1080   49.0470    0.9100 C.3   176  GLU176      0.0388
     92  CG        14.9850   47.8820    0.4400 C.3   176  GLU176      0.1160
     93  CD        14.8900   47.6030   -1.0530 C.2   176  GLU176      0.3649
     94  OE1       14.5210   48.5180   -1.8220 O.co2 176  GLU176     -0.2457
     95  OE2       15.1930   46.4600   -1.4590 O.co2 176  GLU176     -0.2457
     96  N         24.2900   40.2240   -0.5440 N.3   227  SER227     -0.1202
     97  CA        24.2910   41.6200   -0.9890 C.3   227  SER227      0.2020
     98  C         23.0860   42.3780   -0.4420 C.2   227  SER227      0.2618
     99  O         23.2390   43.4060    0.2170 O.2   227  SER227     -0.2717
    100  CB        24.3080   41.7080   -2.5160 C.3   227  SER227      0.2103
    101  OG        25.4620   41.0880   -3.0500 O.3   227  SER227     -0.2182
    102  N         21.8890   41.8680   -0.7180 N.am  228  ALA228     -0.1979
    103  CA        20.6600   42.5120   -0.2610 C.3   228  ALA228      0.1597
    104  C         20.6560   42.6870    1.2580 C.2   228  ALA228      0.2287
    105  O         19.8930   43.4930    1.8010 O.2   228  ALA228     -0.2864
    106  CB        19.4460   41.7250   -0.7170 C.3   228  ALA228      0.0319
    107  N         22.7620   44.2310    2.9340 N.3   230  ASN230     -0.1225
    108  CA        23.0360   45.6450    3.1770 C.3   230  ASN230      0.1785
    109  C         21.7760   46.4910    3.2750 C.2   230  ASN230      0.2597
    110  O         21.4240   46.9630    4.3540 O.2   230  ASN230     -0.2718
    111  CB        23.9670   46.2200    2.1070 C.3   230  ASN230      0.1169
    112  CG        25.3920   46.3800    2.6000 C.2   230  ASN230      0.2627
    113  OD1       25.6250   46.7250    3.7610 O.2   230  ASN230     -0.2716
    114  ND2       26.3550   46.1420    1.7150 N.am  230  ASN230     -0.0877
    115  N         21.0980   46.6800    2.1470 N.am  231  VAL231     -0.1966
    116  CA        19.9290   47.5510    2.1070 C.3   231  VAL231      0.1727
    117  C         18.8160   47.0440    3.0150 C.2   231  VAL231      0.2616
    118  O         18.2390   47.8040    3.7960 O.2   231  VAL231     -0.2715
    119  CB        19.3680   47.7050    0.6800 C.3   231  VAL231      0.0290
    120  CG1       18.4860   46.5150    0.3240 C.3   231  VAL231      0.0023
    121  CG2       18.5710   48.9890    0.5700 C.3   231  VAL231      0.0023
    122  N         18.5160   45.7550    2.9190 N.am  232  ARG232     -0.1977
    123  CA        17.4110   45.1940    3.6820 C.3   232  ARG232      0.1597
    124  C         17.6380   45.2960    5.1930 C.2   232  ARG232      0.2287
    125  O         16.7900   45.8170    5.9150 O.2   232  ARG232     -0.2864
    126  CB        17.1260   43.7530    3.2430 C.3   232  ARG232      0.0334
    127  CG        16.6540   43.6380    1.7840 C.3   232  ARG232      0.0492
    128  CD        15.5210   44.6260    1.5120 C.3   232  ARG232      0.2205
    129  NE        14.8570   44.4860    0.2090 N.pl3 232  ARG232     -0.0865
    130  CZ        14.5630   43.3380   -0.3990 C.cat 232  ARG232      0.5346
    131  NH1       14.8580   42.1770    0.1670 N.pl3 232  ARG232      0.1354
    132  NH2       13.9490   43.3530   -1.5770 N.pl3 232  ARG232      0.1354
    133  N         34.4890   43.7850   -0.0460 N.3   287  LYS287     -0.1245
    134  CA        33.0630   43.9740    0.1910 C.3   287  LYS287      0.1561
    135  C         32.8250   44.4220    1.6310 C.2   287  LYS287      0.2260
    136  O         33.4200   43.8750    2.5580 O.2   287  LYS287     -0.2867
    137  CB        32.3130   42.6700   -0.0810 C.3   287  LYS287      0.0271
    138  CG        30.8270   42.7190    0.2330 C.3   287  LYS287      0.0035
    139  CD        30.0140   43.1960   -0.9650 C.3   287  LYS287      0.0206
    140  CE        28.5180   43.0370   -0.7190 C.3   287  LYS287      0.1093
    141  NZ        27.9890   44.0780    0.2140 N.3   287  LYS287     -0.1314
    142  N         11.9580   36.4590   -3.2980 N.3   376  ASN376     -0.1225
    143  CA        12.6810   37.6620   -3.7230 C.3   376  ASN376      0.1785
    144  C         14.1350   37.3560   -4.0950 C.2   376  ASN376      0.2597
    145  O         14.3940   36.7020   -5.1040 O.2   376  ASN376     -0.2718
    146  CB        12.5970   38.7720   -2.6680 C.3   376  ASN376      0.1169
    147  CG        12.9420   40.1440   -3.2330 C.2   376  ASN376      0.2627
    148  OD1       12.9290   41.1460   -2.5160 O.2   376  ASN376     -0.2716
    149  ND2       13.2520   40.1950   -4.5230 N.am  376  ASN376     -0.0877
    150  N         15.0800   37.8130   -3.2770 N.am  377  HIS377     -0.1975
    151  CA        16.4970   37.6140   -3.5740 C.3   377  HIS377      0.1656
    152  C         17.0270   36.2460   -3.1420 C.2   377  HIS377      0.2291
    153  O         18.1490   35.8740   -3.4840 O.2   377  HIS377     -0.2864
    154  CB        17.3440   38.7250   -2.9540 C.3   377  HIS377      0.0771
    155  CG        17.1070   40.0710   -3.5610 C.ar  377  HIS377      0.0820
    156  ND1       17.4570   40.3730   -4.8590 N.ar  377  HIS377     -0.2267
    157  CD2       16.5630   41.1990   -3.0470 C.ar  377  HIS377      0.1154
    158  CE1       17.1330   41.6260   -5.1210 C.ar  377  HIS377      0.1986
    159  NE2       16.5900   42.1500   -4.0370 N.ar  377  HIS377     -0.2212
    160  N         23.9300   37.3930  -10.7130 N.3   400  TYR400     -0.1241
    161  CA        22.7380   38.2270  -10.6500 C.3   400  TYR400      0.1605
    162  C         22.5700   39.0510  -11.9220 C.2   400  TYR400      0.2264
    163  O         21.4970   39.0680  -12.5250 O.2   400  TYR400     -0.2867
    164  CB        22.8230   39.1440   -9.4290 C.3   400  TYR400      0.0534
    165  CG        21.5930   39.9850   -9.1730 C.ar  400  TYR400     -0.0201
    166  CD1       20.3210   39.4340   -9.2430 C.ar  400  TYR400     -0.0009
    167  CD2       21.7090   41.3260   -8.8330 C.ar  400  TYR400     -0.0009
    168  CE1       19.1970   40.2000   -8.9970 C.ar  400  TYR400      0.0417
    169  CE2       20.5920   42.0990   -8.5860 C.ar  400  TYR400      0.0417
    170  CZ        19.3390   41.5310   -8.6690 C.ar  400  TYR400      0.1957
    171  OH        18.2260   42.2980   -8.4220 O.3   400  TYR400     -0.2866
    172  N         17.3320   41.5650  -12.7080 N.3   407  TYR407     -0.1227
    173  CA        16.4510   40.7140  -11.9140 C.3   407  TYR407      0.1736
    174  C         15.5030   39.8720  -12.7770 C.2   407  TYR407      0.2595
    175  O         15.2780   38.6910  -12.4970 O.2   407  TYR407     -0.2718
    176  CB        15.6540   41.5870  -10.9390 C.3   407  TYR407      0.0548
    177  CG        14.8380   40.8330   -9.9140 C.ar  407  TYR407     -0.0200
    178  CD1       15.4110   40.3930   -8.7290 C.ar  407  TYR407     -0.0009
    179  CD2       13.4890   40.5810  -10.1240 C.ar  407  TYR407     -0.0009
    180  CE1       14.6660   39.7130   -7.7890 C.ar  407  TYR407      0.0417
    181  CE2       12.7350   39.9040   -9.1890 C.ar  407  TYR407      0.0417
    182  CZ        13.3280   39.4730   -8.0230 C.ar  407  TYR407      0.1957
    183  OH        12.5770   38.8000   -7.0860 O.3   407  TYR407     -0.2866
    184  N         14.9580   40.4870  -13.8260 N.am  408  ASN408     -0.1974
    185  CA        13.9700   39.8390  -14.6890 C.3   408  ASN408      0.1688
    186  C         14.5430   38.9520  -15.8010 C.2   408  ASN408      0.2292
    187  O         13.7870   38.3640  -16.5740 O.2   408  ASN408     -0.2864
    188  CB        13.0560   40.8930  -15.3160 C.3   408  ASN408      0.1181
    189  CG        12.2580   41.6650  -14.2840 C.2   408  ASN408      0.2629
    190  OD1       12.3520   41.4110  -13.0800 O.2   408  ASN408     -0.2716
    191  ND2       11.4460   42.6110  -14.7570 N.am  408  ASN408     -0.0877
    192  N          8.8940   39.1860  -10.4870 N.3   440  GLY440     -0.1210
    193  CA         9.3390   40.4330  -11.0960 C.3   440  GLY440      0.1956
    194  C          8.2710   41.5060  -11.1500 C.2   440  GLY440      0.2612
    195  O          7.1010   41.2520  -10.8600 O.2   440  GLY440     -0.2717
    196  N          8.6800   42.7150  -11.5240 N.am  441  GLY441     -0.1942
    197  CA         7.7610   43.8400  -11.6330 C.3   441  GLY441      0.2014
    198  C          7.3820   44.1380  -13.0720 C.2   441  GLY441      0.2639
    199  O          6.4110   44.8530  -13.3310 O.2   441  GLY441     -0.2714
    200  N          8.1530   43.5940  -14.0100 N.am  442  SER442     -0.1949
    201  CA         7.8710   43.7680  -15.4300 C.3   442  SER442      0.1924
    202  C          8.4540   42.6250  -16.2540 C.2   442  SER442      0.2314
    203  O          9.1870   41.7800  -15.7350 O.2   442  SER442     -0.2863
    204  CB         8.4200   45.1040  -15.9340 C.3   442  SER442      0.2116
    205  OG         9.8360   45.0880  -15.9760 O.3   442  SER442     -0.2180
    206  N          6.0060   34.4030   -6.2470 N.3   462  ILE462     -0.1231
    207  CA         5.9860   35.7550   -5.6980 C.3   462  ILE462      0.1692
    208  C          5.8350   35.6460   -4.1840 C.2   462  ILE462      0.2591
    209  O          5.0680   34.8200   -3.6930 O.2   462  ILE462     -0.2718
    210  CB         4.8420   36.6140   -6.3260 C.3   462  ILE462      0.0266
    211  CG1        5.1740   38.1190   -6.3200 C.3   462  ILE462      0.0019
    212  CG2        3.5100   36.3490   -5.6230 C.3   462  ILE462      0.0020
    213  CD1        6.6300   38.4390   -6.0650 C.3   462  ILE462      0.0001
    214  N          6.5820   36.4650   -3.4510 N.am  463  ALA463     -0.1980
    215  CA         6.5800   36.3880   -1.9880 C.3   463  ALA463      0.1597
    216  C          5.2190   36.7470   -1.3990 C.2   463  ALA463      0.2287
    217  O          4.4480   37.4830   -2.0160 O.2   463  ALA463     -0.2864
    218  CB         7.6660   37.2810   -1.4010 C.3   463  ALA463      0.0319
@<TRIPOS>BOND
     1   187   186    2
     2   202   203    2
     3   202   201    1
     4   205   204    1
     5   204   201    1
     6   186   185    1
     7   201   200    1
     8   188   185    1
     9   188   189    1
    10   191   189   am
    11   185   184    1
    12   189   190    2
    13   200   198   am
    14   184   174   am
    15   199   198    2
    16   198   197    1
    17   174   175    2
    18   174   173    1
    19   172   173    1
    20   163   162    2
    21    31    32    1
    22   162   161    1
    23   173   176    1
    24   197   196    1
    25   196   194   am
    26   194   193    1
    27   194   195    2
    28   193   192    1
    29    32    33    1
    30     1     2    1
    31   176   177    1
    32     5     6    1
    33     5     2    1
    34   160   161    1
    35   161   164    1
    36     6     8   ar
    37     6     7   ar
    38     2     3    1
    39   179   177   ar
    40   179   181   ar
    41   177   178   ar
    42    33    34    2
    43    33    35   am
    44   164   165    1
    45   166   165   ar
    46   166   168   ar
    47    29    28    1
    48   181   182   ar
    49   165   167   ar
    50   168   170   ar
    51    35    36    1
    52   167   169   ar
    53     3     4    2
    54     3     9   am
    55   178   180   ar
    56    28    30    1
    57    28    27    2
    58   170   169   ar
    59   170   171    1
    60    26    27    1
    61    26    25    1
    62   182   180   ar
    63   182   183    1
    64     9    10    1
    65    24    25    1
    66    24    21    1
    67    36    37    1
    68    36    39    1
    69    42    40   ar
    70    18    16   ar
    71    18    19   ar
    72    16    14   ar
    73    37    38    2
    74    20    21    1
    75    20    11   am
    76    40    39    1
    77    40    41   ar
    78    22    21    1
    79    22    23    2
    80    10    11    1
    81    10    13    1
    82    19    17   ar
    83   210   211    1
    84   210   207    1
    85   210   212    1
    86   211   213    1
    87   206   207    1
    88    11    12    2
    89    14    13    1
    90    14    15   ar
    91   207   208    1
    92    17    15   ar
    93   158   156   ar
    94   158   159   ar
    95   145   144    2
    96   156   155   ar
    97    52    51    1
    98   149   147   am
    99   208   209    2
   100   208   214   am
   101   144   143    1
   102   144   150   am
   103   159   157   ar
   104    51    53    1
   105    51    50    2
   106   143   142    1
   107   143   146    1
   108    61    59   ar
   109    43    44    1
   110   151   150    1
   111   151   152    1
   112   151   154    1
   113   155   157   ar
   114   155   154    1
   115   153   152    2
   116   214   215    1
   117    49    50    1
   118    49    48    1
   119   147   146    1
   120   147   148    2
   121    86    83    1
   122    47    48    1
   123    47    44    1
   124   101   100    1
   125    70    69    1
   126    69    68    1
   127    44    45    1
   128    45    46    2
   129   100    97    1
   130    59    58    1
   131    59    60   ar
   132    82    83    1
   133    82    80   am
   134    54    55    1
   135   217   216    2
   136    55    58    1
   137    55    56    1
   138   215   218    1
   139   215   216    1
   140    83    84    1
   141    94    93   ar
   142    79    80    1
   143    79    78    1
   144   132   130    1
   145    95    93   ar
   146    68    67    1
   147    67    66    1
   148    80    81    2
   149    93    92    1
   150    97    96    1
   151    97    98    1
   152   139   140    1
   153   139   138    1
   154    56    62   am
   155    56    57    2
   156   140   141    1
   157   102    98   am
   158   102   103    1
   159   106   103    1
   160    78    73   am
   161    84    85    2
   162    98    99    2
   163   130   131    1
   164   130   129    2
   165    62    63    1
   166   103   104    1
   167    77    75    1
   168   137   134    1
   169   137   138    1
   170   133   134    1
   171    66    63    1
   172   134   135    1
   173   129   128    1
   174   120   119    1
   175    73    74    2
   176    73    72    1
   177    92    91    1
   178    75    76    1
   179    75    72    1
   180   121   119    1
   181    63    64    1
   182   119   116    1
   183    91    88    1
   184   104   105    2
   185    72    71    1
   186   128   127    1
   187   135   136    2
   188   114   112   am
   189   127   126    1
   190    64    65    2
   191   116   115    1
   192   116   117    1
   193   111   112    1
   194   111   108    1
   195   115   109   am
   196    88    87    1
   197    88    89    1
   198   112   113    2
   199   122   117   am
   200   122   123    1
   201   107   108    1
   202   117   118    2
   203    89    90    2
   204   108   109    1
   205   126   123    1
   206   109   110    2
   207   123   124    1
   208   124   125    2
