@<TRIPOS>MOLECULE
tmp/3e7oB00.pdb
 135 124 0 0 0
SMALL
GASTEIGER

@<TRIPOS>ATOM
      1  N        -45.8980  -69.2860   47.2780 N.3    25  ILE25      -0.1231
      2  CA       -45.7790  -68.1550   48.2100 C.3    25  ILE25       0.1696
      3  C        -44.6300  -67.2000   47.8570 C.2    25  ILE25       0.2632
      4  O        -44.3370  -66.2680   48.6190 O.2    25  ILE25      -0.2714
      5  CB       -45.6130  -68.6130   49.6880 C.3    25  ILE25       0.0266
      6  CG1      -44.3900  -69.5200   49.8430 C.3    25  ILE25       0.0019
      7  CG2      -46.9000  -69.2670   50.2110 C.3    25  ILE25       0.0020
      8  CD1      -43.9150  -69.6940   51.2740 C.3    25  ILE25       0.0001
      9  N        -43.9710  -67.4360   46.7230 N.am   26  GLY26      -0.1718
     10  CA       -42.8660  -66.5750   46.3000 C.2    26  GLY26       0.1480
     11  C        -41.9860  -67.1060   45.1820 C.2    26  GLY26       0.2821
     12  O        -42.2140  -68.2020   44.6570 O.2    26  GLY26      -0.2669
     13  N        -40.9800  -66.3030   44.8270 N.am   27  SER27      -0.1915
     14  CA       -40.0130  -66.6140   43.7670 C.3    27  SER27       0.1927
     15  C        -38.7440  -65.7710   43.9310 C.2    27  SER27       0.2314
     16  O        -37.6520  -66.3040   44.1420 O.2    27  SER27      -0.2863
     17  CB       -40.6310  -66.3770   42.3820 C.3    27  SER27       0.2116
     18  OG       -39.6380  -66.0900   41.4070 O.3    27  SER27      -0.2180
     19  N        -34.7780  -70.0140   43.6310 N.3    28  GLY28      -0.1225
     20  CA       -35.7520  -71.0240   44.0410 C.3    28  GLY28       0.1811
     21  C        -37.1980  -70.5600   43.9810 C.2    28  GLY28       0.2280
     22  O        -37.4950  -69.3840   44.2290 O.2    28  GLY28      -0.2866
     23  N        -41.0020  -71.2370   45.6280 N.3    30  VAL30      -0.1245
     24  CA       -41.4490  -71.6450   46.9660 C.3    30  VAL30       0.1561
     25  C        -42.9640  -71.8330   47.0540 C.2    30  VAL30       0.2260
     26  O        -43.7310  -70.9680   46.6330 O.2    30  VAL30      -0.2867
     27  CB       -41.0050  -70.6240   48.0610 C.3    30  VAL30       0.0252
     28  CG1      -41.0120  -71.2760   49.4500 C.3    30  VAL30       0.0019
     29  CG2      -39.6190  -70.0620   47.7600 C.3    30  VAL30       0.0019
     30  N        -43.0240  -74.6970   54.2190 N.3    43  ALA43      -0.1245
     31  CA       -42.5830  -74.0690   52.9770 C.3    43  ALA43       0.1562
     32  C        -41.6790  -75.0400   52.2190 C.2    43  ALA43       0.2260
     33  O        -40.7390  -75.6030   52.7940 O.2    43  ALA43      -0.2867
     34  CB       -41.8430  -72.7700   53.2730 C.3    43  ALA43       0.0290
     35  N        -39.1940  -75.3400   49.0330 N.3    45  LYS45      -0.1245
     36  CA       -38.3960  -74.6090   48.0510 C.3    45  LYS45       0.1561
     37  C        -37.7090  -75.5640   47.0730 C.2    45  LYS45       0.2260
     38  O        -36.9380  -76.4400   47.4770 O.2    45  LYS45      -0.2867
     39  CB       -37.3590  -73.7280   48.7570 C.3    45  LYS45       0.0271
     40  CG       -36.5730  -72.8050   47.8300 C.3    45  LYS45       0.0035
     41  CD       -35.6530  -71.8850   48.6200 C.3    45  LYS45       0.0206
     42  CE       -34.6800  -71.1600   47.7110 C.3    45  LYS45       0.1093
     43  NZ       -33.6530  -70.4290   48.5080 N.3    45  LYS45      -0.1314
     44  N        -33.9940  -68.8710   59.7540 N.3    76  ILE76      -0.1245
     45  CA       -34.9970  -69.8560   59.3030 C.3    76  ILE76       0.1561
     46  C        -34.5680  -71.3180   59.5330 C.2    76  ILE76       0.2260
     47  O        -33.4090  -71.6770   59.3030 O.2    76  ILE76      -0.2867
     48  CB       -35.4040  -69.6110   57.8160 C.3    76  ILE76       0.0252
     49  CG1      -36.7180  -70.3260   57.4590 C.3    76  ILE76       0.0019
     50  CG2      -34.2720  -69.9850   56.8680 C.3    76  ILE76       0.0019
     51  CD1      -37.9630  -69.5590   57.8590 C.3    76  ILE76       0.0001
     52  N        -38.7330  -75.9950   54.7540 N.3    98  MET98      -0.1230
     53  CA       -38.4820  -75.0610   55.8450 C.3    98  MET98       0.1702
     54  C        -39.7600  -74.7010   56.5810 C.2    98  MET98       0.2592
     55  O        -40.8700  -74.8930   56.0650 O.2    98  MET98      -0.2718
     56  CB       -37.8330  -73.7760   55.3090 C.3    98  MET98       0.0401
     57  CG       -36.3730  -73.9470   54.9030 C.3    98  MET98       0.0596
     58  SD       -35.8220  -72.6560   53.7770 S.3    98  MET98      -0.1393
     59  CE       -36.7680  -73.0470   52.3060 C.3    98  MET98       0.0692
     60  N        -39.6010  -74.1590   57.7830 N.am   99  GLU99      -0.1966
     61  CA       -40.7530  -73.7050   58.5590 C.3    99  GLU99       0.1733
     62  C        -41.4920  -72.6010   57.8000 C.2    99  GLU99       0.2616
     63  O        -40.8720  -71.7470   57.1450 O.2    99  GLU99      -0.2715
     64  CB       -40.3460  -73.2540   59.9710 C.3    99  GLU99       0.0429
     65  CG       -39.4310  -72.0330   60.0110 C.3    99  GLU99       0.1163
     66  CD       -39.0970  -71.5730   61.4220 C.2    99  GLU99       0.3649
     67  OE1      -37.8940  -71.3810   61.7060 O.co2  99  GLU99      -0.2457
     68  OE2      -40.0280  -71.4010   62.2440 O.co2  99  GLU99      -0.2457
     69  N        -42.8190  -72.6500   57.8560 N.am  100  LEU100     -0.1963
     70  CA       -43.6320  -71.6390   57.1950 C.3   100  LEU100      0.1728
     71  C        -43.9380  -70.4640   58.1280 C.2   100  LEU100      0.2616
     72  O        -44.4410  -70.6620   59.2350 O.2   100  LEU100     -0.2715
     73  CB       -44.9350  -72.2520   56.6530 C.3   100  LEU100      0.0311
     74  CG       -45.8420  -71.2790   55.8910 C.3   100  LEU100      0.0022
     75  CD1      -45.2880  -70.9730   54.5160 C.3   100  LEU100      0.0001
     76  CD2      -47.2480  -71.8300   55.7680 C.3   100  LEU100      0.0001
     77  N        -43.6380  -69.2480   57.6680 N.am  101  MET101     -0.1963
     78  CA       -43.9500  -68.0230   58.4110 C.3   101  MET101      0.1736
     79  C        -45.2280  -67.3570   57.8740 C.2   101  MET101      0.2616
     80  O        -45.8640  -67.8780   56.9480 O.2   101  MET101     -0.2715
     81  CB       -42.7670  -67.0510   58.3610 C.3   101  MET101      0.0427
     82  CG       -41.4110  -67.6600   58.7530 C.3   101  MET101      0.0599
     83  SD       -41.2830  -68.1020   60.4830 S.3   101  MET101     -0.1393
     84  CE       -41.0080  -66.5070   61.2600 C.3   101  MET101      0.0692
     85  N        -45.5990  -66.2100   58.4490 N.am  102  ASP102     -0.1957
     86  CA       -46.8680  -65.5320   58.1170 C.3   102  ASP102      0.1840
     87  C        -46.7190  -64.4420   57.0530 C.2   102  ASP102      0.2622
     88  O        -47.6790  -64.1430   56.3210 O.2   102  ASP102     -0.2715
     89  CB       -47.5160  -64.9390   59.3880 C.3   102  ASP102      0.1450
     90  CG       -47.9120  -66.0180   60.4160 C.2   102  ASP102      0.3671
     91  OD1      -48.2610  -67.1410   60.0020 O.co2 102  ASP102     -0.2456
     92  OD2      -47.8750  -65.7530   61.6360 O.co2 102  ASP102     -0.2456
     93  N        -45.5240  -63.8500   56.9720 N.am  103  ALA103     -0.1963
     94  CA       -45.2730  -62.6950   56.0930 C.3   103  ALA103      0.1728
     95  C        -43.7970  -62.3240   56.0220 C.2   103  ALA103      0.2616
     96  O        -43.0080  -62.6960   56.8910 O.2   103  ALA103     -0.2715
     97  CB       -46.0800  -61.4710   56.5510 C.3   103  ALA103      0.0334
     98  N        -43.4250  -61.5850   54.9790 N.am  104  ASN104     -0.1972
     99  CA       -42.1100  -60.9570   54.9680 C.3   104  ASN104      0.1688
    100  C        -42.2220  -59.4900   55.3710 C.2   104  ASN104      0.2292
    101  O        -43.3290  -58.9480   55.4890 O.2   104  ASN104     -0.2864
    102  CB       -41.3500  -61.1880   53.6450 C.3   104  ASN104      0.1181
    103  CG       -41.9750  -60.4710   52.4620 C.2   104  ASN104      0.2629
    104  OD1      -42.4560  -59.3420   52.5740 O.2   104  ASN104     -0.2716
    105  ND2      -41.9540  -61.1260   51.3130 N.am  104  ASN104     -0.0877
    106  N        -44.3720  -56.5250   53.9160 N.3   107  GLN107     -0.1245
    107  CA       -45.7770  -56.4980   54.2900 C.3   107  GLN107      0.1566
    108  C        -45.9710  -55.7490   55.6170 C.2   107  GLN107      0.2260
    109  O        -46.9710  -55.0550   55.7960 O.2   107  GLN107     -0.2867
    110  CB       -46.3440  -57.9350   54.3110 C.3   107  GLN107      0.0367
    111  CG       -45.9540  -58.7660   53.0510 C.3   107  GLN107      0.0905
    112  CD       -46.3810  -60.2380   53.1030 C.2   107  GLN107      0.2608
    113  OE1      -45.5490  -61.1540   52.9910 O.2   107  GLN107     -0.2717
    114  NE2      -47.6890  -60.4710   53.2520 N.am  107  GLN107     -0.0878
    115  N        -37.3730  -58.1830   51.9490 N.3   145  SER145     -0.1217
    116  CA       -37.9380  -59.3920   51.3300 C.3   145  SER145      0.1889
    117  C        -37.2780  -60.7050   51.7410 C.2   145  SER145      0.2288
    118  O        -37.8950  -61.7640   51.6240 O.2   145  SER145     -0.2866
    119  CB       -37.9850  -59.2620   49.7990 C.3   145  SER145      0.2089
    120  OG       -36.6750  -59.1430   49.2770 O.3   145  SER145     -0.2183
    121  N        -38.4200  -62.6800   57.3760 N.3   148  VAL148     -0.1245
    122  CA       -39.8070  -63.1150   57.5780 C.3   148  VAL148      0.1561
    123  C        -40.2640  -63.0290   59.0330 C.2   148  VAL148      0.2260
    124  O        -39.4500  -63.1130   59.9640 O.2   148  VAL148     -0.2867
    125  CB       -40.0700  -64.5470   57.0180 C.3   148  VAL148      0.0252
    126  CG1      -40.1690  -64.5110   55.4910 C.3   148  VAL148      0.0019
    127  CG2      -39.0130  -65.5540   57.5090 C.3   148  VAL148      0.0019
    128  N        -33.8630  -65.1910   56.2440 N.3   158  LEU158     -0.1245
    129  CA       -34.1780  -66.2540   55.2920 C.3   158  LEU158      0.1561
    130  C        -32.9600  -66.9220   54.6520 C.2   158  LEU158      0.2260
    131  O        -32.9540  -68.1340   54.4220 O.2   158  LEU158     -0.2867
    132  CB       -35.0800  -65.6880   54.2000 C.3   158  LEU158      0.0270
    133  CG       -36.3280  -66.4540   53.7820 C.3   158  LEU158      0.0019
    134  CD1      -37.0350  -67.0910   54.9800 C.3   158  LEU158      0.0001
    135  CD2      -37.2550  -65.5070   53.0250 C.3   158  LEU158      0.0001
@<TRIPOS>BOND
     1    18    17    1
     2    17    14    1
     3    19    20    1
     4    14    15    1
     5    14    13    1
     6    15    16    2
     7    21    20    1
     8    21    22    2
     9    12    11    2
    10    13    11   am
    11    11    10    1
    12    23    24    1
    13    10     9    2
    14    26    25    2
    15     9     3    1
    16    24    25    1
    17    24    27    1
    18    37    38    2
    19    37    36    1
    20     1     2    1
    21    42    43    1
    22    42    41    1
    23    29    27    1
    24    40    41    1
    25    40    39    1
    26     3     2    1
    27     3     4    2
    28    36    39    1
    29    36    35    1
    30    27    28    1
    31     2     5    1
    32   120   119    1
    33     5     6    1
    34     5     7    1
    35   119   116    1
    36     6     8    1
    37   105   103   am
    38   116   117    1
    39   116   115    1
    40   118   117    2
    41    32    33    2
    42    32    31    1
    43    59    58    1
    44   103   104    2
    45   103   102    1
    46    31    34    1
    47    31    30    1
    48   113   112    2
    49   135   133    1
    50   111   112    1
    51   111   110    1
    52   112   114   am
    53   102    99    1
    54    58    57    1
    55   133   132    1
    56   133   134    1
    57   106   107    1
    58   132   129    1
    59   107   110    1
    60   107   108    1
    61   131   130    2
    62    75    74    1
    63   130   129    1
    64    52    53    1
    65    57    56    1
    66    99    98    1
    67    99   100    1
    68    98    95   am
    69   129   128    1
    70    56    53    1
    71   100   101    2
    72   126   125    1
    73   108   109    2
    74    76    74    1
    75    53    54    1
    76    74    73    1
    77    95    94    1
    78    95    96    2
    79    55    54    2
    80    94    97    1
    81    94    93    1
    82    88    87    2
    83    54    60   am
    84    73    70    1
    85    50    48    1
    86    80    79    2
    87    93    87   am
    88   125   127    1
    89   125   122    1
    90    87    86    1
    91    63    62    2
    92    70    69    1
    93    70    71    1
    94   121   122    1
    95    49    48    1
    96    49    51    1
    97   122   123    1
    98    77    71   am
    99    77    78    1
   100    60    61    1
   101    62    69   am
   102    62    61    1
   103    48    45    1
   104    79    78    1
   105    79    85   am
   106    86    85    1
   107    86    89    1
   108    71    72    2
   109    81    78    1
   110    81    82    1
   111    61    64    1
   112    82    83    1
   113   123   124    2
   114    45    46    1
   115    45    44    1
   116    47    46    2
   117    89    90    1
   118    64    65    1
   119    91    90   ar
   120    65    66    1
   121    90    92   ar
   122    83    84    1
   123    66    67   ar
   124    66    68   ar
