@<TRIPOS>MOLECULE
tmp/3e7oA00.pdb
 143 131 0 0 0
SMALL
GASTEIGER

@<TRIPOS>ATOM
      1  N        -32.8750  -31.1060   30.3030 N.3    24  ILE24      -0.1231
      2  CA       -32.9080  -32.2800   29.4240 C.3    24  ILE24       0.1692
      3  C        -31.6900  -33.1870   29.6210 C.2    24  ILE24       0.2593
      4  O        -31.6940  -34.3400   29.1800 O.2    24  ILE24      -0.2718
      5  CB       -33.0370  -31.8920   27.9250 C.3    24  ILE24       0.0266
      6  CG1      -31.9570  -30.8820   27.5210 C.3    24  ILE24       0.0019
      7  CG2      -34.4450  -31.3640   27.6110 C.3    24  ILE24       0.0020
      8  CD1      -31.7710  -30.7320   26.0180 C.3    24  ILE24       0.0001
      9  N        -30.6580  -32.6610   30.2840 N.am   25  GLY25      -0.1942
     10  CA       -29.3970  -33.3800   30.4750 C.3    25  GLY25       0.2014
     11  C        -28.5950  -32.8940   31.6670 C.2    25  GLY25       0.2639
     12  O        -28.5770  -31.6990   31.9730 O.2    25  GLY25      -0.2714
     13  N        -27.9260  -33.8310   32.3360 N.am   26  SER26      -0.1949
     14  CA       -27.1470  -33.5460   33.5440 C.3    26  SER26       0.1924
     15  C        -25.6870  -33.9510   33.3610 C.2    26  SER26       0.2314
     16  O        -25.2140  -34.1350   32.2280 O.2    26  SER26      -0.2863
     17  CB       -27.7390  -34.2880   34.7540 C.3    26  SER26       0.2116
     18  OG       -29.1440  -34.0910   34.8670 O.3    26  SER26      -0.2180
     19  N        -21.1470  -29.9290   32.3390 N.3    30  GLY30      -0.1225
     20  CA       -22.2840  -29.2040   31.7780 C.3    30  GLY30       0.1811
     21  C        -23.6580  -29.6810   32.2110 C.2    30  GLY30       0.2280
     22  O        -23.9180  -30.8850   32.3030 O.2    30  GLY30      -0.2866
     23  N        -27.7080  -29.0710   31.0490 N.3    32  VAL32      -0.1245
     24  CA       -28.3250  -28.6930   29.7770 C.3    32  VAL32       0.1561
     25  C        -29.8280  -28.5180   29.8980 C.2    32  VAL32       0.2260
     26  O        -30.5180  -29.3590   30.4780 O.2    32  VAL32      -0.2867
     27  CB       -28.0150  -29.7170   28.6480 C.3    32  VAL32       0.0252
     28  CG1      -28.4970  -29.1920   27.2940 C.3    32  VAL32       0.0019
     29  CG2      -26.5300  -30.0200   28.5910 C.3    32  VAL32       0.0019
     30  N        -36.8850  -23.7700   19.5010 N.3    43  ASN43      -0.1240
     31  CA       -36.3440  -24.3230   20.7320 C.3    43  ASN43       0.1653
     32  C        -34.8430  -24.6400   20.5160 C.2    43  ASN43       0.2266
     33  O        -34.4500  -25.1440   19.4660 O.2    43  ASN43      -0.2867
     34  CB       -37.1590  -25.5530   21.1860 C.3    43  ASN43       0.1155
     35  CG       -38.5860  -25.2210   21.3970 C.2    43  ASN43       0.2627
     36  OD1      -38.8990  -24.3100   22.1330 O.2    43  ASN43      -0.2716
     37  ND2      -39.4800  -25.9230   20.7770 N.am   43  ASN43      -0.0877
     38  N        -30.8570  -25.6940   22.7770 N.3    45  ALA45      -0.1245
     39  CA       -30.2490  -26.3030   23.9600 C.3    45  ALA45       0.1562
     40  C        -29.2460  -25.3370   24.5900 C.2    45  ALA45       0.2260
     41  O        -28.3370  -24.8360   23.9250 O.2    45  ALA45      -0.2867
     42  CB       -29.5670  -27.6250   23.6120 C.3    45  ALA45       0.0290
     43  N        -26.4200  -24.9400   27.4130 N.3    47  LYS47      -0.1245
     44  CA       -25.4950  -25.6680   28.2750 C.3    47  LYS47       0.1561
     45  C        -24.6370  -24.6990   29.0900 C.2    47  LYS47       0.2260
     46  O        -23.9680  -23.8200   28.5380 O.2    47  LYS47      -0.2867
     47  CB       -24.6160  -26.6210   27.4500 C.3    47  LYS47       0.0271
     48  CG       -23.5160  -27.3500   28.2490 C.3    47  LYS47       0.0035
     49  CD       -22.6500  -28.2140   27.3240 C.3    47  LYS47       0.0206
     50  CE       -21.5160  -28.9090   28.0770 C.3    47  LYS47       0.1093
     51  NZ       -20.6880  -29.7740   27.1620 N.3    47  LYS47      -0.1314
     52  N        -22.5870  -31.6840   16.2930 N.3    78  ILE78      -0.1245
     53  CA       -23.5090  -30.6760   16.8560 C.3    78  ILE78       0.1561
     54  C        -23.0910  -29.2420   16.5240 C.2    78  ILE78       0.2260
     55  O        -21.9170  -28.8890   16.6760 O.2    78  ILE78      -0.2867
     56  CB       -23.7520  -30.8780   18.3930 C.3    78  ILE78       0.0252
     57  CG1      -25.0360  -30.1670   18.8490 C.3    78  ILE78       0.0019
     58  CG2      -22.5340  -30.4710   19.2290 C.3    78  ILE78       0.0019
     59  CD1      -26.3340  -30.8770   18.3940 C.3    78  ILE78       0.0001
     60  N        -26.8210  -24.4530   21.5420 N.3   100  MET100     -0.1230
     61  CA       -26.7020  -25.4060   20.4340 C.3   100  MET100      0.1702
     62  C        -28.0590  -25.7610   19.8480 C.2   100  MET100      0.2592
     63  O        -29.0910  -25.5040   20.4770 O.2   100  MET100     -0.2718
     64  CB       -26.0090  -26.6800   20.9190 C.3   100  MET100      0.0401
     65  CG       -24.5600  -26.4510   21.3360 C.3   100  MET100      0.0596
     66  SD       -23.8530  -27.8470   22.2050 S.3   100  MET100     -0.1393
     67  CE       -24.3560  -27.4900   23.8880 C.3   100  MET100      0.0692
     68  N        -28.0640  -26.3510   18.6490 N.am  101  GLU101     -0.1966
     69  CA       -29.2990  -26.8730   18.0690 C.3   101  GLU101      0.1733
     70  C        -29.9000  -27.9630   18.9610 C.2   101  GLU101      0.2616
     71  O        -29.1830  -28.8090   19.5100 O.2   101  GLU101     -0.2715
     72  CB       -29.0870  -27.3780   16.6310 C.3   101  GLU101      0.0429
     73  CG       -28.1970  -28.6130   16.5220 C.3   101  GLU101      0.1163
     74  CD       -27.7410  -28.9110   15.1020 C.2   101  GLU101      0.3649
     75  OE1      -26.5380  -29.2300   14.9240 O.co2 101  GLU101     -0.2457
     76  OE2      -28.5750  -28.8280   14.1710 O.co2 101  GLU101     -0.2457
     77  N        -31.2190  -27.9230   19.1140 N.am  102  LEU102     -0.1963
     78  CA       -31.9310  -28.9100   19.9130 C.3   102  LEU102      0.1728
     79  C        -32.3430  -30.0990   19.0480 C.2   102  LEU102      0.2616
     80  O        -32.9670  -29.9340   18.0030 O.2   102  LEU102     -0.2715
     81  CB       -33.1670  -28.2910   20.5920 C.3   102  LEU102      0.0311
     82  CG       -33.9210  -29.2190   21.5630 C.3   102  LEU102      0.0022
     83  CD1      -33.1630  -29.3710   22.8750 C.3   102  LEU102      0.0001
     84  CD2      -35.3540  -28.7550   21.8250 C.3   102  LEU102      0.0001
     85  N        -31.9980  -31.2990   19.5010 N.am  103  MET103     -0.1963
     86  CA       -32.3830  -32.5190   18.8070 C.3   103  MET103      0.1736
     87  C        -33.5930  -33.1160   19.5080 C.2   103  MET103      0.2616
     88  O        -34.1550  -32.4890   20.4050 O.2   103  MET103     -0.2715
     89  CB       -31.2160  -33.5090   18.8020 C.3   103  MET103      0.0427
     90  CG       -29.9320  -32.9580   18.2020 C.3   103  MET103      0.0599
     91  SD       -30.0070  -32.6400   16.4300 S.3   103  MET103     -0.1393
     92  CE       -29.7240  -34.2910   15.7860 C.3   103  MET103      0.0692
     93  N        -33.9730  -34.3310   19.1150 N.am  104  ASP104     -0.1957
     94  CA       -35.1690  -34.9950   19.6480 C.3   104  ASP104      0.1840
     95  C        -34.8800  -35.9970   20.7530 C.2   104  ASP104      0.2622
     96  O        -35.7170  -36.2350   21.6220 O.2   104  ASP104     -0.2715
     97  CB       -35.9390  -35.6640   18.5120 C.3   104  ASP104      0.1450
     98  CG       -36.4980  -34.6500   17.5230 C.2   104  ASP104      0.3671
     99  OD1      -36.7180  -33.4940   17.9340 O.co2 104  ASP104     -0.2456
    100  OD2      -36.6970  -34.9940   16.3400 O.co2 104  ASP104     -0.2456
    101  N        -33.6930  -36.5890   20.7220 N.am  105  ALA105     -0.1963
    102  CA       -33.3410  -37.6060   21.6970 C.3   105  ALA105      0.1728
    103  C        -31.8530  -37.8670   21.7340 C.2   105  ALA105      0.2616
    104  O        -31.1260  -37.5340   20.8060 O.2   105  ALA105     -0.2715
    105  CB       -34.0860  -38.9110   21.4190 C.3   105  ALA105      0.0334
    106  N        -31.4290  -38.4590   22.8410 N.am  106  ASN106     -0.1972
    107  CA       -30.1410  -39.1010   22.9530 C.3   106  ASN106      0.1688
    108  C        -30.2630  -40.5070   22.3700 C.2   106  ASN106      0.2292
    109  O        -31.3560  -41.0920   22.3570 O.2   106  ASN106     -0.2864
    110  CB       -29.7410  -39.1570   24.4270 C.3   106  ASN106      0.1181
    111  CG       -28.2800  -39.4030   24.6150 C.2   106  ASN106      0.2629
    112  OD1      -27.8310  -40.5450   24.5640 O.2   106  ASN106     -0.2716
    113  ND2      -27.5120  -38.3310   24.8410 N.am  106  ASN106     -0.0877
    114  N        -31.8300  -43.3410   24.3060 N.3   109  GLN109     -0.1245
    115  CA       -33.2840  -43.4130   24.2670 C.3   109  GLN109      0.1566
    116  C        -33.7990  -44.2560   23.1120 C.2   109  GLN109      0.2260
    117  O        -34.8130  -44.9250   23.2520 O.2   109  GLN109     -0.2867
    118  CB       -33.8860  -42.0050   24.2110 C.3   109  GLN109      0.0367
    119  CG       -33.4910  -41.1020   25.3880 C.3   109  GLN109      0.0905
    120  CD       -33.9770  -39.6680   25.2170 C.2   109  GLN109      0.2608
    121  OE1      -33.1800  -38.7300   25.1620 O.2   109  GLN109     -0.2717
    122  NE2      -35.2950  -39.4940   25.1200 N.am  109  GLN109     -0.0878
    123  N        -24.4970  -42.0310   24.8810 N.3   147  SER147     -0.1217
    124  CA       -24.8820  -40.7870   25.5760 C.3   147  SER147      0.1889
    125  C        -24.2820  -39.5070   24.9810 C.2   147  SER147      0.2288
    126  O        -24.7910  -38.4090   25.2300 O.2   147  SER147     -0.2866
    127  CB       -24.5790  -40.8650   27.0770 C.3   147  SER147      0.2089
    128  OG       -23.1810  -40.8320   27.3130 O.3   147  SER147     -0.2183
    129  N        -26.6580  -37.7660   19.5930 N.3   150  VAL150     -0.1245
    130  CA       -28.0620  -37.3060   19.5790 C.3   150  VAL150      0.1561
    131  C        -28.7070  -37.4940   18.2090 C.2   150  VAL150      0.2260
    132  O        -28.0110  -37.5300   17.1930 O.2   150  VAL150     -0.2867
    133  CB       -28.1990  -35.8310   20.0270 C.3   150  VAL150      0.0252
    134  CG1      -27.9800  -35.7080   21.5370 C.3   150  VAL150      0.0019
    135  CG2      -27.2270  -34.9290   19.2600 C.3   150  VAL150      0.0019
    136  N        -22.0430  -35.1970   19.7940 N.3   160  LEU160     -0.1245
    137  CA       -22.2030  -34.0960   20.7340 C.3   160  LEU160      0.1561
    138  C        -20.9070  -33.4200   21.1850 C.2   160  LEU160      0.2260
    139  O        -20.9150  -32.2410   21.5310 O.2   160  LEU160     -0.2867
    140  CB       -22.9140  -34.6390   21.9620 C.3   160  LEU160      0.0270
    141  CG       -24.0970  -33.9330   22.6000 C.3   160  LEU160      0.0019
    142  CD1      -25.0060  -33.2740   21.5690 C.3   160  LEU160      0.0001
    143  CD2      -24.8270  -34.9790   23.4380 C.3   160  LEU160      0.0001
@<TRIPOS>BOND
     1    76    74   ar
     2    75    74   ar
     3    74    73    1
     4    92    91    1
     5    52    53    1
     6   100    98   ar
     7    91    90    1
     8    73    72    1
     9    54    55    2
    10    54    53    1
    11    72    69    1
    12    53    56    1
    13   132   131    2
    14    98    99   ar
    15    98    97    1
    16    80    79    2
    17    69    68    1
    18    69    70    1
    19    90    89    1
    20   131   130    1
    21    56    57    1
    22    56    58    1
    23    59    57    1
    24    97    94    1
    25    68    62   am
    26    89    86    1
    27    86    85    1
    28    86    87    1
    29    70    77   am
    30    70    71    2
    31    79    85   am
    32    79    78    1
    33    77    78    1
    34    93    87   am
    35    93    94    1
    36   135   133    1
    37    33    32    2
    38    30    31    1
    39    87    88    2
    40   130   129    1
    41   130   133    1
    42    94    95    1
    43   136   137    1
    44    62    61    1
    45    62    63    2
    46    78    81    1
    47   133   134    1
    48    61    64    1
    49    61    60    1
    50    32    31    1
    51    81    82    1
    52   101    95   am
    53   101   102    1
    54    31    34    1
    55   137   138    1
    56   137   140    1
    57    95    96    2
    58    37    35   am
    59   104   103    2
    60    64    65    1
    61   138   139    2
    62    34    35    1
    63    65    66    1
    64    35    36    2
    65   105   102    1
    66    82    84    1
    67    82    83    1
    68   142   141    1
    69   102   103    1
    70   103   106   am
    71   140   141    1
    72    66    67    1
    73   109   108    2
    74   108   107    1
    75   141   143    1
    76    38    39    1
    77   106   107    1
    78   107   110    1
    79   116   117    2
    80   116   115    1
    81    42    39    1
    82    41    40    2
    83    39    40    1
    84   118   115    1
    85   118   119    1
    86   115   114    1
    87   110   111    1
    88   112   111    2
    89   111   113   am
    90   123   124    1
    91   125   126    2
    92   125   124    1
    93   122   120   am
    94   121   120    2
    95   120   119    1
    96   124   127    1
    97     8     6    1
    98   127   128    1
    99    51    50    1
   100    28    27    1
   101    49    50    1
   102    49    48    1
   103    43    44    1
   104    47    48    1
   105    47    44    1
   106     6     5    1
   107     7     5    1
   108     5     2    1
   109    44    45    1
   110    46    45    2
   111    29    27    1
   112    27    24    1
   113     4     3    2
   114     2     3    1
   115     2     1    1
   116     3     9   am
   117    24    25    1
   118    24    23    1
   119    25    26    2
   120     9    10    1
   121    10    11    1
   122    11    12    2
   123    11    13   am
   124    20    21    1
   125    20    19    1
   126    21    22    2
   127    16    15    2
   128    13    14    1
   129    15    14    1
   130    14    17    1
   131    17    18    1
