@<TRIPOS>MOLECULE
tmp/3e7sB01.pdb
 167 163 0 0 0
SMALL
GASTEIGER

@<TRIPOS>ATOM
      1  N         16.8510   40.6650   33.3710 N.3    40  VAL40      -0.1231
      2  CA        16.4840   40.5450   34.7610 C.3    40  VAL40       0.1692
      3  C         17.5650   41.1190   35.6780 C.2    40  VAL40       0.2591
      4  O         17.2660   41.8280   36.6390 O.2    40  VAL40      -0.2718
      5  CB        16.2380   39.0730   35.1280 C.3    40  VAL40       0.0266
      6  CG1       16.0630   38.9300   36.6290 C.3    40  VAL40       0.0020
      7  CG2       15.0030   38.5710   34.3960 C.3    40  VAL40       0.0020
      8  N         18.8230   40.8150   35.3630 N.am   41  LEU41      -0.1980
      9  CA        19.9440   41.2860   36.1450 C.3    41  LEU41       0.1596
     10  C         20.9390   42.1090   35.3250 C.2    41  LEU41       0.2287
     11  O         21.2760   41.7540   34.1940 O.2    41  LEU41      -0.2864
     12  CB        20.6970   40.1030   36.7430 C.3    41  LEU41       0.0297
     13  CG        19.8930   38.9050   37.2460 C.3    41  LEU41       0.0022
     14  CD1       20.8440   37.7700   37.5640 C.3    41  LEU41       0.0001
     15  CD2       19.0940   39.2800   38.4660 C.3    41  LEU41       0.0001
     16  N          8.2480   47.1250   41.6640 N.3   112  CYS112     -0.1235
     17  CA         7.1070   46.9220   42.5440 C.3   112  CYS112      0.1677
     18  C          5.8660   47.7540   42.2000 C.2   112  CYS112      0.2270
     19  O          5.9000   48.9880   42.1770 O.2   112  CYS112     -0.2867
     20  CB         7.5240   47.1990   43.9930 C.3   112  CYS112      0.0956
     21  SG         6.2350   46.9160   45.2180 S.3   112  CYS112     -0.0801
     22  N         15.3010   32.2600   49.4660 N.3   174  SER174     -0.1202
     23  CA        14.9360   33.4380   48.6870 C.3   174  SER174      0.2020
     24  C         13.7210   34.1170   49.3090 C.2   174  SER174      0.2618
     25  O         13.5050   35.3090   49.1400 O.2   174  SER174     -0.2717
     26  CB        14.6470   33.0730   47.2170 C.3   174  SER174      0.2103
     27  OG        13.5570   32.1700   47.0830 O.3   174  SER174     -0.2182
     28  N         12.9310   33.3350   50.0310 N.am  175  GLN175     -0.1979
     29  CA        11.7580   33.8260   50.7250 C.3   175  GLN175      0.1601
     30  C         11.7270   33.1200   52.0690 C.2   175  GLN175      0.2287
     31  O         12.3900   32.1020   52.2510 O.2   175  GLN175     -0.2864
     32  CB        10.4770   33.4990   49.9580 C.3   175  GLN175      0.0394
     33  CG        10.2450   34.3680   48.7500 C.3   175  GLN175      0.0908
     34  CD         8.9270   34.0740   48.0670 C.2   175  GLN175      0.2608
     35  OE1        7.8760   34.0110   48.7120 O.2   175  GLN175     -0.2717
     36  NE2        8.9710   33.9040   46.7480 N.am  175  GLN175     -0.0878
     37  N          8.8330   28.9510   51.3920 N.3   178  ARG178     -0.1245
     38  CA         9.0260   28.3780   50.0820 C.3   178  ARG178      0.1563
     39  C          8.6550   26.9010   50.1840 C.2   178  ARG178      0.2260
     40  O          8.8860   26.2690   51.2120 O.2   178  ARG178     -0.2867
     41  CB        10.5020   28.4970   49.6920 C.3   178  ARG178      0.0307
     42  CG        10.7940   29.2340   48.4000 C.3   178  ARG178      0.0489
     43  CD        10.2550   30.6360   48.4300 C.3   178  ARG178      0.2205
     44  NE         9.1540   30.7840   47.4880 N.pl3 178  ARG178     -0.0865
     45  CZ         9.2860   30.6940   46.1690 C.cat 178  ARG178      0.5346
     46  NH1       10.4790   30.4570   45.6320 N.pl3 178  ARG178      0.1354
     47  NH2        8.2230   30.8480   45.3870 N.pl3 178  ARG178      0.1354
     48  N          4.0730   36.7390   51.4920 N.3   262  PRO262     -0.2116
     49  CA         5.1470   36.8800   50.5050 C.3   262  PRO262      0.1372
     50  C          6.2280   37.6950   51.2110 C.2   262  PRO262      0.2244
     51  O          6.0610   38.8880   51.4680 O.2   262  PRO262     -0.2868
     52  CB         4.4740   37.6480   49.3700 C.3   262  PRO262      0.0268
     53  CG         3.5650   38.5700   50.1080 C.3   262  PRO262      0.0207
     54  CD         2.9740   37.6810   51.2050 C.3   262  PRO262      0.0892
     55  N         10.2300   38.4060   50.8360 N.3   264  VAL264     -0.1245
     56  CA        11.5130   38.2610   50.1760 C.3   264  VAL264      0.1561
     57  C         12.6200   38.3610   51.2260 C.2   264  VAL264      0.2260
     58  O         12.6150   39.2740   52.0630 O.2   264  VAL264     -0.2867
     59  CB        11.6910   39.3430   49.0990 C.3   264  VAL264      0.0252
     60  CG1       13.0960   39.2910   48.5260 C.3   264  VAL264      0.0019
     61  CG2       10.6510   39.1420   48.0120 C.3   264  VAL264      0.0019
     62  N         16.3120   37.3570   50.4030 N.3   266  ASN266     -0.1225
     63  CA        17.6620   37.2520   49.9030 C.3   266  ASN266      0.1785
     64  C         18.2660   38.5350   49.3400 C.2   266  ASN266      0.2597
     65  O         19.4300   38.5500   48.9330 O.2   266  ASN266     -0.2718
     66  CB        17.7390   36.1480   48.8350 C.3   266  ASN266      0.1169
     67  CG        16.9190   36.4660   47.5810 C.2   266  ASN266      0.2627
     68  OD1       16.8890   35.6770   46.6360 O.2   266  ASN266     -0.2716
     69  ND2       16.2560   37.6130   47.5690 N.am  266  ASN266     -0.0877
     70  N         17.4900   39.6130   49.3160 N.am  267  MET267     -0.1979
     71  CA        17.9960   40.8500   48.7690 C.3   267  MET267      0.1605
     72  C         18.7940   41.6640   49.7610 C.2   267  MET267      0.2287
     73  O         18.7230   41.4560   50.9740 O.2   267  MET267     -0.2864
     74  CB        16.8570   41.7010   48.2030 C.3   267  MET267      0.0413
     75  CG        16.2770   41.1620   46.9040 C.3   267  MET267      0.0598
     76  SD        14.9350   42.1780   46.2820 S.3   267  MET267     -0.1393
     77  CE        15.8550   43.3950   45.2840 C.3   267  MET267      0.0692
     78  N         11.6270   41.4880   53.9770 N.3   281  PHE281     -0.1227
     79  CA        10.4770   42.3570   53.9260 C.3   281  PHE281      0.1736
     80  C          9.2880   41.5670   53.3960 C.2   281  PHE281      0.2596
     81  O          9.4590   40.5780   52.6820 O.2   281  PHE281     -0.2718
     82  CB        10.7760   43.5780   53.0410 C.3   281  PHE281      0.0547
     83  CG        11.3050   43.2410   51.6590 C.ar  281  PHE281     -0.0202
     84  CD1       10.4420   42.8770   50.6250 C.ar  281  PHE281     -0.0042
     85  CD2       12.6690   43.3370   51.3820 C.ar  281  PHE281     -0.0042
     86  CE1       10.9320   42.6150   49.3250 C.ar  281  PHE281     -0.0003
     87  CE2       13.1670   43.0790   50.0910 C.ar  281  PHE281     -0.0003
     88  CZ        12.2910   42.7180   49.0640 C.ar  281  PHE281     -0.0000
     89  N          8.0820   41.9900   53.7590 N.am  282  SER282     -0.1938
     90  CA         6.8890   41.2970   53.3280 C.3   282  SER282      0.2055
     91  C          5.7080   42.2480   53.1650 C.2   282  SER282      0.2644
     92  O          5.6450   43.2980   53.7910 O.2   282  SER282     -0.2714
     93  CB         6.5220   40.2120   54.3470 C.3   282  SER282      0.2130
     94  OG         6.1910   40.7950   55.6000 O.3   282  SER282     -0.2179
     95  N          4.7720   41.8670   52.3130 N.am  283  GLY283     -0.1939
     96  CA         3.5870   42.6750   52.0970 C.3   283  GLY283      0.2014
     97  C          2.4710   41.6700   51.9220 C.2   283  GLY283      0.2639
     98  O          2.2970   40.7790   52.7550 O.2   283  GLY283     -0.2714
     99  N          1.6990   41.8100   50.8560 N.am  284  TRP284     -0.1959
    100  CA         0.6610   40.8520   50.5810 C.3   284  TRP284      0.1771
    101  C          0.6880   40.6250   49.0760 C.2   284  TRP284      0.2619
    102  O          1.0420   41.5070   48.2960 O.2   284  TRP284     -0.2715
    103  CB        -0.7080   41.3400   51.0770 C.3   284  TRP284      0.0590
    104  CG        -1.1220   42.6820   50.5800 C.ar  284  TRP284      0.0006
    105  CD1       -1.6100   42.9870   49.3390 C.ar  284  TRP284      0.0946
    106  CD2       -1.0830   43.9150   51.3110 C.ar  284  TRP284      0.0152
    107  NE1       -1.8790   44.3330   49.2550 N.ar  284  TRP284     -0.2442
    108  CE2       -1.5640   44.9280   50.4500 C.ar  284  TRP284      0.0810
    109  CE3       -0.6870   44.2620   52.6110 C.ar  284  TRP284      0.0012
    110  CZ2       -1.6610   46.2690   50.8470 C.ar  284  TRP284      0.0191
    111  CZ3       -0.7840   45.6000   53.0080 C.ar  284  TRP284      0.0001
    112  CH2       -1.2670   46.5840   52.1270 C.ar  284  TRP284      0.0015
    113  N          0.3440   39.4150   48.6830 N.am  285  TYR285     -0.1974
    114  CA         0.3510   39.0070   47.3040 C.3   285  TYR285      0.1639
    115  C         -0.6240   39.6890   46.3450 C.2   285  TYR285      0.2290
    116  O         -1.7060   40.1290   46.7310 O.2   285  TYR285     -0.2864
    117  CB         0.0720   37.5060   47.2420 C.3   285  TYR285      0.0560
    118  CG         1.2720   36.6050   47.2950 C.ar  285  TYR285     -0.0198
    119  CD1        2.2260   36.6270   46.2810 C.ar  285  TYR285     -0.0009
    120  CD2        1.4020   35.6460   48.2970 C.ar  285  TYR285     -0.0009
    121  CE1        3.2750   35.7060   46.2570 C.ar  285  TYR285      0.0417
    122  CE2        2.4470   34.7220   48.2800 C.ar  285  TYR285      0.0417
    123  CZ         3.3750   34.7570   47.2540 C.ar  285  TYR285      0.1957
    124  OH         4.3920   33.8270   47.2050 O.3   285  TYR285     -0.2866
    125  N          0.5800   36.7210   40.9060 N.3   289  GLU289     -0.1245
    126  CA         1.8370   36.1030   41.2600 C.3   289  GLU289      0.1567
    127  C          1.6450   34.6170   41.5490 C.2   289  GLU289      0.2260
    128  O          2.4540   33.7880   41.1450 O.2   289  GLU289     -0.2867
    129  CB         2.4490   36.7870   42.4750 C.3   289  GLU289      0.0388
    130  CG         2.6310   38.2820   42.2960 C.3   289  GLU289      0.1160
    131  CD         3.4200   38.9040   43.4390 C.2   289  GLU289      0.3649
    132  OE1        4.6590   38.7180   43.4780 O.co2 289  GLU289     -0.2457
    133  OE2        2.8010   39.5630   44.3070 O.co2 289  GLU289     -0.2457
    134  N          3.4960   31.3280   39.7860 N.3   294  ASN294     -0.1240
    135  CA         3.7640   30.1870   40.6090 C.3   294  ASN294      0.1653
    136  C          3.0400   28.9260   40.1410 C.2   294  ASN294      0.2266
    137  O          3.6230   27.8360   40.1140 O.2   294  ASN294     -0.2867
    138  CB         3.3960   30.4970   42.0690 C.3   294  ASN294      0.1155
    139  CG         4.1310   31.7210   42.6100 C.2   294  ASN294      0.2627
    140  OD1        5.1860   32.1040   42.0940 O.2   294  ASN294     -0.2716
    141  ND2        3.5840   32.3310   43.6620 N.am  294  ASN294     -0.0877
    142  N          7.5290   44.9030   34.5280 N.3   374  TRP374     -0.1241
    143  CA         7.2240   44.3090   35.8120 C.3   374  TRP374      0.1605
    144  C          5.9720   44.9360   36.4060 C.2   374  TRP374      0.2264
    145  O          5.2880   44.3220   37.2140 O.2   374  TRP374     -0.2867
    146  CB         8.3990   44.4800   36.7760 C.3   374  TRP374      0.0550
    147  CG         9.5680   43.6150   36.4380 C.ar  374  TRP374      0.0003
    148  CD1       10.2820   43.6200   35.2770 C.ar  374  TRP374      0.0946
    149  CD2       10.1540   42.6030   37.2660 C.ar  374  TRP374      0.0152
    150  NE1       11.2780   42.6720   35.3280 N.ar  374  TRP374     -0.2442
    151  CE2       11.2240   42.0360   36.5380 C.ar  374  TRP374      0.0810
    152  CE3        9.8820   42.1230   38.5540 C.ar  374  TRP374      0.0012
    153  CZ2       12.0200   41.0130   37.0510 C.ar  374  TRP374      0.0191
    154  CZ3       10.6740   41.1040   39.0660 C.ar  374  TRP374      0.0001
    155  CH2       11.7340   40.5610   38.3130 C.ar  374  TRP374      0.0015
    156  N         20.1740   43.0260   44.3090 N.3   402  TYR402     -0.1241
    157  CA        20.5300   41.6380   44.2020 C.3   402  TYR402      0.1605
    158  C         21.9240   41.4540   44.7590 C.2   402  TYR402      0.2264
    159  O         22.7760   42.3490   44.6630 O.2   402  TYR402     -0.2867
    160  CB        20.5300   41.2000   42.7430 C.3   402  TYR402      0.0534
    161  CG        19.1540   41.1280   42.1520 C.ar  402  TYR402     -0.0201
    162  CD1       18.9050   41.5930   40.8650 C.ar  402  TYR402     -0.0009
    163  CD2       18.0940   40.5840   42.8780 C.ar  402  TYR402     -0.0009
    164  CE1       17.6390   41.5190   40.3160 C.ar  402  TYR402      0.0417
    165  CE2       16.8280   40.5030   42.3390 C.ar  402  TYR402      0.0417
    166  CZ        16.6050   40.9680   41.0580 C.ar  402  TYR402      0.1957
    167  OH        15.3510   40.8670   40.5010 O.3   402  TYR402     -0.2866
@<TRIPOS>BOND
     1     1     2    1
     2    11    10    2
     3     7     5    1
     4   142   143    1
     5     2     5    1
     6     2     3    1
     7     5     6    1
     8   148   150   ar
     9   148   147   ar
    10    10     9    1
    11   150   151   ar
    12     8     3   am
    13     8     9    1
    14     3     4    2
    15   143   144    1
    16   143   146    1
    17     9    12    1
    18   144   145    2
    19   147   146    1
    20   147   149   ar
    21   151   153   ar
    22   151   149   ar
    23    12    13    1
    24   153   155   ar
    25    13    14    1
    26    13    15    1
    27   149   152   ar
    28   155   154   ar
    29   152   154   ar
    30   134   135    1
    31   137   136    2
    32   136   135    1
    33   164   162   ar
    34   164   166   ar
    35   167   166    1
    36   135   138    1
    37   162   161   ar
    38   125   126    1
    39   166   165   ar
    40   128   127    2
    41   126   127    1
    42   126   129    1
    43    16    17    1
    44   138   139    1
    45   140   139    2
    46   161   160    1
    47   161   163   ar
    48    19    18    2
    49    18    17    1
    50   130   129    1
    51   130   131    1
    52   165   163   ar
    53    17    20    1
    54   139   141   am
    55   160   157    1
    56   131   132   ar
    57   131   133   ar
    58    20    21    1
    59   157   156    1
    60   157   158    1
    61   159   158    2
    62    77    76    1
    63    47    45    1
    64    46    45    1
    65    45    44    2
    66   121   119   ar
    67   121   123   ar
    68   119   118   ar
    69    76    75    1
    70   115   116    2
    71   115   114    1
    72    68    67    2
    73    36    34   am
    74    75    74    1
    75    27    26    1
    76   124   123    1
    77    26    23    1
    78   117   118    1
    79   117   114    1
    80   123   122   ar
    81   118   120   ar
    82   114   113    1
    83    44    43    1
    84    69    67   am
    85    67    66    1
    86    61    59    1
    87    34    35    2
    88    34    33    1
    89    74    71    1
    90   122   120   ar
    91   102   101    2
    92    42    43    1
    93    42    41    1
    94    60    59    1
    95   113   101   am
    96    23    24    1
    97    23    22    1
    98    33    32    1
    99    71    70    1
   100    71    72    1
   101    66    63    1
   102    65    64    2
   103    88    86   ar
   104    88    87   ar
   105   101   100    1
   106    59    56    1
   107    25    24    2
   108   107   105   ar
   109   107   108   ar
   110    24    28   am
   111    70    64   am
   112    86    84   ar
   113   105   104   ar
   114    64    63    1
   115    52    53    1
   116    52    49    1
   117    41    38    1
   118    72    73    2
   119    63    62    1
   120    32    29    1
   121    28    29    1
   122    38    39    1
   123    38    37    1
   124    87    85   ar
   125    53    54    1
   126    56    55    1
   127    56    57    1
   128    39    40    2
   129   108   110   ar
   130   108   106   ar
   131    49    50    1
   132    49    48    1
   133   104   103    1
   134   104   106   ar
   135   100    99    1
   136   100   103    1
   137    84    83   ar
   138    29    30    1
   139   110   112   ar
   140    99    97   am
   141    54    48    1
   142    50    51    2
   143    57    58    2
   144   106   109   ar
   145    85    83   ar
   146    83    82    1
   147    97    96    1
   148    97    98    2
   149    30    31    2
   150    96    95    1
   151   112   111   ar
   152    95    91   am
   153   109   111   ar
   154    81    80    2
   155    82    79    1
   156    91    90    1
   157    91    92    2
   158    90    89    1
   159    90    93    1
   160    80    89   am
   161    80    79    1
   162    79    78    1
   163    93    94    1
