@<TRIPOS>MOLECULE
tmp/3e7sB02.pdb
 95 91 0 0 0
SMALL
GASTEIGER

@<TRIPOS>ATOM
      1  N         15.2270   44.9450   29.3280 N.3    38  SER38      -0.1217
      2  CA        14.5160   43.7080   29.6000 C.3    38  SER38       0.1889
      3  C         15.2630   42.6990   30.4710 C.2    38  SER38       0.2288
      4  O         14.6290   41.8820   31.1280 O.2    38  SER38      -0.2866
      5  CB        14.0690   43.0360   28.2880 C.3    38  SER38       0.2089
      6  OG        15.0400   42.1310   27.7870 O.3    38  SER38      -0.2183
      7  N         16.8510   40.6650   33.3710 N.3    40  VAL40      -0.1231
      8  CA        16.4840   40.5450   34.7610 C.3    40  VAL40       0.1692
      9  C         17.5650   41.1190   35.6780 C.2    40  VAL40       0.2591
     10  O         17.2660   41.8280   36.6390 O.2    40  VAL40      -0.2718
     11  CB        16.2380   39.0730   35.1280 C.3    40  VAL40       0.0266
     12  CG1       16.0630   38.9300   36.6290 C.3    40  VAL40       0.0020
     13  CG2       15.0030   38.5710   34.3960 C.3    40  VAL40       0.0020
     14  N         18.8230   40.8150   35.3630 N.am   41  LEU41      -0.1980
     15  CA        19.9440   41.2860   36.1450 C.3    41  LEU41       0.1596
     16  C         20.9390   42.1090   35.3250 C.2    41  LEU41       0.2287
     17  O         21.2760   41.7540   34.1940 O.2    41  LEU41      -0.2864
     18  CB        20.6970   40.1030   36.7430 C.3    41  LEU41       0.0297
     19  CG        19.8930   38.9050   37.2460 C.3    41  LEU41       0.0022
     20  CD1       20.8440   37.7700   37.5640 C.3    41  LEU41       0.0001
     21  CD2       19.0940   39.2800   38.4660 C.3    41  LEU41       0.0001
     22  N          2.0520   32.9590   37.7280 N.3   293  ARG293     -0.1245
     23  CA         3.4570   32.6040   37.7320 C.3   293  ARG293      0.1563
     24  C          3.7680   31.3210   38.4900 C.2   293  ARG293      0.2260
     25  O          4.2390   30.3390   37.9130 O.2   293  ARG293     -0.2867
     26  CB         4.2930   33.7510   38.3040 C.3   293  ARG293      0.0307
     27  CG         4.1930   35.0300   37.4830 C.3   293  ARG293      0.0489
     28  CD         4.4550   34.7550   35.9910 C.3   293  ARG293      0.2205
     29  NE         5.6970   35.3720   35.5520 N.pl3 293  ARG293     -0.0865
     30  CZ         6.9080   34.9730   35.9220 C.cat 293  ARG293      0.5346
     31  NH1        7.0560   33.9410   36.7390 N.pl3 293  ARG293      0.1354
     32  NH2        7.9740   35.6200   35.4900 N.pl3 293  ARG293      0.1354
     33  N          3.4190   28.9280   35.2720 N.3   297  ASP297     -0.1239
     34  CA         4.6820   28.9350   34.5490 C.3   297  ASP297      0.1674
     35  C          5.0530   27.4870   34.2210 C.2   297  ASP297      0.2266
     36  O          4.9060   26.5760   35.0470 O.2   297  ASP297     -0.2867
     37  CB         5.8060   29.5720   35.3820 C.3   297  ASP297      0.1410
     38  CG         5.8630   31.0900   35.2410 C.2   297  ASP297      0.3668
     39  OD1        4.8030   31.7210   35.0540 O.co2 297  ASP297     -0.2456
     40  OD2        6.9700   31.6580   35.3330 O.co2 297  ASP297     -0.2456
     41  N          7.8590   26.0930   34.0230 N.3   299  HIS299     -0.1241
     42  CA         8.8970   25.6570   34.9300 C.3   299  HIS299      0.1621
     43  C          8.5550   25.7120   36.4210 C.2   299  HIS299      0.2264
     44  O          9.4230   25.5280   37.2730 O.2   299  HIS299     -0.2867
     45  CB        10.1770   26.4500   34.6520 C.3   299  HIS299      0.0745
     46  CG         9.9590   27.9270   34.4900 C.ar  299  HIS299      0.0817
     47  ND1        9.2240   28.4610   33.4550 N.ar  299  HIS299     -0.2268
     48  CD2       10.3990   28.9800   35.2240 C.ar  299  HIS299      0.1154
     49  CE1        9.2220   29.7800   33.5580 C.ar  299  HIS299      0.1986
     50  NE2        9.9270   30.1180   34.6220 N.ar  299  HIS299     -0.2212
     51  N          7.8920   46.3500   32.1790 N.3   373  ALA373     -0.1231
     52  CA         7.7180   44.9140   32.0940 C.3   373  ALA373      0.1694
     53  C          7.3790   44.2060   33.4080 C.2   373  ALA373      0.2592
     54  O          6.9910   43.0410   33.4100 O.2   373  ALA373     -0.2718
     55  CB         8.9520   44.2850   31.4810 C.3   373  ALA373      0.0304
     56  N          7.5290   44.9030   34.5280 N.am  374  TRP374     -0.1976
     57  CA         7.2240   44.3090   35.8120 C.3   374  TRP374      0.1640
     58  C          5.9720   44.9360   36.4060 C.2   374  TRP374      0.2290
     59  O          5.2880   44.3220   37.2140 O.2   374  TRP374     -0.2864
     60  CB         8.3990   44.4800   36.7760 C.3   374  TRP374      0.0576
     61  CG         9.5680   43.6150   36.4380 C.ar  374  TRP374      0.0006
     62  CD1       10.2820   43.6200   35.2770 C.ar  374  TRP374      0.0946
     63  CD2       10.1540   42.6030   37.2660 C.ar  374  TRP374      0.0152
     64  NE1       11.2780   42.6720   35.3280 N.ar  374  TRP374     -0.2442
     65  CE2       11.2240   42.0360   36.5380 C.ar  374  TRP374      0.0810
     66  CE3        9.8820   42.1230   38.5540 C.ar  374  TRP374      0.0012
     67  CZ2       12.0200   41.0130   37.0510 C.ar  374  TRP374      0.0191
     68  CZ3       10.6740   41.1040   39.0660 C.ar  374  TRP374      0.0001
     69  CH2       11.7340   40.5610   38.3130 C.ar  374  TRP374      0.0015
     70  N          3.4180   45.8770   34.5330 N.3   376  VAL376     -0.1245
     71  CA         2.3120   45.3120   33.7970 C.3   376  VAL376      0.1561
     72  C          2.1500   43.8540   34.2280 C.2   376  VAL376      0.2260
     73  O          3.0900   43.0640   34.1780 O.2   376  VAL376     -0.2867
     74  CB         2.5540   45.4140   32.2640 C.3   376  VAL376      0.0252
     75  CG1        1.5480   44.5580   31.4970 C.3   376  VAL376      0.0019
     76  CG2        2.4430   46.8800   31.8260 C.3   376  VAL376      0.0019
     77  N          1.2710   39.8260   34.4250 N.3   378  PRO378     -0.2116
     78  CA         1.5100   38.6660   33.5480 C.3   378  PRO378      0.1372
     79  C          0.3050   38.1920   32.7200 C.2   378  PRO378      0.2244
     80  O          0.4570   37.3960   31.7860 O.2   378  PRO378     -0.2868
     81  CB         2.0220   37.6000   34.5190 C.3   378  PRO378      0.0268
     82  CG         1.3370   37.9660   35.8160 C.3   378  PRO378      0.0207
     83  CD         1.4830   39.4690   35.8390 C.3   378  PRO378      0.0892
     84  N         20.1740   43.0260   44.3090 N.3   402  TYR402     -0.1241
     85  CA        20.5300   41.6380   44.2020 C.3   402  TYR402      0.1605
     86  C         21.9240   41.4540   44.7590 C.2   402  TYR402      0.2264
     87  O         22.7760   42.3490   44.6630 O.2   402  TYR402     -0.2867
     88  CB        20.5300   41.2000   42.7430 C.3   402  TYR402      0.0534
     89  CG        19.1540   41.1280   42.1520 C.ar  402  TYR402     -0.0201
     90  CD1       18.9050   41.5930   40.8650 C.ar  402  TYR402     -0.0009
     91  CD2       18.0940   40.5840   42.8780 C.ar  402  TYR402     -0.0009
     92  CE1       17.6390   41.5190   40.3160 C.ar  402  TYR402      0.0417
     93  CE2       16.8280   40.5030   42.3390 C.ar  402  TYR402      0.0417
     94  CZ        16.6050   40.9680   41.0580 C.ar  402  TYR402      0.1957
     95  OH        15.3510   40.8670   40.5010 O.3   402  TYR402     -0.2866
@<TRIPOS>BOND
     1     6     5    1
     2     5     2    1
     3     1     2    1
     4     2     3    1
     5     3     4    2
     6    55    52    1
     7    75    74    1
     8    80    79    2
     9    76    74    1
    10    52    51    1
    11    52    53    1
    12    74    71    1
    13    79    78    1
    14     7     8    1
    15    53    54    2
    16    53    56   am
    17    47    49   ar
    18    47    46   ar
    19    78    77    1
    20    78    81    1
    21    49    50   ar
    22    71    72    1
    23    71    70    1
    24    41    42    1
    25    73    72    2
    26    17    16    2
    27    35    34    1
    28    35    36    2
    29    13    11    1
    30    77    83    1
    31    46    45    1
    32    46    48   ar
    33    81    82    1
    34    56    57    1
    35    34    33    1
    36    34    37    1
    37    50    48   ar
    38    45    42    1
    39     8    11    1
    40     8     9    1
    41    42    43    1
    42    39    38   ar
    43    11    12    1
    44    38    40   ar
    45    38    37    1
    46    62    64   ar
    47    62    61   ar
    48    16    15    1
    49    64    65   ar
    50    14     9   am
    51    14    15    1
    52    32    30    1
    53    29    30    2
    54    29    28    1
    55     9    10    2
    56    57    58    1
    57    57    60    1
    58    82    83    1
    59    30    31    1
    60    28    27    1
    61    15    18    1
    62    58    59    2
    63    43    44    2
    64    61    60    1
    65    61    63   ar
    66    65    67   ar
    67    65    63   ar
    68    18    19    1
    69    67    69   ar
    70    19    20    1
    71    19    21    1
    72    63    66   ar
    73    27    26    1
    74    22    23    1
    75    23    26    1
    76    23    24    1
    77    25    24    2
    78    69    68   ar
    79    66    68   ar
    80    92    90   ar
    81    92    94   ar
    82    95    94    1
    83    90    89   ar
    84    94    93   ar
    85    89    88    1
    86    89    91   ar
    87    93    91   ar
    88    88    85    1
    89    85    84    1
    90    85    86    1
    91    87    86    2
