@<TRIPOS>MOLECULE
tmp/3e7tB02.pdb
 181 178 0 0 0
SMALL
GASTEIGER

@<TRIPOS>ATOM
      1  N        133.8450  112.5600   99.1370 N.3   111  CYS111     -0.1235
      2  CA       132.5180  113.1140   99.4160 C.3   111  CYS111      0.1677
      3  C        132.5330  113.9800  100.6710 C.2   111  CYS111      0.2270
      4  O        132.9220  113.5160  101.7330 O.2   111  CYS111     -0.2867
      5  CB       131.4900  111.9840   99.5930 C.3   111  CYS111      0.0956
      6  SG       129.8260  112.5200  100.1380 S.3   111  CYS111     -0.0801
      7  N        125.9340  111.3750   84.6730 N.3   174  GLN174     -0.1245
      8  CA       125.0070  111.7260   85.7470 C.3   174  GLN174      0.1566
      9  C        123.5870  111.7180   85.2040 C.2   174  GLN174      0.2260
     10  O        123.3660  111.9780   84.0210 O.2   174  GLN174     -0.2867
     11  CB       125.3350  113.1000   86.3560 C.3   174  GLN174      0.0367
     12  CG       125.8840  114.1000   85.3740 C.3   174  GLN174      0.0905
     13  CD       127.3940  114.1660   85.3930 C.2   174  GLN174      0.2608
     14  OE1      128.0070  114.7070   84.4830 O.2   174  GLN174     -0.2717
     15  NE2      127.9990  113.6290   86.4380 N.am  174  GLN174     -0.0878
     16  N        121.7400  116.2630   83.2070 N.3   177  ARG177     -0.1245
     17  CA       122.9100  116.9820   82.7250 C.3   177  ARG177      0.1563
     18  C        122.5320  117.6110   81.3800 C.2   177  ARG177      0.2260
     19  O        121.7710  117.0260   80.6220 O.2   177  ARG177     -0.2867
     20  CB       124.0540  115.9790   82.5840 C.3   177  ARG177      0.0307
     21  CG       125.3860  116.5680   82.2540 C.3   177  ARG177      0.0489
     22  CD       125.9950  117.2890   83.4240 C.3   177  ARG177      0.2205
     23  NE       127.0840  118.1280   82.9430 N.pl3 177  ARG177     -0.0865
     24  CZ       128.3070  117.6890   82.6730 C.cat 177  ARG177      0.5346
     25  NH1      128.6170  116.4160   82.8520 N.pl3 177  ARG177      0.1354
     26  NH2      129.2100  118.5200   82.1790 N.pl3 177  ARG177      0.1354
     27  N        131.2510  120.9690   78.1910 N.3   193  ALA193     -0.1245
     28  CA       131.7860  119.7540   78.7990 C.3   193  ALA193      0.1562
     29  C        131.1150  118.4640   78.3110 C.2   193  ALA193      0.2260
     30  O        131.6410  117.3790   78.5220 O.2   193  ALA193     -0.2867
     31  CB       131.6810  119.8480   80.3100 C.3   193  ALA193      0.0290
     32  N        119.7640  125.9700   86.6310 N.3   257  TRP257     -0.1227
     33  CA       120.4480  124.7020   86.7670 C.3   257  TRP257      0.1737
     34  C        119.4930  123.6840   87.3640 C.2   257  TRP257      0.2595
     35  O        118.5020  124.0570   87.9940 O.2   257  TRP257     -0.2718
     36  CB       121.6870  124.8400   87.6450 C.3   257  TRP257      0.0564
     37  CG       122.6980  123.7630   87.3660 C.ar  257  TRP257      0.0003
     38  CD1      122.9290  122.6300   88.0980 C.ar  257  TRP257      0.0946
     39  CD2      123.6250  123.7320   86.2700 C.ar  257  TRP257      0.0152
     40  NE1      123.9480  121.9070   87.5290 N.ar  257  TRP257     -0.2442
     41  CE2      124.3940  122.5580   86.4080 C.ar  257  TRP257      0.0810
     42  CE3      123.8780  124.5890   85.1860 C.ar  257  TRP257      0.0012
     43  CZ2      125.4120  122.2120   85.5040 C.ar  257  TRP257      0.0191
     44  CZ3      124.8940  124.2490   84.2800 C.ar  257  TRP257      0.0001
     45  CH2      125.6510  123.0660   84.4510 C.ar  257  TRP257      0.0015
     46  N        119.7760  122.4010   87.1440 N.am  258  TYR258     -0.1976
     47  CA       118.9300  121.3430   87.6820 C.3   258  TYR258      0.1639
     48  C        119.2040  121.1380   89.1770 C.2   258  TYR258      0.2290
     49  O        120.3080  121.3680   89.6660 O.2   258  TYR258     -0.2864
     50  CB       119.1390  120.0280   86.9130 C.3   258  TYR258      0.0560
     51  CG       120.5780  119.6730   86.6130 C.ar  258  TYR258     -0.0198
     52  CD1      121.2620  120.2730   85.5480 C.ar  258  TYR258     -0.0009
     53  CD2      121.2580  118.7340   87.3850 C.ar  258  TYR258     -0.0009
     54  CE1      122.5940  119.9390   85.2640 C.ar  258  TYR258      0.0417
     55  CE2      122.5860  118.3920   87.1110 C.ar  258  TYR258      0.0417
     56  CZ       123.2460  118.9980   86.0540 C.ar  258  TYR258      0.1957
     57  OH       124.5630  118.6780   85.8050 O.3   258  TYR258     -0.2866
     58  N        121.6460  116.3550   91.7180 N.3   261  PRO261     -0.2102
     59  CA       123.0050  115.9380   91.3550 C.3   261  PRO261      0.1504
     60  C        123.0270  114.4390   91.6450 C.2   261  PRO261      0.2576
     61  O        122.9920  114.0130   92.8040 O.2   261  PRO261     -0.2718
     62  CB       123.8750  116.7450   92.3090 C.3   261  PRO261      0.0282
     63  CG       123.0630  116.6910   93.5970 C.3   261  PRO261      0.0208
     64  CD       121.5930  116.8320   93.1180 C.3   261  PRO261      0.0893
     65  N        123.0420  113.6400   90.5850 N.am  262  ALA262     -0.1966
     66  CA       123.0250  112.1950   90.7340 C.3   262  ALA262      0.1728
     67  C        124.0560  111.5980   89.8140 C.2   262  ALA262      0.2616
     68  O        124.0480  111.8650   88.6140 O.2   262  ALA262     -0.2715
     69  CB       121.6480  111.6550   90.3880 C.3   262  ALA262      0.0334
     70  N        124.9470  110.7900   90.3800 N.am  263  VAL263     -0.1977
     71  CA       125.9930  110.1410   89.6000 C.3   263  VAL263      0.1596
     72  C        125.4200  108.8760   88.9600 C.2   263  VAL263      0.2287
     73  O        124.7750  108.0510   89.6210 O.2   263  VAL263     -0.2864
     74  CB       127.1940  109.8150   90.4920 C.3   263  VAL263      0.0276
     75  CG1      128.1250  108.8460   89.7880 C.3   263  VAL263      0.0022
     76  CG2      127.9260  111.1150   90.8320 C.3   263  VAL263      0.0022
     77  N        129.2430  105.2300   88.1240 N.3   266  MET266     -0.1245
     78  CA       130.2450  104.5960   88.9600 C.3   266  MET266      0.1570
     79  C        129.8900  103.1440   89.2890 C.2   266  MET266      0.2261
     80  O        128.7650  102.6970   89.0260 O.2   266  MET266     -0.2867
     81  CB       130.4600  105.4230   90.2220 C.3   266  MET266      0.0387
     82  CG       131.1520  106.7600   89.9120 C.3   266  MET266      0.0595
     83  SD       131.5590  107.7560   91.3620 S.3   266  MET266     -0.1393
     84  CE       133.1390  107.0190   91.8980 C.3   266  MET266      0.0692
     85  N        123.3510  106.9910   92.1320 N.3   280  PHE280     -0.1227
     86  CA       123.0410  107.4930   93.4600 C.3   280  PHE280      0.1736
     87  C        123.1130  109.0210   93.4420 C.2   280  PHE280      0.2595
     88  O        123.7220  109.6210   92.5330 O.2   280  PHE280     -0.2718
     89  CB       124.0120  106.8840   94.4940 C.3   280  PHE280      0.0547
     90  CG       125.4650  107.0180   94.1210 C.ar  280  PHE280     -0.0202
     91  CD1      126.1230  108.2390   94.2450 C.ar  280  PHE280     -0.0042
     92  CD2      126.1770  105.9220   93.6340 C.ar  280  PHE280     -0.0042
     93  CE1      127.4730  108.3710   93.8910 C.ar  280  PHE280     -0.0003
     94  CE2      127.5290  106.0410   93.2760 C.ar  280  PHE280     -0.0003
     95  CZ       128.1800  107.2710   93.4060 C.ar  280  PHE280     -0.0000
     96  N        122.4920  109.6500   94.4390 N.am  281  ASN281     -0.1960
     97  CA       122.4760  111.1120   94.5170 C.3   281  ASN281      0.1819
     98  C        122.4290  111.6320   95.9430 C.2   281  ASN281      0.2622
     99  O        122.0300  110.9310   96.8710 O.2   281  ASN281     -0.2715
    100  CB       121.2340  111.6640   93.8310 C.3   281  ASN281      0.1195
    101  CG       119.9660  111.3840   94.6350 C.2   281  ASN281      0.2630
    102  OD1      119.3690  110.3250   94.5190 O.2   281  ASN281     -0.2716
    103  ND2      119.5800  112.3260   95.4780 N.am  281  ASN281     -0.0877
    104  N        122.8100  112.8920   96.0820 N.am  282  GLY282     -0.1940
    105  CA       122.7670  113.5820   97.3550 C.3   282  GLY282      0.2014
    106  C        122.2020  114.9210   96.9370 C.2   282  GLY282      0.2639
    107  O        121.3690  114.9580   96.0280 O.2   282  GLY282     -0.2714
    108  N        122.6070  116.0160   97.5710 N.am  283  TRP283     -0.1959
    109  CA       122.1160  117.3050   97.1100 C.3   283  TRP283      0.1771
    110  C        123.2820  118.2010   96.7790 C.2   283  TRP283      0.2619
    111  O        124.4210  117.8750   97.0790 O.2   283  TRP283     -0.2715
    112  CB       121.1680  117.9680   98.1150 C.3   283  TRP283      0.0590
    113  CG       121.6150  117.9930   99.5120 C.ar  283  TRP283      0.0006
    114  CD1      122.5780  118.7940  100.0600 C.ar  283  TRP283      0.0946
    115  CD2      121.1000  117.1950  100.5710 C.ar  283  TRP283      0.0152
    116  NE1      122.6930  118.5410  101.4080 N.ar  283  TRP283     -0.2442
    117  CE2      121.7980  117.5620  101.7510 C.ar  283  TRP283      0.0810
    118  CE3      120.1120  116.1990  100.6450 C.ar  283  TRP283      0.0012
    119  CZ2      121.5430  116.9670  102.9910 C.ar  283  TRP283      0.0191
    120  CZ3      119.8590  115.6050  101.8840 C.ar  283  TRP283      0.0001
    121  CH2      120.5770  115.9950  103.0390 C.ar  283  TRP283      0.0015
    122  N        122.9960  119.3300   96.1520 N.am  284  TYR284     -0.1974
    123  CA       124.0340  120.2560   95.7280 C.3   284  TYR284      0.1639
    124  C        124.7190  121.1160   96.7810 C.2   284  TYR284      0.2290
    125  O        124.1500  121.4310   97.8370 O.2   284  TYR284     -0.2864
    126  CB       123.4620  121.2020   94.6580 C.3   284  TYR284      0.0560
    127  CG       123.8470  120.8410   93.2390 C.ar  284  TYR284     -0.0198
    128  CD1      125.1740  120.9330   92.8100 C.ar  284  TYR284     -0.0009
    129  CD2      122.8910  120.3770   92.3310 C.ar  284  TYR284     -0.0009
    130  CE1      125.5420  120.5650   91.5140 C.ar  284  TYR284      0.0417
    131  CE2      123.2510  120.0130   91.0310 C.ar  284  TYR284      0.0417
    132  CZ       124.5770  120.1090   90.6340 C.ar  284  TYR284      0.1957
    133  OH       124.9320  119.7460   89.3550 O.3   284  TYR284     -0.2866
    134  N        129.4480  124.3090   93.5300 N.3   288  GLU288     -0.1245
    135  CA       129.4640  123.3710   92.3940 C.3   288  GLU288      0.1567
    136  C        128.8760  124.0070   91.1340 C.2   288  GLU288      0.2260
    137  O        129.4620  123.9390   90.0400 O.2   288  GLU288     -0.2867
    138  CB       128.6630  122.1010   92.7110 C.3   288  GLU288      0.0388
    139  CG       129.1810  121.2880   93.8620 C.3   288  GLU288      0.1160
    140  CD       128.5590  119.9190   93.9050 C.2   288  GLU288      0.3649
    141  OE1      128.9430  119.0700   93.0710 O.co2 288  GLU288     -0.2457
    142  OE2      127.6730  119.6890   94.7590 O.co2 288  GLU288     -0.2457
    143  N        132.1370  126.0060   89.5540 N.3   292  ARG292     -0.1231
    144  CA       132.5360  125.1060   88.4690 C.3   292  ARG292      0.1694
    145  C        131.6530  125.1730   87.2240 C.2   292  ARG292      0.2592
    146  O        132.1410  125.4510   86.1270 O.2   292  ARG292     -0.2718
    147  CB       132.5910  123.6580   88.9740 C.3   292  ARG292      0.0321
    148  CG       133.3650  123.4890   90.2560 C.3   292  ARG292      0.0489
    149  CD       134.7710  124.0450   90.1350 C.3   292  ARG292      0.2205
    150  NE       135.7710  122.9880   90.2010 N.pl3 292  ARG292     -0.0865
    151  CZ       136.1820  122.2740   89.1610 C.cat 292  ARG292      0.5346
    152  NH1      135.6960  122.5000   87.9550 N.pl3 292  ARG292      0.1354
    153  NH2      137.0700  121.3130   89.3330 N.pl3 292  ARG292      0.1354
    154  N        130.3600  124.9160   87.3850 N.am  293  ASP293     -0.1974
    155  CA       129.4500  124.9440   86.2480 C.3   293  ASP293      0.1709
    156  C        129.3930  126.2980   85.5590 C.2   293  ASP293      0.2293
    157  O        129.4870  126.3720   84.3360 O.2   293  ASP293     -0.2864
    158  CB       128.0310  124.5630   86.6700 C.3   293  ASP293      0.1436
    159  CG       127.9700  123.2300   87.3670 C.2   293  ASP293      0.3671
    160  OD1      128.8760  122.3930   87.1410 O.co2 293  ASP293     -0.2456
    161  OD2      127.0090  123.0220   88.1320 O.co2 293  ASP293     -0.2456
    162  N        135.9130  126.1510   80.7200 N.3   298  GLN298     -0.1231
    163  CA       135.5050  125.0500   79.8460 C.3   298  GLN298      0.1698
    164  C        133.9990  124.7860   79.9390 C.2   298  GLN298      0.2592
    165  O        133.4460  124.0250   79.1490 O.2   298  GLN298     -0.2718
    166  CB       136.2600  123.7640   80.2150 C.3   298  GLN298      0.0381
    167  CG       135.9380  123.2260   81.6100 C.3   298  GLN298      0.0905
    168  CD       136.9390  123.6640   82.6650 C.2   298  GLN298      0.2608
    169  OE1      137.4340  124.7910   82.6410 O.2   298  GLN298     -0.2717
    170  NE2      137.2300  122.7730   83.6100 N.am  298  GLN298     -0.0878
    171  N        133.3460  125.4100   80.9150 N.am  299  ARG299     -0.1980
    172  CA       131.9150  125.2380   81.1050 C.3   299  ARG299      0.1597
    173  C        131.1490  126.4570   80.5890 C.2   299  ARG299      0.2287
    174  O        131.4650  126.9730   79.5170 O.2   299  ARG299     -0.2864
    175  CB       131.6070  125.0010   82.5850 C.3   299  ARG299      0.0334
    176  CG       132.3530  123.8120   83.1940 C.3   299  ARG299      0.0492
    177  CD       131.9930  122.4840   82.5230 C.3   299  ARG299      0.2205
    178  NE       130.5810  122.1380   82.6600 N.pl3 299  ARG299     -0.0865
    179  CZ       129.9520  121.9940   83.8240 C.cat 299  ARG299      0.5346
    180  NH1      130.6080  122.1710   84.9670 N.pl3 299  ARG299      0.1354
    181  NH2      128.6680  121.6560   83.8510 N.pl3 299  ARG299      0.1354
@<TRIPOS>BOND
     1    27    28    1
     2    29    30    2
     3    29    28    1
     4    28    31    1
     5   165   164    2
     6   174   173    2
     7   163   164    1
     8   163   166    1
     9   163   162    1
    10   164   171   am
    11   166   167    1
    12   173   172    1
    13    19    18    2
    14   171   172    1
    15   172   175    1
    16    18    17    1
    17   167   168    1
    18    26    24    1
    19    21    20    1
    20    21    22    1
    21   177   178    1
    22   177   176    1
    23    20    17    1
    24   175   176    1
    25   169   168    2
    26   178   179    2
    27   168   170   am
    28    24    25    1
    29    24    23    2
    30    17    16    1
    31    23    22    1
    32   179   181    1
    33   179   180    1
    34    10     9    2
    35    44    45   ar
    36    44    42   ar
    37   157   156    2
    38    45    43   ar
    39    14    13    2
    40     7     8    1
    41    42    39   ar
    42     9     8    1
    43    54    52   ar
    44    54    56   ar
    45    12    13    1
    46    12    11    1
    47    13    15   am
    48    43    41   ar
    49    52    51   ar
    50   156   155    1
    51     8    11    1
    52    57    56    1
    53    56    55   ar
    54   146   145    2
    55   155   158    1
    56   155   154    1
    57    39    41   ar
    58    39    37   ar
    59    41    40   ar
    60    51    50    1
    61    51    53   ar
    62    32    33    1
    63   158   159    1
    64    33    34    1
    65    33    36    1
    66    50    47    1
    67    55    53   ar
    68   160   159   ar
    69    46    34   am
    70    46    47    1
    71   145   154   am
    72   145   144    1
    73    34    35    2
    74    37    36    1
    75    37    38   ar
    76   159   161   ar
    77    40    38   ar
    78    47    48    1
    79   152   151    1
    80    77    78    1
    81   144   147    1
    82   144   143    1
    83    68    67    2
    84    72    71    1
    85    72    73    2
    86    78    79    1
    87    78    81    1
    88   147   148    1
    89    80    79    2
    90   151   153    1
    91   151   150    2
    92    48    49    2
    93   133   132    1
    94    71    70    1
    95    71    74    1
    96    75    74    1
    97    67    70   am
    98    67    66    1
    99    82    81    1
   100    82    83    1
   101   137   136    2
   102   149   150    1
   103   149   148    1
   104    69    66    1
   105    74    76    1
   106    65    66    1
   107    65    60   am
   108   132   131   ar
   109   132   130   ar
   110   131   129   ar
   111   136   135    1
   112    59    60    1
   113    59    58    1
   114    59    62    1
   115    83    84    1
   116   130   128   ar
   117    60    61    2
   118    58    64    1
   119    85    86    1
   120    62    63    1
   121   129   127   ar
   122   135   138    1
   123   135   134    1
   124    88    87    2
   125   138   139    1
   126   128   127   ar
   127   141   140   ar
   128    64    63    1
   129   127   126    1
   130    94    95   ar
   131    94    92   ar
   132    95    93   ar
   133    87    86    1
   134    87    96   am
   135    86    89    1
   136    92    90   ar
   137   100    97    1
   138   100   101    1
   139   139   140    1
   140    93    91   ar
   141   140   142   ar
   142    90    91   ar
   143    90    89    1
   144    96    97    1
   145    97    98    1
   146   102   101    2
   147   101   103   am
   148   126   123    1
   149   123   122    1
   150   123   124    1
   151    98   104   am
   152    98    99    2
   153   107   106    2
   154   104   105    1
   155   122   110   am
   156   110   111    2
   157   110   109    1
   158   124   125    2
   159   106   105    1
   160   106   108   am
   161   109   108    1
   162   109   112    1
   163   112   113    1
   164     1     2    1
   165     2     5    1
   166     2     3    1
   167   113   114   ar
   168   113   115   ar
   169     5     6    1
   170   114   116   ar
   171   115   118   ar
   172   115   117   ar
   173   118   120   ar
   174     3     4    2
   175   116   117   ar
   176   117   119   ar
   177   120   121   ar
   178   119   121   ar
