@<TRIPOS>MOLECULE
tmp/3e7vA00.pdb
 175 167 0 0 0
SMALL
GASTEIGER

@<TRIPOS>ATOM
      1  N         18.6120  -15.1550  -11.7610 N.3    20  ILE20      -0.1231
      2  CA        17.9380  -14.2310  -12.6810 C.3    20  ILE20       0.1696
      3  C         17.5620  -12.8830  -12.0830 C.2    20  ILE20       0.2632
      4  O         17.1790  -11.9660  -12.8170 O.2    20  ILE20      -0.2714
      5  CB        16.7170  -14.9020  -13.3740 C.3    20  ILE20       0.0266
      6  CG1       15.6770  -15.3730  -12.3470 C.3    20  ILE20       0.0019
      7  CG2       17.2620  -15.9760  -14.3830 C.3    20  ILE20       0.0020
      8  CD1       14.3360  -15.8840  -12.9350 C.3    20  ILE20       0.0001
      9  N         17.6900  -12.7660  -10.7660 N.am   21  GLY21      -0.1718
     10  CA        17.2860  -11.5890  -10.0730 C.2    21  GLY21       0.1480
     11  C         17.5090  -11.6180   -8.5750 C.2    21  GLY21       0.2820
     12  O         17.8860  -12.6350   -7.9850 O.2    21  GLY21      -0.2669
     13  N         17.2290  -10.4790   -7.9540 N.am   22  GLU22      -0.1943
     14  CA        17.4600  -10.3000   -6.5210 C.3    22  GLU22       0.1605
     15  C         16.6250   -9.1600   -5.9460 C.2    22  GLU22       0.2287
     16  O         16.0190   -8.3710   -6.6830 O.2    22  GLU22      -0.2864
     17  CB        18.9440  -10.0330   -6.2560 C.3    22  GLU22       0.0415
     18  CG        19.5090   -8.7560   -6.9540 C.3    22  GLU22       0.1163
     19  CD        20.9410   -8.4490   -6.5680 C.2    22  GLU22       0.3649
     20  OE1       21.7840   -9.3770   -6.5740 O.co2  22  GLU22      -0.2457
     21  OE2       21.2390   -7.2540   -6.2560 O.co2  22  GLU22      -0.2457
     22  N         15.0860   -8.8830   -0.0840 N.3    25  PHE25      -0.1241
     23  CA        14.4320  -10.1380    0.3570 C.3    25  PHE25       0.1605
     24  C         15.2630  -11.3960    0.2280 C.2    25  PHE25       0.2264
     25  O         15.0570  -12.3560    0.9740 O.2    25  PHE25      -0.2867
     26  CB        13.1110  -10.4040   -0.4240 C.3    25  PHE25       0.0534
     27  CG        13.2700  -10.5510   -1.9520 C.ar   25  PHE25      -0.0203
     28  CD1       12.7660   -9.5650   -2.8120 C.ar   25  PHE25      -0.0042
     29  CD2       13.8540  -11.6860   -2.5250 C.ar   25  PHE25      -0.0042
     30  CE1       12.8770   -9.6910   -4.1940 C.ar   25  PHE25      -0.0003
     31  CE2       13.9760  -11.8090   -3.9170 C.ar   25  PHE25      -0.0003
     32  CZ        13.4860  -10.8030   -4.7490 C.ar   25  PHE25      -0.0000
     33  N         16.6400  -14.9030   -6.6290 N.3    28  VAL28      -0.1245
     34  CA        15.7510  -15.5530   -7.6120 C.3    28  VAL28       0.1561
     35  C         16.5850  -16.2970   -8.6620 C.2    28  VAL28       0.2260
     36  O         17.5070  -15.7240   -9.2400 O.2    28  VAL28      -0.2867
     37  CB        14.7720  -14.5650   -8.3200 C.3    28  VAL28       0.0252
     38  CG1       13.7880  -15.3370   -9.2120 C.3    28  VAL28       0.0019
     39  CG2       14.0270  -13.6880   -7.3050 C.3    28  VAL28       0.0019
     40  N         10.8600  -20.5900  -11.8330 N.3    39  ALA39      -0.1245
     41  CA        11.6160  -19.6030  -11.0690 C.3    39  ALA39       0.1562
     42  C         11.4580  -19.8850   -9.5700 C.2    39  ALA39       0.2260
     43  O         10.3630  -20.1950   -9.0850 O.2    39  ALA39      -0.2867
     44  CB        11.1900  -18.1610  -11.4190 C.3    39  ALA39       0.0290
     45  N         12.2750  -18.3430   -5.7950 N.3    41  LYS41      -0.1245
     46  CA        12.5860  -17.2480   -4.8680 C.3    41  LYS41       0.1561
     47  C         12.9230  -17.8850   -3.5320 C.2    41  LYS41       0.2260
     48  O         12.1640  -18.6930   -3.0190 O.2    41  LYS41      -0.2867
     49  CB        11.3880  -16.3030   -4.7100 C.3    41  LYS41       0.0271
     50  CG        11.5890  -15.1140   -3.7380 C.3    41  LYS41       0.0035
     51  CD        10.3710  -14.1770   -3.7400 C.3    41  LYS41       0.0206
     52  CE        10.6710  -12.8850   -3.1020 C.3    41  LYS41       0.1093
     53  NZ         9.5200  -11.9570   -3.0470 N.3    41  LYS41      -0.1314
     54  N          2.8360  -12.5870    1.7350 N.3    65  GLU65      -0.1245
     55  CA         3.2990  -12.8210    0.3680 C.3    65  GLU65       0.1567
     56  C          2.9220  -14.2110   -0.1050 C.2    65  GLU65       0.2260
     57  O          2.5360  -14.3940   -1.2370 O.2    65  GLU65      -0.2867
     58  CB         4.8130  -12.6150    0.2320 C.3    65  GLU65       0.0388
     59  CG         5.3110  -12.8340   -1.2330 C.3    65  GLU65       0.1160
     60  CD         6.8040  -12.6770   -1.4200 C.2    65  GLU65       0.3649
     61  OE1        7.4860  -12.3100   -0.4410 O.co2  65  GLU65      -0.2457
     62  OE2        7.2930  -12.9390   -2.5640 O.co2  65  GLU65      -0.2457
     63  N          0.9430  -14.7880  -12.0470 N.3    87  ILE87      -0.1245
     64  CA         1.9260  -15.8700  -12.1980 C.3    87  ILE87       0.1561
     65  C          1.4530  -17.0350  -11.3570 C.2    87  ILE87       0.2260
     66  O          0.8540  -16.8430  -10.2780 O.2    87  ILE87      -0.2867
     67  CB         3.3960  -15.4050  -11.8560 C.3    87  ILE87       0.0252
     68  CG1        4.4710  -16.2970  -12.5410 C.3    87  ILE87       0.0019
     69  CG2        3.6400  -15.2590  -10.2960 C.3    87  ILE87       0.0019
     70  CD1        4.4180  -16.3300  -14.0500 C.3    87  ILE87       0.0001
     71  N          7.6400  -20.6980   -8.5580 N.3   135  PHE135     -0.1227
     72  CA         6.7150  -20.1100   -9.4790 C.3   135  PHE135      0.1736
     73  C          6.9280  -20.6380  -10.8600 C.2   135  PHE135      0.2595
     74  O          8.0330  -20.9980  -11.2540 O.2   135  PHE135     -0.2718
     75  CB         6.9440  -18.5700   -9.5670 C.3   135  PHE135      0.0547
     76  CG         6.6500  -17.8600   -8.2870 C.ar  135  PHE135     -0.0202
     77  CD1        5.3470  -17.5170   -7.9500 C.ar  135  PHE135     -0.0042
     78  CD2        7.6690  -17.5570   -7.3990 C.ar  135  PHE135     -0.0042
     79  CE1        5.0580  -16.9010   -6.7410 C.ar  135  PHE135     -0.0003
     80  CE2        7.4010  -16.8940   -6.2040 C.ar  135  PHE135     -0.0003
     81  CZ         6.1110  -16.5720   -5.8580 C.ar  135  PHE135     -0.0000
     82  N          5.8280  -20.6370  -11.6030 N.am  136  GLU136     -0.1965
     83  CA         5.8340  -20.6500  -13.0490 C.3   136  GLU136      0.1733
     84  C          6.8620  -19.6430  -13.6060 C.2   136  GLU136      0.2616
     85  O          7.0730  -18.5560  -13.0530 O.2   136  GLU136     -0.2715
     86  CB         4.3960  -20.3530  -13.5210 C.3   136  GLU136      0.0429
     87  CG         4.2760  -20.0850  -14.9880 C.3   136  GLU136      0.1163
     88  CD         2.8990  -19.6190  -15.4250 C.2   136  GLU136      0.3649
     89  OE1        2.6090  -19.7760  -16.6370 O.co2 136  GLU136     -0.2457
     90  OE2        2.1440  -19.0630  -14.6060 O.co2 136  GLU136     -0.2457
     91  N          7.5720  -20.0380  -14.6610 N.am  137  PHE137     -0.1960
     92  CA         8.5210  -19.1410  -15.2940 C.3   137  PHE137      0.1771
     93  C          7.7610  -18.1280  -16.1650 C.2   137  PHE137      0.2620
     94  O          7.0530  -18.5240  -17.0870 O.2   137  PHE137     -0.2715
     95  CB         9.5600  -19.9220  -16.1430 C.3   137  PHE137      0.0574
     96  CG        10.5610  -19.0320  -16.7910 C.ar  137  PHE137     -0.0200
     97  CD1       11.5180  -18.3780  -16.0200 C.ar  137  PHE137     -0.0042
     98  CD2       10.5090  -18.7870  -18.1660 C.ar  137  PHE137     -0.0042
     99  CE1       12.4270  -17.5120  -16.6250 C.ar  137  PHE137     -0.0003
    100  CE2       11.4100  -17.9320  -18.7730 C.ar  137  PHE137     -0.0003
    101  CZ        12.3760  -17.3040  -18.0140 C.ar  137  PHE137     -0.0000
    102  N          7.8820  -16.8290  -15.8680 N.am  138  GLY138     -0.1940
    103  CA         7.0950  -15.8160  -16.5940 C.3   138  GLY138      0.2014
    104  C          7.8340  -14.9660  -17.6240 C.2   138  GLY138      0.2639
    105  O          7.2740  -14.0200  -18.1470 O.2   138  GLY138     -0.2714
    106  N          9.0850  -15.2930  -17.9070 N.am  139  GLY139     -0.1954
    107  CA         9.8640  -14.5760  -18.9340 C.3   139  GLY139      0.1869
    108  C         10.9360  -13.6530  -18.3710 C.2   139  GLY139      0.2309
    109  O         11.5800  -13.9600  -17.3420 O.2   139  GLY139     -0.2863
    110  N         12.1850   -9.7130  -17.0520 N.3   141  ASP141     -0.1239
    111  CA        11.6790   -8.4390  -16.5040 C.3   141  ASP141      0.1674
    112  C         11.7740   -7.2390  -17.4840 C.2   141  ASP141      0.2266
    113  O         12.6690   -7.1640  -18.3660 O.2   141  ASP141     -0.2867
    114  CB        12.2760   -8.1580  -15.0950 C.3   141  ASP141      0.1410
    115  CG        13.7470   -7.7330  -15.1120 C.2   141  ASP141      0.3668
    116  OD1       14.0540   -6.5820  -15.4770 O.co2 141  ASP141     -0.2456
    117  OD2       14.5970   -8.5480  -14.7490 O.co2 141  ASP141     -0.2456
    118  N          7.4020   -1.7550   -9.6130 N.3   181  HIS181     -0.1241
    119  CA         8.5020   -1.1730  -10.4020 C.3   181  HIS181      0.1621
    120  C          8.7890   -2.1110  -11.5770 C.2   181  HIS181      0.2264
    121  O          8.2560   -3.2330  -11.6450 O.2   181  HIS181     -0.2867
    122  CB         9.7410   -0.9280   -9.5420 C.3   181  HIS181      0.0745
    123  CG        10.3040   -2.1660   -8.9310 C.ar  181  HIS181      0.0817
    124  ND1       10.8760   -3.1750   -9.6750 N.ar  181  HIS181     -0.2268
    125  CD2       10.3690   -2.5660   -7.6460 C.ar  181  HIS181      0.1154
    126  CE1       11.2750   -4.1400   -8.8690 C.ar  181  HIS181      0.1986
    127  NE2       10.9660   -3.7990   -7.6310 N.ar  181  HIS181     -0.2212
    128  N         11.1240   -3.9710  -12.4830 N.3   183  GLY183     -0.1210
    129  CA        11.6890   -5.2890  -12.2370 C.3   183  GLY183      0.1956
    130  C         10.6280   -6.3550  -11.9660 C.2   183  GLY183      0.2611
    131  O         10.8750   -7.5500  -12.1900 O.2   183  GLY183     -0.2717
    132  N          9.4460   -5.9100  -11.4990 N.am  184  ASN184     -0.1974
    133  CA         8.3230   -6.7760  -11.1130 C.3   184  ASN184      0.1688
    134  C          7.2770   -6.9830  -12.2440 C.2   184  ASN184      0.2292
    135  O          6.1760   -7.4350  -11.9980 O.2   184  ASN184     -0.2864
    136  CB         7.6490   -6.2420   -9.8240 C.3   184  ASN184      0.1181
    137  CG         8.4810   -6.5130   -8.5680 C.2   184  ASN184      0.2629
    138  OD1        9.3630   -7.3760   -8.5750 O.2   184  ASN184     -0.2716
    139  ND2        8.1900   -5.7970   -7.4930 N.am  184  ASN184     -0.0877
    140  N          7.0230   -8.9360  -16.0020 N.3   186  LEU186     -0.1245
    141  CA         7.7110   -9.9160  -16.8310 C.3   186  LEU186      0.1561
    142  C          7.0790   -9.9690  -18.2060 C.2   186  LEU186      0.2260
    143  O          5.8950   -9.8430  -18.3230 O.2   186  LEU186     -0.2867
    144  CB         7.6470  -11.3280  -16.2240 C.3   186  LEU186      0.0270
    145  CG         8.2470  -11.5460  -14.8230 C.3   186  LEU186      0.0019
    146  CD1        8.2110  -13.0560  -14.5050 C.3   186  LEU186      0.0001
    147  CD2        9.6680  -10.9770  -14.7250 C.3   186  LEU186      0.0001
    148  N          4.4210   -9.8730  -11.0200 N.3   216  ILE216     -0.1231
    149  CA         5.0530  -10.7610  -10.0730 C.3   216  ILE216      0.1692
    150  C          5.4210  -10.0210   -8.7840 C.2   216  ILE216      0.2592
    151  O          5.3130   -8.7750   -8.6790 O.2   216  ILE216     -0.2718
    152  CB         6.3170  -11.4940  -10.6510 C.3   216  ILE216      0.0266
    153  CG1        7.4430  -10.5060  -11.0070 C.3   216  ILE216      0.0019
    154  CG2        5.8850  -12.3840  -11.8510 C.3   216  ILE216      0.0020
    155  CD1        8.9730  -11.0030  -10.9610 C.3   216  ILE216      0.0001
    156  N          5.7950  -10.8260   -7.7960 N.am  217  ASP217     -0.1960
    157  CA         6.5550  -10.3750   -6.6130 C.3   217  ASP217      0.1840
    158  C          5.7100   -9.5430   -5.6400 C.2   217  ASP217      0.2622
    159  O          5.7530   -8.3010   -5.6570 O.2   217  ASP217     -0.2715
    160  CB         7.8050   -9.5900   -7.0740 C.3   217  ASP217      0.1450
    161  CG         8.9350   -9.6120   -6.0680 C.2   217  ASP217      0.3671
    162  OD1        8.8670  -10.3920   -5.1230 O.co2 217  ASP217     -0.2456
    163  OD2        9.9280   -8.8780   -6.2670 O.co2 217  ASP217     -0.2456
    164  N          4.9990  -10.2450   -4.7620 N.am  218  TYR218     -0.1974
    165  CA         3.9050   -9.6740   -3.9390 C.3   218  TYR218      0.1639
    166  C          4.3030   -9.3580   -2.4810 C.2   218  TYR218      0.2290
    167  O          3.4880   -9.4270   -1.5940 O.2   218  TYR218     -0.2864
    168  CB         2.6620  -10.6070   -3.9860 C.3   218  TYR218      0.0560
    169  CG         2.3820  -11.1210   -5.4050 C.ar  218  TYR218     -0.0198
    170  CD1        2.1950  -10.2230   -6.4610 C.ar  218  TYR218     -0.0009
    171  CD2        2.3710  -12.4830   -5.6980 C.ar  218  TYR218     -0.0009
    172  CE1        1.9990  -10.6670   -7.7440 C.ar  218  TYR218      0.0417
    173  CE2        2.1950  -12.9460   -7.0170 C.ar  218  TYR218      0.0417
    174  CZ         2.0090  -12.0440   -8.0250 C.ar  218  TYR218      0.1957
    175  OH         1.7880  -12.5020   -9.3180 O.3   218  TYR218     -0.2866
@<TRIPOS>BOND
     1   107   108    1
     2   107   106    1
     3   100    98   ar
     4   100   101   ar
     5   108   109    2
     6   113   112    2
     7   143   142    2
     8   142   141    1
     9    98    96   ar
    10   105   104    2
    11   101    99   ar
    12   106   104   am
    13   104   103    1
    14   112   111    1
    15    94    93    2
    16   110   111    1
    17   141   144    1
    18   141   140    1
    19    96    95    1
    20    96    97   ar
    21    89    88   ar
    22    99    97   ar
    23   103   102    1
    24   111   114    1
    25   144   145    1
    26    93   102   am
    27    93    92    1
    28    95    92    1
    29   116   115   ar
    30    88    87    1
    31    88    90   ar
    32    92    91    1
    33   115   114    1
    34   115   117   ar
    35    87    86    1
    36   145   147    1
    37   145   146    1
    38    91    84   am
    39     7     5    1
    40    70    68    1
    41    84    85    2
    42    84    83    1
    43    86    83    1
    44     5     2    1
    45     5     6    1
    46    83    82    1
    47     8     6    1
    48     4     3    2
    49     2     3    1
    50     2     1    1
    51    68    67    1
    52   128   129    1
    53   134   135    2
    54   134   133    1
    55   129   130    1
    56    64    63    1
    57    64    67    1
    58    64    65    1
    59   131   130    2
    60     3     9    1
    61   130   132   am
    62    67    69    1
    63   154   152    1
    64    40    41    1
    65   121   120    2
    66    82    73   am
    67   120   119    1
    68   132   133    1
    69    44    41    1
    70    65    66    2
    71    74    73    2
    72   133   136    1
    73    41    42    1
    74   148   149    1
    75   153   155    1
    76   153   152    1
    77    73    72    1
    78     9    10    2
    79   152   149    1
    80   119   118    1
    81   119   122    1
    82    10    11    1
    83   149   150    1
    84   136   137    1
    85   124   123   ar
    86   124   126   ar
    87    42    43    2
    88    75    72    1
    89    75    76    1
    90   122   123    1
    91    72    71    1
    92   175   174    1
    93    36    35    2
    94    38    37    1
    95   123   125   ar
    96   126   127   ar
    97   150   151    2
    98   150   156   am
    99    35    34    1
   100    11    12    2
   101    11    13   am
   102   138   137    2
   103   137   139   am
   104    37    34    1
   105    37    39    1
   106    76    77   ar
   107    76    78   ar
   108   174   172   ar
   109   174   173   ar
   110    13    14    1
   111    77    79   ar
   112   156   157    1
   113   172   170   ar
   114   125   127   ar
   115    34    33    1
   116    78    80   ar
   117   160   157    1
   118   160   161    1
   119   173   171   ar
   120    18    19    1
   121    18    17    1
   122    79    81   ar
   123    16    15    2
   124   157   158    1
   125    20    19   ar
   126    19    21   ar
   127    14    17    1
   128    14    15    1
   129   170   169   ar
   130   163   161   ar
   131    80    81   ar
   132   161   162   ar
   133    45    46    1
   134   171   169   ar
   135   159   158    2
   136   158   164   am
   137   169   168    1
   138    46    49    1
   139    46    47    1
   140   164   165    1
   141    32    30   ar
   142    32    31   ar
   143    49    50    1
   144    30    28   ar
   145   168   165    1
   146   165   166    1
   147    31    29   ar
   148    51    50    1
   149    51    52    1
   150    47    48    2
   151    52    53    1
   152    28    27   ar
   153    62    60   ar
   154    29    27   ar
   155   166   167    2
   156    27    26    1
   157    60    59    1
   158    60    61   ar
   159    57    56    2
   160    59    58    1
   161    26    23    1
   162    56    55    1
   163    22    23    1
   164    24    23    1
   165    24    25    2
   166    58    55    1
   167    55    54    1
