@<TRIPOS>MOLECULE
tmp/3e7wA00.pdb
 170 162 0 0 0
SMALL
GASTEIGER

@<TRIPOS>ATOM
      1  N         23.0480   30.0000   42.6010 N.3   195  PHE195     -0.1227
      2  CA        21.9840   29.0010   42.4150 C.3   195  PHE195      0.1736
      3  C         21.2460   28.9450   43.7560 C.2   195  PHE195      0.2595
      4  O         21.8890   28.8770   44.8080 O.2   195  PHE195     -0.2718
      5  CB        22.5460   27.5970   42.1390 C.3   195  PHE195      0.0547
      6  CG        23.3730   27.4910   40.8950 C.ar  195  PHE195     -0.0202
      7  CD1       24.7430   27.2680   40.9760 C.ar  195  PHE195     -0.0042
      8  CD2       22.7890   27.6020   39.6440 C.ar  195  PHE195     -0.0042
      9  CE1       25.5150   27.1580   39.8210 C.ar  195  PHE195     -0.0003
     10  CE2       23.5510   27.4950   38.4920 C.ar  195  PHE195     -0.0003
     11  CZ        24.9160   27.2720   38.5810 C.ar  195  PHE195     -0.0000
     12  N         19.9150   28.9390   43.7220 N.am  196  ASP196     -0.1974
     13  CA        19.1330   28.9380   44.9500 C.3   196  ASP196      0.1709
     14  C         19.2000   27.6620   45.7740 C.2   196  ASP196      0.2293
     15  O         18.7990   27.6540   46.9470 O.2   196  ASP196     -0.2864
     16  CB        17.6710   29.3050   44.6530 C.3   196  ASP196      0.1436
     17  CG        16.8640   28.1520   44.1050 C.2   196  ASP196      0.3671
     18  OD1       17.4470   27.1940   43.5540 O.co2 196  ASP196     -0.2456
     19  OD2       15.6230   28.2190   44.2170 O.co2 196  ASP196     -0.2456
     20  N         17.4850   18.4260   45.8110 N.3   268  CYS268     -0.1221
     21  CA        16.4840   19.2290   45.1320 C.3   268  CYS268      0.1808
     22  C         17.0780   19.8000   43.8460 C.2   268  CYS268      0.2602
     23  O         18.2830   19.7250   43.6460 O.2   268  CYS268     -0.2717
     24  CB        16.0920   20.3620   46.0670 C.3   268  CYS268      0.0970
     25  SG        14.5400   21.1900   45.6530 S.3   268  CYS268     -0.0800
     26  N         16.2350   20.3780   42.9930 N.am  269  GLY269     -0.1942
     27  CA        16.7140   20.9790   41.7590 C.3   269  GLY269      0.2014
     28  C         16.8900   20.0580   40.5760 C.2   269  GLY269      0.2639
     29  O         17.2060   20.5070   39.4730 O.2   269  GLY269     -0.2714
     30  N         16.6620   18.7730   40.7910 N.am  270  GLU270     -0.1963
     31  CA        16.8330   17.7970   39.7270 C.3   270  GLU270      0.1733
     32  C         16.3720   16.4010   40.1560 C.2   270  GLU270      0.2616
     33  O         16.2330   16.1120   41.3500 O.2   270  GLU270     -0.2715
     34  CB        18.3150   17.7580   39.3180 C.3   270  GLU270      0.0429
     35  CG        18.8430   16.3910   38.9260 C.3   270  GLU270      0.1163
     36  CD        20.3460   16.3680   38.6870 C.2   270  GLU270      0.3649
     37  OE1       21.0970   16.9730   39.4870 O.co2 270  GLU270     -0.2457
     38  OE2       20.7750   15.7240   37.7070 O.co2 270  GLU270     -0.2457
     39  N         16.1500   15.5450   39.1660 N.am  271  VAL271     -0.1963
     40  CA        15.7310   14.1710   39.3840 C.3   271  VAL271      0.1727
     41  C         16.7310   13.4390   40.2710 C.2   271  VAL271      0.2616
     42  O         17.9300   13.4350   39.9890 O.2   271  VAL271     -0.2715
     43  CB        15.6540   13.4040   38.0370 C.3   271  VAL271      0.0290
     44  CG1       15.2380   11.9640   38.2740 C.3   271  VAL271      0.0023
     45  CG2       14.6940   14.1000   37.0910 C.3   271  VAL271      0.0023
     46  N         16.2440   12.8290   41.3460 N.am  272  LEU272     -0.1977
     47  CA        17.1110   12.0510   42.2300 C.3   272  LEU272      0.1596
     48  C         16.9600   10.6110   41.7490 C.2   272  LEU272      0.2287
     49  O         15.9430    9.9750   42.0090 O.2   272  LEU272     -0.2864
     50  CB        16.6510   12.1650   43.6870 C.3   272  LEU272      0.0297
     51  CG        17.3200   11.2600   44.7330 C.3   272  LEU272      0.0022
     52  CD1       18.8050   11.5900   44.8980 C.3   272  LEU272      0.0001
     53  CD2       16.5990   11.4490   46.0600 C.3   272  LEU272      0.0001
     54  N         14.1190   13.9650   49.4030 N.3   291  ASN291     -0.1225
     55  CA        14.0090   14.4310   48.0390 C.3   291  ASN291      0.1785
     56  C         12.9820   15.5560   48.0470 C.2   291  ASN291      0.2598
     57  O         11.8630   15.3690   48.5240 O.2   291  ASN291     -0.2718
     58  CB        13.5670   13.2900   47.1210 C.3   291  ASN291      0.1169
     59  CG        13.5210   13.7010   45.6700 C.2   291  ASN291      0.2627
     60  OD1       14.2850   14.5660   45.2390 O.2   291  ASN291     -0.2716
     61  ND2       12.6340   13.0750   44.8970 N.am  291  ASN291     -0.0877
     62  N         13.3720   16.7220   47.5380 N.am  292  THR292     -0.1939
     63  CA        12.4800   17.8680   47.5040 C.3   292  THR292      0.2028
     64  C         12.4200   18.4710   46.1050 C.2   292  THR292      0.2642
     65  O         13.4090   18.4630   45.3650 O.2   292  THR292     -0.2714
     66  CB        12.9400   18.9490   48.4890 C.3   292  THR292      0.1808
     67  OG1       14.1140   19.5800   47.9770 O.3   292  THR292     -0.2208
     68  CG2       13.2820   18.3320   49.8460 C.3   292  THR292      0.0379
     69  N         11.2600   19.0090   45.7470 N.am  293  TYR293     -0.1959
     70  CA        11.0810   19.5950   44.4290 C.3   293  TYR293      0.1771
     71  C         10.5500   21.0240   44.4260 C.2   293  TYR293      0.2620
     72  O          9.8130   21.4380   45.3200 O.2   293  TYR293     -0.2715
     73  CB        10.1280   18.7250   43.6170 C.3   293  TYR293      0.0574
     74  CG         9.4210   19.4580   42.4950 C.ar  293  TYR293     -0.0198
     75  CD1        9.9100   19.4170   41.1900 C.ar  293  TYR293     -0.0009
     76  CD2        8.2580   20.2020   42.7450 C.ar  293  TYR293     -0.0009
     77  CE1        9.2630   20.0880   40.1650 C.ar  293  TYR293      0.0417
     78  CE2        7.6070   20.8830   41.7240 C.ar  293  TYR293      0.0417
     79  CZ         8.1130   20.8190   40.4370 C.ar  293  TYR293      0.1957
     80  OH         7.4690   21.4620   39.4120 O.3   293  TYR293     -0.2866
     81  N         10.9040   21.7560   43.3780 N.am  294  GLY294     -0.1940
     82  CA        10.4380   23.1130   43.2210 C.3   294  GLY294      0.1998
     83  C         11.3200   23.9230   42.2910 C.2   294  GLY294      0.2481
     84  O         12.4490   23.5300   42.0110 O.2   294  GLY294     -0.2729
     85  N         10.8040   25.0360   41.7520 N.am  295  PRO295     -0.2715
     86  CA        11.5620   25.9100   40.8560 C.3   295  PRO295      0.1536
     87  C         12.0170   27.1510   41.6610 C.2   295  PRO295      0.2599
     88  O         11.4940   27.4220   42.7480 O.2   295  PRO295     -0.2715
     89  CB        10.5370   26.2510   39.7890 C.3   295  PRO295      0.0310
     90  CG         9.3120   26.4230   40.6020 C.3   295  PRO295      0.0237
     91  CD         9.3560   25.2150   41.5250 C.3   295  PRO295      0.0939
     92  N         12.9860   27.8940   41.1320 N.am  296  THR296     -0.1951
     93  CA        13.4860   29.0830   41.8140 C.3   296  THR296      0.1897
     94  C         12.3540   30.0840   42.0390 C.2   296  THR296      0.2313
     95  O         12.3340   30.8190   43.0350 O.2   296  THR296     -0.2863
     96  CB        14.6220   29.7510   41.0010 C.3   296  THR296      0.1794
     97  OG1       15.6950   28.8180   40.8370 O.3   296  THR296     -0.2208
     98  CG2       15.1560   30.9860   41.7180 C.3   296  THR296      0.0378
     99  N         13.2550   27.8010   46.0520 N.3   300  VAL300     -0.1245
    100  CA        13.9590   26.5350   46.2370 C.3   300  VAL300      0.1561
    101  C         13.1020   25.2840   46.0760 C.2   300  VAL300      0.2260
    102  O         13.0890   24.6810   45.0010 O.2   300  VAL300     -0.2867
    103  CB        14.6450   26.5060   47.6150 C.3   300  VAL300      0.0252
    104  CG1       15.6920   25.4010   47.6650 C.3   300  VAL300      0.0019
    105  CG2       15.2580   27.8630   47.8960 C.3   300  VAL300      0.0019
    106  N          8.3020   13.1510   44.1530 N.3   320  VAL320     -0.1245
    107  CA         8.9110   14.3620   44.6960 C.3   320  VAL320      0.1561
    108  C          8.3070   14.6680   46.0580 C.2   320  VAL320      0.2260
    109  O          8.6660   15.6450   46.7130 O.2   320  VAL320     -0.2867
    110  CB         8.7420   15.5850   43.7680 C.3   320  VAL320      0.0252
    111  CG1        9.6400   15.4320   42.5480 C.3   320  VAL320      0.0019
    112  CG2        7.2870   15.7500   43.3700 C.3   320  VAL320      0.0019
    113  N          6.2330   22.0680   34.3800 N.3   382  ASP382     -0.1239
    114  CA         6.5260   20.6540   34.6060 C.3   382  ASP382      0.1674
    115  C          5.2730   19.8030   34.4090 C.2   382  ASP382      0.2266
    116  O          4.1970   20.1450   34.9070 O.2   382  ASP382     -0.2867
    117  CB         7.0030   20.4050   36.0370 C.3   382  ASP382      0.1410
    118  CG         8.3270   21.0560   36.3460 C.2   382  ASP382      0.3668
    119  OD1        9.3340   20.6990   35.6910 O.co2 382  ASP382     -0.2456
    120  OD2        8.3530   21.9190   37.2570 O.co2 382  ASP382     -0.2456
    121  N          7.0020   14.2670   39.5660 N.3   393  CYS393     -0.1235
    122  CA         7.3550   15.1750   38.4830 C.3   393  CYS393      0.1677
    123  C          7.6250   14.2790   37.2740 C.2   393  CYS393      0.2270
    124  O          8.2890   13.2490   37.4020 O.2   393  CYS393     -0.2867
    125  CB         8.5900   16.0080   38.8530 C.3   393  CYS393      0.0956
    126  SG         9.0480   17.2800   37.6210 S.3   393  CYS393     -0.0801
    127  N          8.7110   15.3860   33.6790 N.3   395  GLY395     -0.1210
    128  CA         9.1070   16.0190   32.4370 C.3   395  GLY395      0.1956
    129  C          8.6620   17.4450   32.1900 C.2   395  GLY395      0.2611
    130  O          7.9310   18.0490   32.9710 O.2   395  GLY395     -0.2717
    131  N          9.1120   17.9650   31.0570 N.am  396  ARG396     -0.1979
    132  CA         8.8570   19.3350   30.6460 C.3   396  ARG396      0.1597
    133  C          7.8850   19.5270   29.4970 C.2   396  ARG396      0.2287
    134  O          7.7410   18.6720   28.6230 O.2   396  ARG396     -0.2864
    135  CB        10.1860   19.9880   30.2750 C.3   396  ARG396      0.0334
    136  CG        10.9170   20.5810   31.4500 C.3   396  ARG396      0.0492
    137  CD        10.4300   21.9850   31.6660 C.3   396  ARG396      0.2205
    138  NE        10.3470   22.3030   33.0740 N.pl3 396  ARG396     -0.0865
    139  CZ         9.9280   23.4680   33.5400 C.cat 396  ARG396      0.5346
    140  NH1        9.5590   24.4240   32.6960 N.pl3 396  ARG396      0.1354
    141  NH2        9.8760   23.6650   34.8500 N.pl3 396  ARG396      0.1354
    142  N         12.8770   24.1240   28.3350 N.3   400  GLN400     -0.1245
    143  CA        13.7610   24.3180   29.4680 C.3   400  GLN400      0.1566
    144  C         14.2340   22.9190   29.8350 C.2   400  GLN400      0.2260
    145  O         13.4190   21.9980   29.9010 O.2   400  GLN400     -0.2867
    146  CB        12.9990   24.9190   30.6340 C.3   400  GLN400      0.0367
    147  CG        13.8850   25.4800   31.7160 C.3   400  GLN400      0.0905
    148  CD        13.1550   25.6300   33.0230 C.2   400  GLN400      0.2608
    149  OE1       13.0790   24.6900   33.8060 O.2   400  GLN400     -0.2717
    150  NE2       12.5950   26.8060   33.2610 N.am  400  GLN400     -0.0878
    151  N         17.4100   20.2880   32.0620 N.3   402  LYS402     -0.1245
    152  CA        18.3190   20.1210   33.1790 C.3   402  LYS402      0.1561
    153  C         19.4980   19.3030   32.6710 C.2   402  LYS402      0.2260
    154  O         19.3160   18.1990   32.1670 O.2   402  LYS402     -0.2867
    155  CB        17.6480   19.3810   34.3380 C.3   402  LYS402      0.0271
    156  CG        16.8870   20.2690   35.2920 C.3   402  LYS402      0.0035
    157  CD        17.8120   21.1490   36.1230 C.3   402  LYS402      0.0206
    158  CE        16.9900   22.0350   37.0460 C.3   402  LYS402      0.1093
    159  NZ        17.7800   22.8040   38.0190 N.3   402  LYS402     -0.1314
    160  N         19.9540   24.2170   35.3640 N.3   407  ARG407     -0.1245
    161  CA        18.7640   24.6530   34.6560 C.3   407  ARG407      0.1563
    162  C         19.1660   25.5470   33.4720 C.2   407  ARG407      0.2260
    163  O         19.9970   26.4300   33.6300 O.2   407  ARG407     -0.2867
    164  CB        17.8610   25.4300   35.6280 C.3   407  ARG407      0.0307
    165  CG        16.7260   26.2270   34.9670 C.3   407  ARG407      0.0489
    166  CD        15.7150   26.7380   36.0010 C.3   407  ARG407      0.2205
    167  NE        14.7030   27.5940   35.3870 N.pl3 407  ARG407     -0.0865
    168  CZ        13.7220   28.1910   36.0520 C.cat 407  ARG407      0.5346
    169  NH1       13.6080   28.0280   37.3700 N.pl3 407  ARG407      0.1354
    170  NH2       12.8620   28.9690   35.4010 N.pl3 407  ARG407      0.1354
@<TRIPOS>BOND
     1   142   143    1
     2   134   133    2
     3   143   144    1
     4   143   146    1
     5   133   132    1
     6   144   145    2
     7   135   132    1
     8   135   136    1
     9   146   147    1
    10   132   131    1
    11   131   129   am
    12   136   137    1
    13   137   138    1
    14   147   148    1
    15   151   152    1
    16   154   153    2
    17   129   128    1
    18   129   130    2
    19   128   127    1
    20   153   152    1
    21   140   139    1
    22   148   150   am
    23   148   149    2
    24   138   139    2
    25   152   155    1
    26   162   163    2
    27   162   161    1
    28   139   141    1
    29   155   156    1
    30   113   114    1
    31   115   114    1
    32   115   116    2
    33   114   117    1
    34   161   160    1
    35   161   164    1
    36   165   164    1
    37   165   166    1
    38   156   157    1
    39   167   166    1
    40   167   168    2
    41   170   168    1
    42   119   118   ar
    43   117   118    1
    44   168   169    1
    45   157   158    1
    46   118   120   ar
    47   158   159    1
    48    45    43    1
    49   123   124    2
    50   123   122    1
    51   126   125    1
    52    38    36   ar
    53    43    44    1
    54    43    40    1
    55   122   125    1
    56   122   121    1
    57    10    11   ar
    58    10     8   ar
    59    11     9   ar
    60    36    35    1
    61    36    37   ar
    62    35    34    1
    63    39    40    1
    64    39    32   am
    65    34    31    1
    66    40    41    1
    67    80    79    1
    68    29    28    2
    69     8     6   ar
    70    31    32    1
    71    31    30    1
    72    89    90    1
    73    89    86    1
    74     9     7   ar
    75    42    41    2
    76    32    33    2
    77    77    79   ar
    78    77    75   ar
    79    41    46   am
    80    79    78   ar
    81    28    30   am
    82    28    27    1
    83    90    91    1
    84    97    96    1
    85    86    87    1
    86    86    85    1
    87     6     7   ar
    88     6     5    1
    89    96    98    1
    90    96    93    1
    91    92    87   am
    92    92    93    1
    93    75    74   ar
    94    46    47    1
    95    91    85    1
    96    87    88    2
    97    78    76   ar
    98    48    49    2
    99    48    47    1
   100    85    83   am
   101    27    26    1
   102    93    94    1
   103    84    83    2
   104    94    95    2
   105     5     2    1
   106    47    50    1
   107    83    82    1
   108     2     1    1
   109     2     3    1
   110    74    76   ar
   111    74    73    1
   112   111   110    1
   113    26    22   am
   114    82    81    1
   115   112   110    1
   116    81    71   am
   117    18    17   ar
   118    73    70    1
   119    23    22    2
   120    50    51    1
   121    12     3   am
   122    12    13    1
   123     3     4    2
   124   110   107    1
   125    22    21    1
   126    17    19   ar
   127    17    16    1
   128   106   107    1
   129    71    70    1
   130    71    72    2
   131    70    69    1
   132    16    13    1
   133   107   108    1
   134    51    52    1
   135    51    53    1
   136    61    59   am
   137    13    14    1
   138   102   101    2
   139    21    20    1
   140    21    24    1
   141    60    59    2
   142    65    64    2
   143    25    24    1
   144    59    58    1
   145    69    64   am
   146    14    15    2
   147    99   100    1
   148   108   109    2
   149   101   100    1
   150    64    63    1
   151   100   103    1
   152    58    55    1
   153    63    62    1
   154    63    66    1
   155    62    56   am
   156   103   104    1
   157   103   105    1
   158    67    66    1
   159    55    56    1
   160    55    54    1
   161    56    57    2
   162    66    68    1
