@<TRIPOS>MOLECULE
tmp/3e80B01.pdb
 187 180 0 0 0
SMALL
GASTEIGER

@<TRIPOS>ATOM
      1  N         55.4180  133.5830   49.2320 N.3   119  ASP119     -0.1239
      2  CA        56.1360  134.8410   49.2730 C.3   119  ASP119      0.1674
      3  C         55.2210  136.0540   49.4890 C.2   119  ASP119      0.2266
      4  O         55.3770  137.0990   48.8410 O.2   119  ASP119     -0.2867
      5  CB        56.9970  134.9450   48.0110 C.3   119  ASP119      0.1410
      6  CG        58.1930  133.9800   48.0430 C.2   119  ASP119      0.3668
      7  OD1       59.1390  134.2320   48.8320 O.co2 119  ASP119     -0.2456
      8  OD2       58.1760  132.9780   47.2870 O.co2 119  ASP119     -0.2456
      9  N         56.0950  139.8500   49.4750 N.3   122  ARG122     -0.1245
     10  CA        56.2360  140.6250   48.2380 C.3   122  ARG122      0.1563
     11  C         54.9840  141.4510   47.9690 C.2   122  ARG122      0.2260
     12  O         55.0740  142.5990   47.5300 O.2   122  ARG122     -0.2867
     13  CB        56.5500  139.7170   47.0350 C.3   122  ARG122      0.0307
     14  CG        57.9740  139.1760   47.0390 C.3   122  ARG122      0.0489
     15  CD        58.2370  138.1710   45.9250 C.3   122  ARG122      0.2205
     16  NE        59.4700  137.4570   46.2190 N.pl3 122  ARG122     -0.0865
     17  CZ        59.8680  136.3530   45.6040 C.cat 122  ARG122      0.5346
     18  NH1       59.1420  135.8220   44.6290 N.pl3 122  ARG122      0.1354
     19  NH2       61.0110  135.8020   45.9700 N.pl3 122  ARG122      0.1354
     20  N         58.7760  139.4620   56.1230 N.3   162  GLU162     -0.1245
     21  CA        59.5170  138.3690   56.7200 C.3   162  GLU162      0.1567
     22  C         60.7520  138.8590   57.4860 C.2   162  GLU162      0.2260
     23  O         61.0860  138.3120   58.5400 O.2   162  GLU162     -0.2867
     24  CB        59.8850  137.3680   55.6340 C.3   162  GLU162      0.0388
     25  CG        60.8290  136.3060   56.1050 C.3   162  GLU162      0.1160
     26  CD        60.9700  135.2230   55.0640 C.2   162  GLU162      0.3649
     27  OE1       59.9250  134.8760   54.4510 O.co2 162  GLU162     -0.2457
     28  OE2       62.1140  134.7440   54.8740 O.co2 162  GLU162     -0.2457
     29  N         66.5120  137.0640   58.7290 N.3   170  ASP170     -0.1225
     30  CA        67.0220  136.6770   57.4210 C.3   170  ASP170      0.1805
     31  C         68.4280  137.2050   57.0940 C.2   170  ASP170      0.2597
     32  O         69.1580  137.6340   57.9870 O.2   170  ASP170     -0.2718
     33  CB        66.0180  136.9730   56.3060 C.3   170  ASP170      0.1424
     34  CG        66.2350  136.0860   55.0800 C.2   170  ASP170      0.3668
     35  OD1       66.6230  136.6000   54.0050 O.co2 170  ASP170     -0.2456
     36  OD2       66.0380  134.8550   55.1700 O.co2 170  ASP170     -0.2456
     37  N         68.8210  137.1490   55.8220 N.am  171  LYS171     -0.1979
     38  CA        70.2130  137.4140   55.4350 C.3   171  LYS171      0.1596
     39  C         70.4110  138.6170   54.4870 C.2   171  LYS171      0.2287
     40  O         69.4930  139.0570   53.7820 O.2   171  LYS171     -0.2864
     41  CB        70.8570  136.1460   54.8560 C.3   171  LYS171      0.0298
     42  CG        70.5390  134.8390   55.5860 C.3   171  LYS171      0.0038
     43  CD        71.2130  134.7220   56.9420 C.3   171  LYS171      0.0206
     44  CE        70.8280  133.3900   57.5620 C.3   171  LYS171      0.1093
     45  NZ        71.1520  133.2660   58.9900 N.3   171  LYS171     -0.1314
     46  N         72.2810  137.0850   50.8150 N.3   174  VAL174     -0.1231
     47  CA        71.3600  136.2310   50.0680 C.3   174  VAL174      0.1692
     48  C         70.0070  136.2190   50.7560 C.2   174  VAL174      0.2593
     49  O         69.7980  136.9610   51.7260 O.2   174  VAL174     -0.2718
     50  CB        71.8910  134.7910   49.9080 C.3   174  VAL174      0.0266
     51  CG1       73.0590  134.7830   48.9430 C.3   174  VAL174      0.0020
     52  CG2       72.2860  134.2110   51.2500 C.3   174  VAL174      0.0020
     53  N         69.1030  135.3830   50.2390 N.am  175  GLY175     -0.1942
     54  CA        67.8700  135.0700   50.9520 C.3   175  GLY175      0.2014
     55  C         66.7980  136.0970   50.6780 C.2   175  GLY175      0.2638
     56  O         67.0140  136.9940   49.8630 O.2   175  GLY175     -0.2714
     57  N         65.6550  135.9740   51.3570 N.am  176  HIS176     -0.1973
     58  CA        64.5110  136.8270   51.0540 C.3   176  HIS176      0.1656
     59  C         64.7970  138.3020   51.3560 C.2   176  HIS176      0.2291
     60  O         64.4640  139.1850   50.5500 O.2   176  HIS176     -0.2864
     61  CB        63.2530  136.3440   51.7810 C.3   176  HIS176      0.0771
     62  CG        62.7170  135.0510   51.2600 C.ar  176  HIS176      0.0820
     63  ND1       62.2490  134.0530   52.0860 N.ar  176  HIS176     -0.2267
     64  CD2       62.5920  134.5850   49.9940 C.ar  176  HIS176      0.1154
     65  CE1       61.8440  133.0320   51.3530 C.ar  176  HIS176      0.1986
     66  NE2       62.0430  133.3280   50.0780 N.ar  176  HIS176     -0.2212
     67  N         65.9210  140.6910   48.8250 N.3   179  GLU179     -0.1245
     68  CA        65.0090  140.9130   47.7110 C.3   179  GLU179      0.1567
     69  C         64.2910  142.2550   47.8240 C.2   179  GLU179      0.2260
     70  O         64.9190  143.2570   48.1540 O.2   179  GLU179     -0.2867
     71  CB        64.0540  139.7230   47.5280 C.3   179  GLU179      0.0388
     72  CG        64.7930  138.6190   46.7900 C.3   179  GLU179      0.1160
     73  CD        64.1460  137.2630   46.8190 C.2   179  GLU179      0.3649
     74  OE1       63.2860  136.9950   47.6890 O.co2 179  GLU179     -0.2457
     75  OE2       64.5410  136.4600   45.9460 O.co2 179  GLU179     -0.2457
     76  N         67.9050  133.1560   39.8090 N.3   231  TYR231     -0.1241
     77  CA        67.7390  134.1480   40.8710 C.3   231  TYR231      0.1605
     78  C         68.6330  135.3970   40.6840 C.2   231  TYR231      0.2264
     79  O         68.5480  136.3830   41.4370 O.2   231  TYR231     -0.2867
     80  CB        67.9270  133.4860   42.2330 C.3   231  TYR231      0.0534
     81  CG        66.7370  132.6520   42.6320 C.ar  231  TYR231     -0.0201
     82  CD1       66.6670  131.3020   42.3130 C.ar  231  TYR231     -0.0009
     83  CD2       65.6570  133.2310   43.2890 C.ar  231  TYR231     -0.0009
     84  CE1       65.5550  130.5490   42.6570 C.ar  231  TYR231      0.0417
     85  CE2       64.5460  132.4890   43.6400 C.ar  231  TYR231      0.0417
     86  CZ        64.4950  131.1470   43.3260 C.ar  231  TYR231      0.1957
     87  OH        63.3950  130.3790   43.6780 O.3   231  TYR231     -0.2866
     88  N         67.4730  139.0020   42.3470 N.3   235  ARG235     -0.1245
     89  CA        68.4460  139.5310   43.3060 C.3   235  ARG235      0.1563
     90  C         69.1150  140.7790   42.7370 C.2   235  ARG235      0.2260
     91  O         69.3040  141.7760   43.4430 O.2   235  ARG235     -0.2867
     92  CB        69.4930  138.4830   43.6870 C.3   235  ARG235      0.0307
     93  CG        68.9260  137.2650   44.3830 C.3   235  ARG235      0.0489
     94  CD        68.3270  137.5800   45.7710 C.3   235  ARG235      0.2205
     95  NE        67.5970  136.4270   46.3210 N.pl3 235  ARG235     -0.0865
     96  CZ        68.1600  135.3820   46.9160 C.cat 235  ARG235      0.5346
     97  NH1       67.4080  134.3820   47.3540 N.pl3 235  ARG235      0.1354
     98  NH2       69.4730  135.3290   47.0790 N.pl3 235  ARG235      0.1354
     99  N         72.6360  129.5390   49.8820 N.3   379  ASN379     -0.1225
    100  CA        71.3420  129.7970   49.2650 C.3   379  ASN379      0.1785
    101  C         71.2790  129.1450   47.8880 C.2   379  ASN379      0.2597
    102  O         71.4240  127.9230   47.7860 O.2   379  ASN379     -0.2718
    103  CB        71.0830  131.2920   49.1260 C.3   379  ASN379      0.1169
    104  CG        69.5930  131.6360   49.1230 C.2   379  ASN379      0.2627
    105  OD1       69.1950  132.7620   48.7790 O.2   379  ASN379     -0.2716
    106  ND2       68.7610  130.6580   49.4900 N.am  379  ASN379     -0.0877
    107  N         71.1070  129.9470   46.8430 N.am  380  HIS380     -0.1975
    108  CA        70.9340  129.4270   45.4830 C.3   380  HIS380      0.1656
    109  C         72.1950  129.0150   44.7090 C.2   380  HIS380      0.2291
    110  O         72.1070  128.5530   43.5510 O.2   380  HIS380     -0.2864
    111  CB        70.0890  130.3880   44.6410 C.3   380  HIS380      0.0771
    112  CG        68.6610  130.4670   45.0850 C.ar  380  HIS380      0.0820
    113  ND1       67.7980  129.3950   45.0130 N.ar  380  HIS380     -0.2267
    114  CD2       67.9430  131.4910   45.6020 C.ar  380  HIS380      0.1154
    115  CE1       66.6170  129.7520   45.4820 C.ar  380  HIS380      0.1986
    116  NE2       66.6760  131.0200   45.8420 N.ar  380  HIS380     -0.2212
    117  N         66.2470  122.3500   39.7060 N.3   403  TYR403     -0.1241
    118  CA        65.6460  123.0160   40.8520 C.3   403  TYR403      0.1605
    119  C         64.3260  122.3730   41.2680 C.2   403  TYR403      0.2264
    120  O         64.1780  121.9440   42.4220 O.2   403  TYR403     -0.2867
    121  CB        65.4310  124.5040   40.5290 C.3   403  TYR403      0.0534
    122  CG        65.0730  125.3710   41.7190 C.ar  403  TYR403     -0.0201
    123  CD1       65.7810  125.2740   42.8990 C.ar  403  TYR403     -0.0009
    124  CD2       64.0440  126.3170   41.6480 C.ar  403  TYR403     -0.0009
    125  CE1       65.4700  126.0670   43.9840 C.ar  403  TYR403      0.0417
    126  CE2       63.7260  127.1160   42.7250 C.ar  403  TYR403      0.0417
    127  CZ        64.4420  126.9870   43.8990 C.ar  403  TYR403      0.1957
    128  OH        64.1340  127.7700   45.0060 O.3   403  TYR403     -0.2866
    129  N         62.6370  123.8910   46.4840 N.3   410  TYR410     -0.1227
    130  CA        63.9140  124.2330   47.1080 C.3   410  TYR410      0.1736
    131  C         64.2400  123.2240   48.1890 C.2   410  TYR410      0.2595
    132  O         65.4030  122.8850   48.3660 O.2   410  TYR410     -0.2718
    133  CB        63.8550  125.6370   47.7110 C.3   410  TYR410      0.0548
    134  CG        65.1450  126.1680   48.3150 C.ar  410  TYR410     -0.0200
    135  CD1       66.0270  126.9360   47.5570 C.ar  410  TYR410     -0.0009
    136  CD2       65.4690  125.9270   49.6520 C.ar  410  TYR410     -0.0009
    137  CE1       67.2320  127.4410   48.1090 C.ar  410  TYR410      0.0417
    138  CE2       66.6520  126.4080   50.2130 C.ar  410  TYR410      0.0417
    139  CZ        67.5330  127.1670   49.4450 C.ar  410  TYR410      0.1957
    140  OH        68.6870  127.6430   50.0380 O.3   410  TYR410     -0.2866
    141  N         63.2330  122.7470   48.9120 N.am  411  ASN411     -0.1974
    142  CA        63.5040  121.9210   50.0820 C.3   411  ASN411      0.1688
    143  C         63.4650  120.4350   49.7640 C.2   411  ASN411      0.2292
    144  O         63.4170  119.5990   50.6780 O.2   411  ASN411     -0.2864
    145  CB        62.5210  122.2280   51.2090 C.3   411  ASN411      0.1181
    146  CG        62.3480  123.7040   51.4300 C.2   411  ASN411      0.2629
    147  OD1       63.1820  124.3500   52.0410 O.2   411  ASN411     -0.2716
    148  ND2       61.2580  124.2520   50.9240 N.am  411  ASN411     -0.0877
    149  N         69.1700  124.2990   56.5310 N.3   442  TYR442     -0.1227
    150  CA        68.8140  124.4940   55.1200 C.3   442  TYR442      0.1736
    151  C         67.3050  124.5370   54.8900 C.2   442  TYR442      0.2596
    152  O         66.5680  123.6900   55.4120 O.2   442  TYR442     -0.2718
    153  CB        69.4320  123.4060   54.2500 C.3   442  TYR442      0.0548
    154  CG        69.0070  123.4300   52.7920 C.ar  442  TYR442     -0.0200
    155  CD1       69.8620  123.9250   51.8170 C.ar  442  TYR442     -0.0009
    156  CD2       67.7650  122.9400   52.3860 C.ar  442  TYR442     -0.0009
    157  CE1       69.4950  123.9420   50.4950 C.ar  442  TYR442      0.0417
    158  CE2       67.3870  122.9580   51.0620 C.ar  442  TYR442      0.0417
    159  CZ        68.2670  123.4590   50.1230 C.ar  442  TYR442      0.1957
    160  OH        67.9250  123.4660   48.8020 O.3   442  TYR442     -0.2866
    161  N         66.8610  125.5130   54.0930 N.am  443  GLY443     -0.1942
    162  CA        65.4560  125.6670   53.7180 C.3   443  GLY443      0.2014
    163  C         64.5520  126.1240   54.8530 C.2   443  GLY443      0.2639
    164  O         64.9990  126.2760   55.9950 O.2   443  GLY443     -0.2714
    165  N         63.2740  126.3450   54.5500 N.am  444  GLY444     -0.1939
    166  CA        62.3100  126.7430   55.5800 C.3   444  GLY444      0.2014
    167  C         61.1530  125.7670   55.7400 C.2   444  GLY444      0.2639
    168  O         60.0510  126.1300   56.1660 O.2   444  GLY444     -0.2714
    169  N         61.4250  124.5090   55.4000 N.am  445  SER445     -0.1949
    170  CA        60.4280  123.4430   55.4070 C.3   445  SER445      0.1924
    171  C         61.1120  122.0770   55.1600 C.2   445  SER445      0.2314
    172  O         62.1280  122.0030   54.4460 O.2   445  SER445     -0.2863
    173  CB        59.3340  123.7850   54.3820 C.3   445  SER445      0.2116
    174  OG        58.8830  122.6590   53.6700 O.3   445  SER445     -0.2180
    175  N         73.5340  126.9670   56.3620 N.3   465  ILE465     -0.1231
    176  CA        72.8250  128.2210   56.0760 C.3   465  ILE465      0.1692
    177  C         73.7630  129.4150   55.9290 C.2   465  ILE465      0.2591
    178  O         74.8000  129.4980   56.5800 O.2   465  ILE465     -0.2718
    179  CB        71.6730  128.5270   57.0600 C.3   465  ILE465      0.0266
    180  CG1       70.7180  129.5560   56.4260 C.3   465  ILE465      0.0019
    181  CG2       72.2130  128.9170   58.4280 C.3   465  ILE465      0.0020
    182  CD1       69.2490  129.3990   56.8200 C.3   465  ILE465      0.0001
    183  N         73.3820  130.3350   55.0520 N.am  466  ALA466     -0.1980
    184  CA        74.1870  131.5110   54.7640 C.3   466  ALA466      0.1597
    185  C         74.4490  132.3290   56.0190 C.2   466  ALA466      0.2287
    186  O         73.6900  132.2570   56.9910 O.2   466  ALA466     -0.2864
    187  CB        73.4930  132.3600   53.7410 C.3   466  ALA466      0.0319
@<TRIPOS>BOND
     1   117   118    1
     2    76    77    1
     3   121   118    1
     4   121   122    1
     5    78    77    1
     6    78    79    2
     7   118   119    1
     8    77    80    1
     9   119   120    2
    10   124   122   ar
    11   124   126   ar
    12   122   123   ar
    13    80    81    1
    14    82    81   ar
    15    82    84   ar
    16    88    89    1
    17    81    83   ar
    18    84    86   ar
    19   126   127   ar
    20    90    89    1
    21    90    91    2
    22   123   125   ar
    23    83    85   ar
    24    89    92    1
    25    86    85   ar
    26    86    87    1
    27   110   109    2
    28    92    93    1
    29   127   125   ar
    30   127   128    1
    31    93    94    1
    32    18    17    1
    33   111   112    1
    34   111   108    1
    35   109   108    1
    36   113   112   ar
    37   113   115   ar
    38   112   114   ar
    39   115   116   ar
    40   108   107    1
    41   114   116   ar
    42    17    19    1
    43    17    16    2
    44    94    95    1
    45    15    16    1
    46    15    14    1
    47    75    73   ar
    48    95    96    2
    49   129   130    1
    50    72    73    1
    51    72    71    1
    52    73    74   ar
    53   107   101   am
    54    96    98    1
    55    96    97    1
    56    13    14    1
    57    13    10    1
    58   130   133    1
    59   130   131    1
    60     8     6   ar
    61    71    68    1
    62    12    11    2
    63   135   137   ar
    64   135   134   ar
    65   133   134    1
    66    68    69    1
    67    68    67    1
    68   102   101    2
    69    69    70    2
    70   101   100    1
    71    11    10    1
    72     5     6    1
    73     5     2    1
    74     6     7   ar
    75   137   139   ar
    76   131   132    2
    77   131   141   am
    78    10     9    1
    79   134   136   ar
    80   105   104    2
    81   160   159    1
    82     4     3    2
    83   141   142    1
    84    51    50    1
    85   104   103    1
    86   104   106   am
    87   103   100    1
    88     1     2    1
    89   100    99    1
    90     2     3    1
    91   139   140    1
    92   139   138   ar
    93   136   138   ar
    94   143   142    1
    95   143   144    2
    96    56    55    2
    97    50    47    1
    98    50    52    1
    99    64    66   ar
   100    64    62   ar
   101    47    48    1
   102    47    46    1
   103    66    65   ar
   104   142   145    1
   105   159   157   ar
   106   159   158   ar
   107    53    48   am
   108    53    54    1
   109   157   155   ar
   110    60    59    2
   111    55    54    1
   112    55    57   am
   113    48    49    2
   114   148   146   am
   115    58    59    1
   116    58    57    1
   117    58    61    1
   118   158   156   ar
   119   145   146    1
   120    62    61    1
   121    62    63   ar
   122    65    63   ar
   123   146   147    2
   124   155   154   ar
   125   156   154   ar
   126   154   153    1
   127   174   173    1
   128   162   161    1
   129   162   163    1
   130   187   184    1
   131    40    39    2
   132    35    34   ar
   133   161   151   am
   134   153   150    1
   135   173   170    1
   136   172   171    2
   137    27    26   ar
   138    39    38    1
   139   165   163   am
   140   165   166    1
   141   184   183    1
   142   184   185    1
   143   163   164    2
   144    41    38    1
   145    41    42    1
   146    28    26   ar
   147   151   150    1
   148   151   152    2
   149   183   177   am
   150    26    25    1
   151    34    36   ar
   152    34    33    1
   153   150   149    1
   154   171   170    1
   155   169   170    1
   156   169   167   am
   157    38    37    1
   158   166   167    1
   159    42    43    1
   160    24    25    1
   161    24    21    1
   162   167   168    2
   163    37    31   am
   164   177   176    1
   165   177   178    2
   166   185   186    2
   167   176   175    1
   168   176   179    1
   169    20    21    1
   170    33    30    1
   171   180   182    1
   172   180   179    1
   173    21    22    1
   174    43    44    1
   175   179   181    1
   176    31    30    1
   177    31    32    2
   178    30    29    1
   179    22    23    2
   180    44    45    1
