@<TRIPOS>MOLECULE
tmp/3e80B00.pdb
 139 138 0 0 0
SMALL
GASTEIGER

@<TRIPOS>ATOM
      1  N         39.7570  146.9570   37.7750 N.3    57  ASP57      -0.1225
      2  CA        39.7020  145.9930   38.8610 C.3    57  ASP57       0.1805
      3  C         39.8450  144.5950   38.2780 C.2    57  ASP57       0.2597
      4  O         39.5740  144.3610   37.0970 O.2    57  ASP57      -0.2718
      5  CB        38.3840  146.1080   39.6370 C.3    57  ASP57       0.1424
      6  CG        38.4040  147.2150   40.6740 C.2    57  ASP57       0.3668
      7  OD1       39.5090  147.6410   41.0660 O.co2  57  ASP57      -0.2456
      8  OD2       37.3230  147.6700   41.1100 O.co2  57  ASP57      -0.2456
      9  N         40.2950  143.6650   39.1080 N.am   58  TRP58      -0.1976
     10  CA        40.2100  142.2800   38.6980 C.3    58  TRP58       0.1640
     11  C         38.7490  141.9980   38.3380 C.2    58  TRP58       0.2290
     12  O         37.8220  142.4250   39.0430 O.2    58  TRP58      -0.2864
     13  CB        40.6690  141.3360   39.8170 C.3    58  TRP58       0.0576
     14  CG        42.1260  140.9510   39.7730 C.ar   58  TRP58       0.0006
     15  CD1       43.1390  141.5030   40.4970 C.ar   58  TRP58       0.0946
     16  CD2       42.7210  139.9190   38.9680 C.ar   58  TRP58       0.0152
     17  NE1       44.3250  140.8860   40.1920 N.ar   58  TRP58      -0.2442
     18  CE2       44.1010  139.9050   39.2590 C.ar   58  TRP58       0.0810
     19  CE3       42.2210  139.0060   38.0310 C.ar   58  TRP58       0.0012
     20  CZ2       44.9910  139.0110   38.6460 C.ar   58  TRP58       0.0191
     21  CZ3       43.1100  138.1200   37.4190 C.ar   58  TRP58       0.0001
     22  CH2       44.4760  138.1350   37.7270 C.ar   58  TRP58       0.0015
     23  N         46.0250  133.9600   46.6170 N.3    67  LYS67      -0.1245
     24  CA        46.6820  135.1970   46.2280 C.3    67  LYS67       0.1561
     25  C         48.1860  135.1250   46.4790 C.2    67  LYS67       0.2260
     26  O         48.7140  135.5390   47.5140 O.2    67  LYS67      -0.2867
     27  CB        46.0090  136.3940   46.9120 C.3    67  LYS67       0.0271
     28  CG        44.4830  136.3970   46.6950 C.3    67  LYS67       0.0035
     29  CD        43.7580  137.3530   47.6350 C.3    67  LYS67       0.0206
     30  CE        42.2300  137.2540   47.4910 C.3    67  LYS67       0.1093
     31  NZ        41.7410  135.8470   47.3510 N.3    67  LYS67      -0.1314
     32  N         49.9970  136.9700   42.1010 N.3    71  PHE71      -0.1227
     33  CA        48.7310  137.6990   42.0780 C.3    71  PHE71       0.1736
     34  C         48.9870  139.1800   42.2830 C.2    71  PHE71       0.2595
     35  O         48.5210  140.0050   41.5060 O.2    71  PHE71      -0.2718
     36  CB        47.7620  137.2050   43.1560 C.3    71  PHE71       0.0547
     37  CG        46.5460  138.0990   43.3660 C.ar   71  PHE71      -0.0202
     38  CD1       45.4750  138.0880   42.4690 C.ar   71  PHE71      -0.0042
     39  CD2       46.4620  138.9430   44.4700 C.ar   71  PHE71      -0.0042
     40  CE1       44.3660  138.8980   42.6610 C.ar   71  PHE71      -0.0003
     41  CE2       45.3490  139.7550   44.6630 C.ar   71  PHE71      -0.0003
     42  CZ        44.3050  139.7280   43.7600 C.ar   71  PHE71      -0.0000
     43  N         49.7610  139.5210   43.3070 N.am   72  TYR72      -0.1976
     44  CA        49.9870  140.9290   43.6170 C.3    72  TYR72       0.1639
     45  C         50.8870  141.6340   42.5950 C.2    72  TYR72       0.2290
     46  O         50.7230  142.8350   42.3370 O.2    72  TYR72      -0.2864
     47  CB        50.5230  141.0970   45.0420 C.3    72  TYR72       0.0560
     48  CG        49.5110  140.6410   46.0650 C.ar   72  TYR72      -0.0198
     49  CD1       49.5700  139.3710   46.6370 C.ar   72  TYR72      -0.0009
     50  CD2       48.4710  141.4750   46.4390 C.ar   72  TYR72      -0.0009
     51  CE1       48.6190  138.9620   47.5580 C.ar   72  TYR72       0.0417
     52  CE2       47.5240  141.0740   47.3680 C.ar   72  TYR72       0.0417
     53  CZ        47.5900  139.8170   47.9260 C.ar   72  TYR72       0.1957
     54  OH        46.6290  139.4190   48.8450 O.3    72  TYR72      -0.2866
     55  N         49.6290  143.5090   39.2750 N.3    75  GLN75      -0.1231
     56  CA        48.8800  144.5600   39.9530 C.3    75  GLN75       0.1698
     57  C         47.6850  145.0960   39.1580 C.2    75  GLN75       0.2592
     58  O         47.7730  145.3030   37.9470 O.2    75  GLN75      -0.2718
     59  CB        49.8430  145.6860   40.2710 C.3    75  GLN75       0.0381
     60  CG        49.3740  146.6420   41.3270 C.3    75  GLN75       0.0905
     61  CD        50.3540  147.7860   41.5060 C.2    75  GLN75       0.2608
     62  OE1       51.4390  147.7960   40.9190 O.2    75  GLN75      -0.2717
     63  NE2       49.9830  148.7560   42.3250 N.am   75  GLN75      -0.0878
     64  N         46.5720  145.3160   39.8500 N.am   76  LYS76      -0.1966
     65  CA        45.3500  145.8380   39.2320 C.3    76  LYS76       0.1728
     66  C         44.5150  146.6750   40.2010 C.2    76  LYS76       0.2617
     67  O         44.5720  146.4750   41.4100 O.2    76  LYS76      -0.2715
     68  CB        44.4730  144.7020   38.6840 C.3    76  LYS76       0.0311
     69  CG        45.0520  143.9070   37.5130 C.3    76  LYS76       0.0038
     70  CD        44.1490  142.7390   37.1670 C.3    76  LYS76       0.0206
     71  CE        44.8240  141.7910   36.2130 C.3    76  LYS76       0.1093
     72  NZ        43.8210  141.3470   35.2320 N.3    76  LYS76      -0.1314
     73  N         43.7530  147.6270   39.6710 N.am   77  GLY77      -0.1940
     74  CA        42.7660  148.3460   40.4730 C.3    77  GLY77       0.2014
     75  C         43.1710  149.5790   41.2610 C.2    77  GLY77       0.2639
     76  O         44.0600  150.3340   40.8530 O.2    77  GLY77      -0.2714
     77  N         42.5080  149.7800   42.3980 N.am   78  LEU78      -0.1963
     78  CA        42.6790  150.9870   43.2070 C.3    78  LEU78       0.1728
     79  C         44.1290  151.4340   43.4160 C.2    78  LEU78       0.2616
     80  O         44.4260  152.6190   43.3210 O.2    78  LEU78      -0.2715
     81  CB        41.9600  150.8390   44.5540 C.3    78  LEU78       0.0311
     82  CG        41.8440  152.0850   45.4390 C.3    78  LEU78       0.0022
     83  CD1       41.0250  153.2040   44.7840 C.3    78  LEU78       0.0001
     84  CD2       41.2640  151.7400   46.8040 C.3    78  LEU78       0.0001
     85  N         45.0340  150.5040   43.6960 N.am   79  THR79      -0.1951
     86  CA        46.4210  150.8850   43.9370 C.3    79  THR79       0.1897
     87  C         47.1250  151.3960   42.6790 C.2    79  THR79       0.2313
     88  O         47.9460  152.3060   42.7650 O.2    79  THR79      -0.2863
     89  CB        47.2300  149.7570   44.5580 C.3    79  THR79       0.1794
     90  OG1       47.2800  148.6550   43.6470 O.3    79  THR79      -0.2208
     91  CG2       46.5920  149.3510   45.8540 C.3    79  THR79       0.0378
     92  N         42.0500  151.8240   53.1680 N.3   108  THR108     -0.1218
     93  CA        42.4730  150.4620   52.8670 C.3   108  THR108      0.1862
     94  C         43.9260  150.1750   53.2680 C.2   108  THR108      0.2287
     95  O         44.2610  149.0590   53.6650 O.2   108  THR108     -0.2866
     96  CB        42.2370  150.1110   51.3830 C.3   108  THR108      0.1770
     97  OG1       42.4220  148.7010   51.1870 O.3   108  THR108     -0.2211
     98  CG2       43.1820  150.8800   50.4590 C.3   108  THR108      0.0375
     99  N         43.5510  149.1390   56.7120 N.3   111  THR111     -0.1203
    100  CA        42.7320  147.9330   56.9250 C.3   111  THR111      0.1994
    101  C         43.2560  146.6350   56.2910 C.2   111  THR111      0.2618
    102  O         42.9250  145.5180   56.7230 O.2   111  THR111     -0.2717
    103  CB        41.3010  148.1920   56.4230 C.3   111  THR111      0.1784
    104  OG1       40.5090  148.5500   57.5520 O.3   111  THR111     -0.2211
    105  CG2       40.6610  146.9580   55.7630 C.3   111  THR111      0.0376
    106  N         44.0890  146.7870   55.2680 N.am  112  ALA112     -0.1965
    107  CA        44.5490  145.6380   54.4820 C.3   112  ALA112      0.1728
    108  C         44.9580  144.3960   55.2860 C.2   112  ALA112      0.2617
    109  O         45.7860  144.4300   56.2050 O.2   112  ALA112     -0.2715
    110  CB        45.6480  146.0590   53.5140 C.3   112  ALA112      0.0334
    111  N         44.3310  143.2890   54.8950 N.am  113  THR113     -0.1937
    112  CA        44.5440  141.9790   55.4740 C.3   113  THR113      0.2028
    113  C         45.2880  141.1750   54.4100 C.2   113  THR113      0.2642
    114  O         45.0900  141.4030   53.2110 O.2   113  THR113     -0.2714
    115  CB        43.1750  141.3510   55.7820 C.3   113  THR113      0.1808
    116  OG1       43.2510  140.6200   57.0040 O.3   113  THR113     -0.2208
    117  CG2       42.6990  140.4270   54.6480 C.3   113  THR113      0.0379
    118  N         46.1700  140.2650   54.8150 N.am  114  PHE114     -0.1973
    119  CA        46.8540  139.4360   53.8250 C.3   114  PHE114      0.1639
    120  C         46.8260  137.9860   54.2320 C.2   114  PHE114      0.2290
    121  O         47.3210  137.6500   55.3050 O.2   114  PHE114     -0.2864
    122  CB        48.2860  139.9050   53.6140 C.3   114  PHE114      0.0560
    123  CG        48.3830  141.1730   52.8080 C.ar  114  PHE114     -0.0200
    124  CD1       48.3520  142.4100   53.4400 C.ar  114  PHE114     -0.0042
    125  CD2       48.4760  141.1370   51.4250 C.ar  114  PHE114     -0.0042
    126  CE1       48.4150  143.5870   52.7110 C.ar  114  PHE114     -0.0003
    127  CE2       48.5580  142.3100   50.6840 C.ar  114  PHE114     -0.0003
    128  CZ        48.5250  143.5370   51.3320 C.ar  114  PHE114     -0.0000
    129  N         52.1970  146.7720   48.4020 N.3   127  PHE127     -0.1241
    130  CA        51.1150  147.5860   48.9560 C.3   127  PHE127      0.1605
    131  C         51.7170  148.8020   49.6710 C.2   127  PHE127      0.2264
    132  O         51.2360  149.9340   49.5280 O.2   127  PHE127     -0.2867
    133  CB        50.2130  146.7400   49.8690 C.3   127  PHE127      0.0534
    134  CG        48.8960  147.4000   50.2390 C.ar  127  PHE127     -0.0203
    135  CD1       47.9800  147.7670   49.2730 C.ar  127  PHE127     -0.0042
    136  CD2       48.5680  147.6270   51.5710 C.ar  127  PHE127     -0.0042
    137  CE1       46.7900  148.3590   49.6180 C.ar  127  PHE127     -0.0003
    138  CE2       47.3810  148.2140   51.9260 C.ar  127  PHE127     -0.0003
    139  CZ        46.4920  148.5820   50.9460 C.ar  127  PHE127     -0.0000
@<TRIPOS>BOND
     1    72    71    1
     2    71    70    1
     3     4     3    2
     4    70    69    1
     5    21    22   ar
     6    21    19   ar
     7    69    68    1
     8    22    20   ar
     9     1     2    1
    10    58    57    2
    11    19    16   ar
    12     3     2    1
    13     3     9   am
    14    11    10    1
    15    11    12    2
    16    20    18   ar
    17    68    65    1
    18    10     9    1
    19    10    13    1
    20     2     5    1
    21    16    18   ar
    22    16    14   ar
    23    57    64   am
    24    57    56    1
    25    65    64    1
    26    65    66    1
    27    18    17   ar
    28    55    56    1
    29     5     6    1
    30    73    66   am
    31    73    74    1
    32    14    13    1
    33    14    15   ar
    34    56    59    1
    35    17    15   ar
    36    66    67    2
    37    59    60    1
    38    74    75    1
    39     6     7   ar
    40     6     8   ar
    41    76    75    2
    42    62    61    2
    43    75    77   am
    44    60    61    1
    45    35    34    2
    46    61    63   am
    47    33    32    1
    48    33    34    1
    49    33    36    1
    50    34    43   am
    51    46    45    2
    52    77    78    1
    53    38    40   ar
    54    38    37   ar
    55    45    44    1
    56    40    42   ar
    57    87    88    2
    58    87    86    1
    59    36    37    1
    60    78    79    1
    61    78    81    1
    62    43    44    1
    63    80    79    2
    64    37    39   ar
    65    79    85   am
    66    44    47    1
    67    90    89    1
    68    85    86    1
    69    42    41   ar
    70    86    89    1
    71    39    41   ar
    72    81    82    1
    73    89    91    1
    74    83    82    1
    75    47    48    1
    76    82    84    1
    77    48    50   ar
    78    48    49   ar
    79    24    25    1
    80    24    23    1
    81    24    27    1
    82    50    52   ar
    83    25    26    2
    84    49    51   ar
    85    28    27    1
    86    28    29    1
    87    31    30    1
    88    52    53   ar
    89    30    29    1
    90    51    53   ar
    91    53    54    1
    92   129   130    1
    93   130   131    1
    94   130   133    1
    95   135   137   ar
    96   135   134   ar
    97   132   131    2
    98   137   139   ar
    99   133   134    1
   100   134   136   ar
   101    98    96    1
   102   127   128   ar
   103   127   125   ar
   104   139   138   ar
   105    97    96    1
   106   128   126   ar
   107    96    93    1
   108   125   123   ar
   109   136   138   ar
   110   126   124   ar
   111   123   124   ar
   112   123   122    1
   113    93    92    1
   114    93    94    1
   115   114   113    2
   116    94    95    2
   117   110   107    1
   118   122   119    1
   119   119   120    1
   120   119   118    1
   121   120   121    2
   122   113   118   am
   123   113   112    1
   124   107   106    1
   125   107   108    1
   126   117   115    1
   127   111   108   am
   128   111   112    1
   129   106   101   am
   130   108   109    2
   131   112   115    1
   132   105   103    1
   133   115   116    1
   134   101   102    2
   135   101   100    1
   136   103   100    1
   137   103   104    1
   138    99   100    1
