@<TRIPOS>MOLECULE
tmp/3e81C00.pdb
 80 75 0 0 0
SMALL
GASTEIGER

@<TRIPOS>ATOM
      1  N        -35.1160   19.0240  -38.3910 N.3    10  ASP10      -0.1239
      2  CA       -34.8700   19.8310  -37.2060 C.3    10  ASP10       0.1674
      3  C        -33.7330   19.2220  -36.3740 C.2    10  ASP10       0.2266
      4  O        -33.3170   18.1290  -36.6200 O.2    10  ASP10      -0.2867
      5  CB       -36.2340   19.7140  -36.4900 C.3    10  ASP10       0.1410
      6  CG       -36.2050   20.4820  -35.1720 C.2    10  ASP10       0.3668
      7  OD1      -36.7800   20.0660  -34.2310 O.co2  10  ASP10      -0.2456
      8  OD2      -35.6920   21.7660  -35.2220 O.co2  10  ASP10      -0.2456
      9  N        -33.2030   20.1500  -32.3780 N.3    12  ASP12      -0.1239
     10  CA       -33.5840   19.9430  -30.9820 C.3    12  ASP12       0.1674
     11  C        -34.8420   19.0850  -30.8760 C.2    12  ASP12       0.2266
     12  O        -35.8680   19.4040  -31.4580 O.2    12  ASP12      -0.2867
     13  CB       -33.7790   21.2920  -30.2850 C.3    12  ASP12       0.1410
     14  CG       -32.5020   22.1250  -30.2700 C.2    12  ASP12       0.3668
     15  OD1      -32.4100   23.0930  -31.0560 O.co2  12  ASP12      -0.2456
     16  OD2      -31.5980   21.8040  -29.4750 O.co2  12  ASP12      -0.2456
     17  N        -30.9320   20.8680  -23.3730 N.3    20  MET20      -0.1245
     18  CA       -30.0830   22.0310  -23.5450 C.3    20  MET20       0.1570
     19  C        -29.3340   22.2200  -22.2370 C.2    20  MET20       0.2261
     20  O        -29.9340   22.5690  -21.2290 O.2    20  MET20      -0.2867
     21  CB       -30.9350   23.2570  -23.8710 C.3    20  MET20       0.0387
     22  CG       -31.6850   23.1270  -25.1920 C.3    20  MET20       0.0595
     23  SD       -32.7820   24.5280  -25.4680 S.3    20  MET20      -0.1393
     24  CE       -32.8590   24.4910  -27.2570 C.3    20  MET20       0.0692
     25  N        -26.8470   24.0010  -19.7130 N.3    22  TYR22      -0.1241
     26  CA       -26.2950   25.3160  -19.4070 C.3    22  TYR22       0.1605
     27  C        -25.3380   25.1990  -18.2370 C.2    22  TYR22       0.2264
     28  O        -25.6480   24.5230  -17.2530 O.2    22  TYR22      -0.2867
     29  CB       -27.4130   26.2620  -18.9460 C.3    22  TYR22       0.0534
     30  CG       -28.3000   26.8410  -20.0250 C.ar   22  TYR22      -0.0201
     31  CD1      -28.5940   26.1430  -21.1870 C.ar   22  TYR22      -0.0009
     32  CD2      -28.9080   28.0780  -19.8350 C.ar   22  TYR22      -0.0009
     33  CE1      -29.4320   26.6990  -22.1620 C.ar   22  TYR22       0.0417
     34  CE2      -29.7380   28.6360  -20.7990 C.ar   22  TYR22       0.0417
     35  CZ       -29.9940   27.9490  -21.9540 C.ar   22  TYR22       0.1957
     36  OH       -30.8340   28.5260  -22.8860 O.3    22  TYR22      -0.2866
     37  N        -33.0490   24.7720  -38.3190 N.3    54  THR54      -0.1203
     38  CA       -33.2250   24.9490  -36.8780 C.3    54  THR54       0.1994
     39  C        -33.4670   26.4210  -36.5430 C.2    54  THR54       0.2618
     40  O        -32.9360   27.3160  -37.2080 O.2    54  THR54      -0.2717
     41  CB       -32.0070   24.4000  -36.0910 C.3    54  THR54       0.1784
     42  OG1      -32.1710   24.6630  -34.6940 O.3    54  THR54      -0.2211
     43  CG2      -30.7080   25.0460  -36.5620 C.3    54  THR54       0.0376
     44  N        -34.2780   26.6650  -35.5200 N.am   55  GLY55      -0.1942
     45  CA       -34.5620   28.0200  -35.0710 C.3    55  GLY55       0.2014
     46  C        -33.5030   28.5460  -34.1170 C.2    55  GLY55       0.2638
     47  O        -33.4180   29.7560  -33.8910 O.2    55  GLY55      -0.2714
     48  N        -32.7030   27.6430  -33.5500 N.am   56  GLU56      -0.1977
     49  CA       -31.5540   28.0330  -32.7420 C.3    56  GLU56       0.1602
     50  C        -30.3900   28.4100  -33.6570 C.2    56  GLU56       0.2287
     51  O        -30.4080   28.0980  -34.8430 O.2    56  GLU56      -0.2864
     52  CB       -31.1440   26.9000  -31.8010 C.3    56  GLU56       0.0415
     53  CG       -32.2340   26.4920  -30.8270 C.3    56  GLU56       0.1163
     54  CD       -32.5140   27.5710  -29.7970 C.2    56  GLU56       0.3649
     55  OE1      -31.5500   28.0610  -29.1770 O.co2  56  GLU56      -0.2457
     56  OE2      -33.6930   27.9110  -29.6020 O.co2  56  GLU56      -0.2457
     57  N        -42.0150   19.9280  -33.0170 N.3   104  ASP104     -0.1225
     58  CA       -42.7040   20.9500  -32.2240 C.3   104  ASP104      0.1805
     59  C        -43.4080   22.0260  -33.0530 C.2   104  ASP104      0.2598
     60  O        -43.4630   21.9630  -34.2820 O.2   104  ASP104     -0.2718
     61  CB       -41.7330   21.5750  -31.1970 C.3   104  ASP104      0.1424
     62  CG       -42.3910   21.8400  -29.8360 C.2   104  ASP104      0.3668
     63  OD1      -43.5910   22.1750  -29.7910 O.co2 104  ASP104     -0.2456
     64  OD2      -41.7020   21.7230  -28.8030 O.co2 104  ASP104     -0.2456
     65  N        -43.9500   23.0100  -32.3530 N.am  105  LEU105     -0.1966
     66  CA       -44.7990   24.0290  -32.9560 C.3   105  LEU105      0.1728
     67  C        -44.2040   24.6670  -34.2110 C.2   105  LEU105      0.2616
     68  O        -44.9160   24.8890  -35.1960 O.2   105  LEU105     -0.2715
     69  CB       -45.1190   25.1080  -31.9190 C.3   105  LEU105      0.0311
     70  CG       -45.9430   24.6540  -30.7110 C.3   105  LEU105      0.0022
     71  CD1      -46.1700   25.8040  -29.7450 C.3   105  LEU105      0.0001
     72  CD2      -47.2640   24.0670  -31.1680 C.3   105  LEU105      0.0001
     73  N        -42.9100   24.9700  -34.1760 N.am  106  ASN106     -0.1972
     74  CA       -42.2830   25.6490  -35.3130 C.3   106  ASN106      0.1688
     75  C        -42.0960   24.7710  -36.5590 C.2   106  ASN106      0.2292
     76  O        -41.7080   25.2670  -37.6240 O.2   106  ASN106     -0.2864
     77  CB       -40.9780   26.3850  -34.9010 C.3   106  ASN106      0.1181
     78  CG       -39.8250   25.4350  -34.5370 C.2   106  ASN106      0.2629
     79  OD1      -40.0010   24.2240  -34.4500 O.2   106  ASN106     -0.2716
     80  ND2      -38.6320   26.0050  -34.3100 N.am  106  ASN106     -0.0877
@<TRIPOS>BOND
     1     1     2    1
     2    37    38    1
     3    76    75    2
     4    40    39    2
     5     2     5    1
     6     2     3    1
     7    38    39    1
     8    38    41    1
     9     4     3    2
    10    43    41    1
    11    75    74    1
    12    39    44   am
    13     5     6    1
    14    41    42    1
    15    44    45    1
    16    74    77    1
    17    74    73    1
    18     8     6   ar
    19    68    67    2
    20     6     7   ar
    21    45    46    1
    22    77    78    1
    23    51    50    2
    24    78    79    2
    25    78    80   am
    26    60    59    2
    27    67    73   am
    28    67    66    1
    29    46    47    2
    30    46    48   am
    31    50    49    1
    32    48    49    1
    33    59    65   am
    34    59    58    1
    35    57    58    1
    36    66    65    1
    37    66    69    1
    38    49    52    1
    39     9    10    1
    40    58    61    1
    41    69    70    1
    42    52    53    1
    43    12    11    2
    44    61    62    1
    45    72    70    1
    46    15    14   ar
    47    10    11    1
    48    10    13    1
    49    53    54    1
    50    70    71    1
    51    13    14    1
    52    14    16   ar
    53    62    63   ar
    54    62    64   ar
    55    54    56   ar
    56    54    55   ar
    57    24    23    1
    58    23    22    1
    59    22    21    1
    60    21    18    1
    61    18    17    1
    62    18    19    1
    63    36    35    1
    64    19    20    2
    65    33    35   ar
    66    33    31   ar
    67    35    34   ar
    68    31    30   ar
    69    34    32   ar
    70    30    32   ar
    71    30    29    1
    72    25    26    1
    73    26    29    1
    74    26    27    1
    75    27    28    2
