@<TRIPOS>MOLECULE
tmp/3e85A02.pdb
 137 132 0 0 0
SMALL
GASTEIGER

@<TRIPOS>ATOM
      1  N         11.6930   17.7900   67.1200 N.3     9  TYR9       -0.1241
      2  CA        12.7970   17.6510   68.0840 C.3     9  TYR9        0.1605
      3  C         13.3710   19.0820   68.2500 C.2     9  TYR9        0.2264
      4  O         13.3900   19.8610   67.3090 O.2     9  TYR9       -0.2867
      5  CB        13.8610   16.6940   67.5160 C.3     9  TYR9        0.0534
      6  CG        13.4310   15.2580   67.4010 C.ar    9  TYR9       -0.0201
      7  CD1       13.6320   14.3770   68.4580 C.ar    9  TYR9       -0.0009
      8  CD2       12.7600   14.7910   66.2770 C.ar    9  TYR9       -0.0009
      9  CE1       13.2340   13.0510   68.3630 C.ar    9  TYR9        0.0417
     10  CE2       12.3360   13.4480   66.1620 C.ar    9  TYR9        0.0417
     11  CZ        12.5940   12.5800   67.1780 C.ar    9  TYR9        0.1957
     12  OH        12.1870   11.2490   67.1080 O.3     9  TYR9       -0.2866
     13  N         25.0440   17.1560   61.2800 N.3    22  LEU22      -0.1245
     14  CA        24.2580   15.9540   61.0880 C.3    22  LEU22       0.1561
     15  C         24.1430   15.5190   59.6510 C.2    22  LEU22       0.2260
     16  O         23.5070   14.5100   59.3880 O.2    22  LEU22      -0.2867
     17  CB        22.8470   16.1780   61.5810 C.3    22  LEU22       0.0270
     18  CG        22.7470   16.3450   63.0930 C.3    22  LEU22       0.0019
     19  CD1       21.3700   17.0040   63.3240 C.3    22  LEU22       0.0001
     20  CD2       22.9430   14.9810   63.7290 C.3    22  LEU22       0.0001
     21  N         15.8090   10.8990   54.1020 N.3    82  TYR82      -0.1241
     22  CA        16.3710    9.5410   53.9320 C.3    82  TYR82       0.1605
     23  C         15.3960    8.3890   54.1830 C.2    82  TYR82       0.2264
     24  O         14.3200    8.5680   54.7400 O.2    82  TYR82      -0.2867
     25  CB        17.5600    9.3650   54.8430 C.3    82  TYR82       0.0534
     26  CG        17.2400    9.4850   56.3220 C.ar   82  TYR82      -0.0201
     27  CD1       17.1110    8.3710   57.1010 C.ar   82  TYR82      -0.0009
     28  CD2       17.0670   10.7260   56.9320 C.ar   82  TYR82      -0.0009
     29  CE1       16.8720    8.4820   58.4610 C.ar   82  TYR82       0.0417
     30  CE2       16.7930   10.8270   58.2780 C.ar   82  TYR82       0.0417
     31  CZ        16.7210    9.7190   59.0340 C.ar   82  TYR82       0.1957
     32  OH        16.4590    9.8220   60.3870 O.3    82  TYR82      -0.2866
     33  N         12.0750    9.1790   56.0420 N.3    99  PHE99      -0.1241
     34  CA        12.0240   10.3470   56.9160 C.3    99  PHE99       0.1605
     35  C         12.2390   11.5780   56.0240 C.2    99  PHE99       0.2264
     36  O         13.0890   11.5590   55.1230 O.2    99  PHE99      -0.2867
     37  CB        13.0780   10.2750   58.0040 C.3    99  PHE99       0.0534
     38  CG        12.9990    9.0180   58.8540 C.ar   99  PHE99      -0.0203
     39  CD1       12.4650    9.0470   60.1190 C.ar   99  PHE99      -0.0042
     40  CD2       13.4260    7.7870   58.3200 C.ar   99  PHE99      -0.0042
     41  CE1       12.3620    7.8580   60.8820 C.ar   99  PHE99      -0.0003
     42  CE2       13.3650    6.6350   59.0620 C.ar   99  PHE99      -0.0003
     43  CZ        12.8280    6.6630   60.3420 C.ar   99  PHE99      -0.0000
     44  N         13.0820   15.4960   56.5810 N.3   101  THR101     -0.1203
     45  CA        13.4690   16.3080   57.7260 C.3   101  THR101      0.1994
     46  C         13.8180   17.7200   57.2650 C.2   101  THR101      0.2618
     47  O         14.3550   17.9270   56.2090 O.2   101  THR101     -0.2717
     48  CB        14.6870   15.7630   58.5000 C.3   101  THR101      0.1784
     49  OG1       15.9050   16.0590   57.7610 O.3   101  THR101     -0.2211
     50  CG2       14.5610   14.3000   58.7330 C.3   101  THR101      0.0376
     51  N         13.5380   18.6720   58.1500 N.am  102  LYS102     -0.1965
     52  CA        13.8280   20.0670   57.9360 C.3   102  LYS102      0.1728
     53  C         14.3030   20.5840   59.2950 C.2   102  LYS102      0.2616
     54  O         13.7640   20.2240   60.3260 O.2   102  LYS102     -0.2715
     55  CB        12.5640   20.8260   57.5350 C.3   102  LYS102      0.0311
     56  CG        11.9420   20.5760   56.1540 C.3   102  LYS102      0.0038
     57  CD        12.7760   21.1560   55.0250 C.3   102  LYS102      0.0206
     58  CE        11.9540   21.1110   53.6930 C.3   102  LYS102      0.1093
     59  NZ        11.2680   19.7540   53.7190 N.3   102  LYS102     -0.1314
     60  N         15.3210   21.4300   59.3120 N.am  103  LEU103     -0.1977
     61  CA        15.7110   22.1410   60.5270 C.3   103  LEU103      0.1596
     62  C         15.3210   23.6220   60.4160 C.2   103  LEU103      0.2287
     63  O         15.6020   24.2920   59.3850 O.2   103  LEU103     -0.2864
     64  CB        17.2120   22.0170   60.7080 C.3   103  LEU103      0.0297
     65  CG        17.7030   20.6960   61.3160 C.3   103  LEU103      0.0022
     66  CD1       19.1880   20.5350   60.9820 C.3   103  LEU103      0.0001
     67  CD2       17.4410   20.6980   62.8140 C.3   103  LEU103      0.0001
     68  N         13.8380   20.4180   64.7290 N.3   113  GLY113     -0.1210
     69  CA        14.0010   19.4470   63.6870 C.3   113  GLY113      0.1956
     70  C         12.6470   18.8230   63.4590 C.2   113  GLY113      0.2612
     71  O         12.0800   18.1710   64.3470 O.2   113  GLY113     -0.2717
     72  N         12.1160   19.0510   62.2740 N.am  114  LYS114     -0.1965
     73  CA        10.8070   18.6080   61.9010 C.3   114  LYS114      0.1728
     74  C         10.9620   17.3420   61.0760 C.2   114  LYS114      0.2616
     75  O         11.6560   17.3610   60.0770 O.2   114  LYS114     -0.2715
     76  CB        10.1290   19.7140   61.0900 C.3   114  LYS114      0.0311
     77  CG         9.6480   20.8840   61.9670 C.3   114  LYS114      0.0038
     78  CD         8.8560   21.9460   61.1890 C.3   114  LYS114      0.0206
     79  CE         8.5390   23.1860   62.0010 C.3   114  LYS114      0.1093
     80  NZ         7.2130   23.1620   62.6860 N.3   114  LYS114     -0.1314
     81  N         10.3100   16.2460   61.5210 N.am  115  VAL115     -0.1977
     82  CA        10.4490   14.9450   60.8730 C.3   115  VAL115      0.1596
     83  C          9.0930   14.3890   60.5130 C.2   115  VAL115      0.2287
     84  O          8.2370   14.2200   61.3770 O.2   115  VAL115     -0.2864
     85  CB        11.2000   13.9430   61.7850 C.3   115  VAL115      0.0276
     86  CG1       11.6120   12.6710   60.9970 C.3   115  VAL115      0.0022
     87  CG2       12.4660   14.6040   62.3600 C.3   115  VAL115      0.0022
     88  N          7.5090   11.0010   58.9240 N.3   117  ILE117     -0.1245
     89  CA         7.8830    9.5960   58.8080 C.3   117  ILE117      0.1561
     90  C          6.7670    8.9200   57.9850 C.2   117  ILE117      0.2260
     91  O          5.5860    9.0560   58.3130 O.2   117  ILE117     -0.2867
     92  CB         7.9740    8.8460   60.1720 C.3   117  ILE117      0.0252
     93  CG1        8.8600    9.5550   61.1890 C.3   117  ILE117      0.0019
     94  CG2        8.4850    7.4120   59.9530 C.3   117  ILE117      0.0019
     95  CD1        9.0660    8.7080   62.4450 C.3   117  ILE117      0.0001
     96  N         11.7980    4.4200   69.6680 N.3   135  ALA135     -0.1245
     97  CA        12.4080    5.1810   68.6200 C.3   135  ALA135      0.1562
     98  C         12.3770    6.6910   68.8800 C.2   135  ALA135      0.2260
     99  O         13.3710    7.3630   68.6460 O.2   135  ALA135     -0.2867
    100  CB        11.7060    4.8720   67.2600 C.3   135  ALA135      0.0290
    101  N         14.9670    7.2620   71.6370 N.3   138  ARG138     -0.1231
    102  CA        16.2820    7.1660   71.0690 C.3   138  ARG138      0.1694
    103  C         16.6300    8.4040   70.2750 C.2   138  ARG138      0.2592
    104  O         17.7900    8.8450   70.2880 O.2   138  ARG138     -0.2718
    105  CB        16.4060    5.9070   70.1980 C.3   138  ARG138      0.0321
    106  CG        16.4230    4.6420   70.9860 C.3   138  ARG138      0.0489
    107  CD        17.0860    3.4750   70.1800 C.3   138  ARG138      0.2205
    108  NE        16.5460    3.3670   68.8270 N.pl3 138  ARG138     -0.0865
    109  CZ        15.4290    2.7140   68.4970 C.cat 138  ARG138      0.5346
    110  NH1       14.7160    2.0760   69.4150 N.pl3 138  ARG138      0.1354
    111  NH2       15.0300    2.6970   67.2240 N.pl3 138  ARG138      0.1354
    112  N         15.6280    8.9740   69.5930 N.am  139  GLY139     -0.1957
    113  CA        15.8250   10.1560   68.7620 C.3   139  GLY139      0.1869
    114  C         16.1820   11.3650   69.6170 C.2   139  GLY139      0.2309
    115  O         17.0750   12.1480   69.3240 O.2   139  GLY139     -0.2863
    116  N         19.7380   10.9910   71.0670 N.3   142  PHE142     -0.1227
    117  CA        20.6120   11.3160   69.9400 C.3   142  PHE142      0.1736
    118  C         20.7660   12.7950   69.6690 C.2   142  PHE142      0.2595
    119  O         21.8670   13.3020   69.4940 O.2   142  PHE142     -0.2718
    120  CB        19.9900   10.6610   68.6800 C.3   142  PHE142      0.0547
    121  CG        20.7240   10.9850   67.4290 C.ar  142  PHE142     -0.0202
    122  CD1       21.8940   10.3300   67.1180 C.ar  142  PHE142     -0.0042
    123  CD2       20.2790   11.9830   66.6040 C.ar  142  PHE142     -0.0042
    124  CE1       22.6280   10.6310   65.9520 C.ar  142  PHE142     -0.0003
    125  CE2       20.9990   12.3260   65.4740 C.ar  142  PHE142     -0.0003
    126  CZ        22.1790   11.6270   65.1370 C.ar  142  PHE142     -0.0000
    127  N         19.6540   13.5160   69.6110 N.am  143  PHE143     -0.1976
    128  CA        19.7070   14.9250   69.2250 C.3   143  PHE143      0.1639
    129  C         20.3510   15.6800   70.4040 C.2   143  PHE143      0.2290
    130  O         21.1220   16.6180   70.2390 O.2   143  PHE143     -0.2864
    131  CB        18.2670   15.3580   68.9910 C.3   143  PHE143      0.0560
    132  CG        18.0710   16.4790   67.9880 C.ar  143  PHE143     -0.0200
    133  CD1       17.2540   17.5500   68.3020 C.ar  143  PHE143     -0.0042
    134  CD2       18.5930   16.4130   66.7530 C.ar  143  PHE143     -0.0042
    135  CE1       17.0720   18.5890   67.4020 C.ar  143  PHE143     -0.0003
    136  CE2       18.3590   17.4160   65.8410 C.ar  143  PHE143     -0.0003
    137  CZ        17.5930   18.4960   66.1720 C.ar  143  PHE143     -0.0000
@<TRIPOS>BOND
     1    58    59    1
     2    58    57    1
     3    22    21    1
     4    22    23    1
     5    22    25    1
     6    23    24    2
     7    25    26    1
     8    57    56    1
     9    36    35    2
    10    35    34    1
    11    33    34    1
    12    56    55    1
    13    47    46    2
    14    26    28   ar
    15    26    27   ar
    16    44    45    1
    17    34    37    1
    18    28    30   ar
    19    27    29   ar
    20    46    45    1
    21    46    51   am
    22    55    52    1
    23    45    48    1
    24    49    48    1
    25    52    51    1
    26    52    53    1
    27    90    91    2
    28    90    89    1
    29    37    38    1
    30    30    31   ar
    31    40    38   ar
    32    40    42   ar
    33    29    31   ar
    34    48    50    1
    35    89    88    1
    36    89    92    1
    37    38    39   ar
    38    31    32    1
    39    42    43   ar
    40    53    60   am
    41    53    54    2
    42    60    61    1
    43    63    62    2
    44    16    15    2
    45    15    14    1
    46    94    92    1
    47    75    74    2
    48    39    41   ar
    49    92    93    1
    50    43    41   ar
    51    62    61    1
    52    83    82    1
    53    83    84    2
    54    61    64    1
    55    64    65    1
    56    82    81    1
    57    82    85    1
    58    66    65    1
    59    86    85    1
    60    74    81   am
    61    74    73    1
    62    14    13    1
    63    14    17    1
    64    76    73    1
    65    76    77    1
    66    78    77    1
    67    78    79    1
    68    93    95    1
    69    65    67    1
    70    17    18    1
    71    85    87    1
    72    73    72    1
    73    79    80    1
    74    72    70   am
    75    18    19    1
    76    18    20    1
    77    70    69    1
    78    70    71    2
    79    69    68    1
    80   126   125   ar
    81   126   124   ar
    82   125   123   ar
    83   136   137   ar
    84   136   134   ar
    85   124   122   ar
    86    10     8   ar
    87    10    11   ar
    88   137   135   ar
    89     8     6   ar
    90   123   121   ar
    91   134   132   ar
    92    12    11    1
    93   122   121   ar
    94     1     2    1
    95    11     9   ar
    96   111   109    1
    97   100    97    1
    98     4     3    2
    99     6     5    1
   100     6     7   ar
   101   135   133   ar
   102   121   120    1
   103     5     2    1
   104   132   133   ar
   105   132   131    1
   106     2     3    1
   107     9     7   ar
   108   109   108    2
   109   109   110    1
   110    97    98    1
   111    97    96    1
   112    99    98    2
   113   120   117    1
   114   113   112    1
   115   113   114    1
   116   108   107    1
   117   131   128    1
   118   128   127    1
   119   128   129    1
   120   115   114    2
   121   119   118    2
   122   112   103   am
   123   127   118   am
   124   118   117    1
   125   117   116    1
   126   107   106    1
   127   105   106    1
   128   105   102    1
   129   130   129    2
   130   103   104    2
   131   103   102    1
   132   102   101    1
