@<TRIPOS>MOLECULE
tmp/3e85A01.pdb
 111 106 0 0 0
SMALL
GASTEIGER

@<TRIPOS>ATOM
      1  N         28.1660   10.8500   69.8880 N.3    34  VAL34      -0.1245
      2  CA        27.1480    9.9660   70.4720 C.3    34  VAL34       0.1561
      3  C         27.7930    8.6800   70.9140 C.2    34  VAL34       0.2260
      4  O         28.2150    7.8420   70.1100 O.2    34  VAL34      -0.2867
      5  CB        25.9240    9.7320   69.5250 C.3    34  VAL34       0.0252
      6  CG1       24.8110    9.0220   70.2480 C.3    34  VAL34       0.0019
      7  CG2       25.3900   11.1330   68.9410 C.3    34  VAL34       0.0019
      8  N         26.7220    6.0550   72.2090 N.3    36  THR36      -0.1203
      9  CA        26.0210    4.8310   71.7870 C.3    36  THR36       0.1994
     10  C         26.1970    4.4460   70.3300 C.2    36  THR36       0.2617
     11  O         25.7770    3.3640   69.9170 O.2    36  THR36      -0.2717
     12  CB        24.5240    4.9700   72.0690 C.3    36  THR36       0.1784
     13  OG1       24.0520    6.1520   71.4130 O.3    36  THR36      -0.2211
     14  CG2       24.2790    5.0580   73.5990 C.3    36  THR36       0.0376
     15  N         26.8130    5.3110   69.5370 N.am   37  ILE37      -0.1979
     16  CA        27.0500    5.0190   68.1820 C.3    37  ILE37       0.1595
     17  C         28.5320    4.8950   67.9570 C.2    37  ILE37       0.2287
     18  O         29.3060    5.8320   68.2440 O.2    37  ILE37      -0.2864
     19  CB        26.4920    6.1510   67.2580 C.3    37  ILE37       0.0276
     20  CG1       24.9790    6.2880   67.4230 C.3    37  ILE37       0.0022
     21  CG2       26.8380    5.8950   65.8160 C.3    37  ILE37       0.0022
     22  CD1       24.3660    7.4500   66.6300 C.3    37  ILE37       0.0001
     23  N         25.3350    2.9580   59.9620 N.3    55  LEU55      -0.1245
     24  CA        25.5370    3.4690   61.3060 C.3    55  LEU55       0.1561
     25  C         25.4900    2.2860   62.2310 C.2    55  LEU55       0.2260
     26  O         24.4740    1.5670   62.2450 O.2    55  LEU55      -0.2867
     27  CB        24.4370    4.4530   61.6560 C.3    55  LEU55       0.0270
     28  CG        24.4070    5.6900   60.7800 C.3    55  LEU55       0.0019
     29  CD1       23.6510    5.4580   59.4680 C.3    55  LEU55       0.0001
     30  CD2       23.7700    6.8330   61.5860 C.3    55  LEU55       0.0001
     31  N         25.7070    0.8100   66.2010 N.3    57  PHE57      -0.1227
     32  CA        25.4560    1.2700   67.5740 C.3    57  PHE57       0.1736
     33  C         25.1710    0.1310   68.5290 C.2    57  PHE57       0.2595
     34  O         25.0010   -1.0160   68.1150 O.2    57  PHE57      -0.2718
     35  CB        24.2840    2.2610   67.5670 C.3    57  PHE57       0.0547
     36  CG        23.0060    1.6640   67.0900 C.ar   57  PHE57      -0.0202
     37  CD1       22.1030    1.1530   67.9720 C.ar   57  PHE57      -0.0042
     38  CD2       22.7420    1.5810   65.7380 C.ar   57  PHE57      -0.0042
     39  CE1       20.9310    0.5860   67.5230 C.ar   57  PHE57      -0.0003
     40  CE2       21.5760    1.0040   65.2720 C.ar   57  PHE57      -0.0003
     41  CZ        20.6670    0.5040   66.1820 C.ar   57  PHE57      -0.0000
     42  N         25.1320    0.4790   69.8190 N.am   58  ILE58      -0.1966
     43  CA        24.9610   -0.4580   70.9220 C.3    58  ILE58       0.1727
     44  C         23.6280   -0.1730   71.5830 C.2    58  ILE58       0.2616
     45  O         23.2280    0.9980   71.7770 O.2    58  ILE58      -0.2715
     46  CB        26.0770   -0.3390   71.9880 C.3    58  ILE58       0.0290
     47  CG1       27.4440   -0.6900   71.4050 C.3    58  ILE58       0.0022
     48  CG2       25.7760   -1.2270   73.2170 C.3    58  ILE58       0.0023
     49  CD1       27.6820   -2.1430   71.1710 C.3    58  ILE58       0.0001
     50  N         22.9450   -1.2590   71.9200 N.am   59  GLU59      -0.1963
     51  CA        21.6060   -1.2130   72.4690 C.3    59  GLU59       0.1733
     52  C         21.3710   -2.5920   73.0730 C.2    59  GLU59       0.2616
     53  O         21.5770   -3.6130   72.4050 O.2    59  GLU59      -0.2715
     54  CB        20.6000   -0.8870   71.3530 C.3    59  GLU59       0.0429
     55  CG        19.1750   -0.5110   71.8220 C.3    59  GLU59       0.1163
     56  CD        18.1800   -0.3800   70.6610 C.2    59  GLU59       0.3649
     57  OE1       18.3600   -1.0620   69.6280 O.co2  59  GLU59      -0.2457
     58  OE2       17.2060    0.3990   70.7800 O.co2  59  GLU59      -0.2457
     59  N         21.0150   -2.6200   74.3570 N.am   60  GLY60      -0.1955
     60  CA        20.7080   -3.8650   75.0570 C.3    60  GLY60       0.1869
     61  C         21.8480   -4.8710   75.1670 C.2    60  GLY60       0.2309
     62  O         21.6090   -6.0770   75.3620 O.2    60  GLY60      -0.2863
     63  N         22.1910    0.0670   61.0100 N.3    66  VAL66      -0.1245
     64  CA        21.1610    0.4660   60.0710 C.3    66  VAL66       0.1561
     65  C         21.7940    1.0510   58.8580 C.2    66  VAL66       0.2260
     66  O         22.7690    1.7670   58.9660 O.2    66  VAL66      -0.2867
     67  CB        20.2670    1.5820   60.6320 C.3    66  VAL66       0.0252
     68  CG1       19.4840    1.1170   61.8450 C.3    66  VAL66       0.0019
     69  CG2       21.1060    2.8140   60.9470 C.3    66  VAL66       0.0019
     70  N         21.1900    3.7920   55.9590 N.3    68  HIS68      -0.1241
     71  CA        20.5290    5.0670   55.6850 C.3    68  HIS68       0.1621
     72  C         20.8430    5.4210   54.2380 C.2    68  HIS68       0.2264
     73  O         21.9860    5.4750   53.8620 O.2    68  HIS68      -0.2867
     74  CB        21.0130    6.2310   56.5560 C.3    68  HIS68       0.0745
     75  CG        20.4340    6.2390   57.9340 C.ar   68  HIS68       0.0817
     76  ND1       20.2010    7.3970   58.6410 N.ar   68  HIS68      -0.2268
     77  CD2       20.0440    5.2230   58.7370 C.ar   68  HIS68       0.1154
     78  CE1       19.7040    7.0880   59.8300 C.ar   68  HIS68       0.1986
     79  NE2       19.6180    5.7770   59.9190 N.ar   68  HIS68      -0.2212
     80  N         12.2990    8.0820   71.8450 N.3   137  ALA137     -0.1231
     81  CA        13.2300    8.3060   72.9890 C.3   137  ALA137      0.1694
     82  C         14.6640    8.2350   72.4910 C.2   137  ALA137      0.2591
     83  O         15.4710    9.0540   72.8170 O.2   137  ALA137     -0.2718
     84  CB        12.9940    7.3110   74.0750 C.3   137  ALA137      0.0304
     85  N         14.9670    7.2620   71.6370 N.am  138  ARG138     -0.1980
     86  CA        16.2820    7.1660   71.0690 C.3   138  ARG138      0.1597
     87  C         16.6300    8.4040   70.2750 C.2   138  ARG138      0.2287
     88  O         17.7900    8.8450   70.2880 O.2   138  ARG138     -0.2864
     89  CB        16.4060    5.9070   70.1980 C.3   138  ARG138      0.0334
     90  CG        16.4230    4.6420   70.9860 C.3   138  ARG138      0.0492
     91  CD        17.0860    3.4750   70.1800 C.3   138  ARG138      0.2205
     92  NE        16.5460    3.3670   68.8270 N.pl3 138  ARG138     -0.0865
     93  CZ        15.4290    2.7140   68.4970 C.cat 138  ARG138      0.5346
     94  NH1       14.7160    2.0760   69.4150 N.pl3 138  ARG138      0.1354
     95  NH2       15.0300    2.6970   67.2240 N.pl3 138  ARG138      0.1354
     96  N         17.4570   11.2810   72.7480 N.3   141  ALA141     -0.1231
     97  CA        18.7910   11.0120   73.2760 C.3   141  ALA141      0.1694
     98  C         19.8760   11.4420   72.2960 C.2   141  ALA141      0.2592
     99  O         20.8080   12.1090   72.6460 O.2   141  ALA141     -0.2718
    100  CB        18.9180    9.5450   73.5940 C.3   141  ALA141      0.0304
    101  N         19.7380   10.9910   71.0670 N.am  142  PHE142     -0.1976
    102  CA        20.6120   11.3160   69.9400 C.3   142  PHE142      0.1639
    103  C         20.7660   12.7950   69.6690 C.2   142  PHE142      0.2290
    104  O         21.8670   13.3020   69.4940 O.2   142  PHE142     -0.2864
    105  CB        19.9900   10.6610   68.6800 C.3   142  PHE142      0.0560
    106  CG        20.7240   10.9850   67.4290 C.ar  142  PHE142     -0.0200
    107  CD1       21.8940   10.3300   67.1180 C.ar  142  PHE142     -0.0042
    108  CD2       20.2790   11.9830   66.6040 C.ar  142  PHE142     -0.0042
    109  CE1       22.6280   10.6310   65.9520 C.ar  142  PHE142     -0.0003
    110  CE2       20.9990   12.3260   65.4740 C.ar  142  PHE142     -0.0003
    111  CZ        22.1790   11.6270   65.1370 C.ar  142  PHE142     -0.0000
@<TRIPOS>BOND
     1    73    72    2
     2    72    71    1
     3    71    70    1
     4    71    74    1
     5    74    75    1
     6    75    76   ar
     7    75    77   ar
     8    76    78   ar
     9    77    79   ar
    10    65    66    2
    11    65    64    1
    12    29    28    1
    13    78    79   ar
    14    23    24    1
    15    64    67    1
    16    64    63    1
    17    67    69    1
    18    67    68    1
    19    28    30    1
    20    28    27    1
    21    24    27    1
    22    24    25    1
    23    25    26    2
    24   111   110   ar
    25   111   109   ar
    26    40    38   ar
    27    40    41   ar
    28   110   108   ar
    29    38    36   ar
    30    21    19    1
    31   109   107   ar
    32    41    39   ar
    33    31    32    1
    34   108   106   ar
    35    22    20    1
    36    36    35    1
    37    36    37   ar
    38   107   106   ar
    39    95    93    1
    40    19    20    1
    41    19    16    1
    42   106   105    1
    43    39    37   ar
    44    35    32    1
    45    32    33    1
    46    17    16    1
    47    17    18    2
    48    34    33    2
    49    16    15    1
    50    93    92    2
    51    93    94    1
    52    33    42   am
    53   105   102    1
    54    92    91    1
    55     7     5    1
    56   104   103    2
    57     5     6    1
    58     5     2    1
    59    15    10   am
    60    57    56   ar
    61   103   102    1
    62    42    43    1
    63     1     2    1
    64    11    10    2
    65   102   101    1
    66     4     3    2
    67    91    90    1
    68    89    90    1
    69    89    86    1
    70    87    88    2
    71    87    86    1
    72    10     9    1
    73     2     3    1
    74    56    58   ar
    75    56    55    1
    76    43    44    1
    77    43    46    1
    78   101    98   am
    79    86    85    1
    80    49    47    1
    81    54    55    1
    82    54    51    1
    83    47    46    1
    84    13    12    1
    85    44    45    2
    86    44    50   am
    87    85    82   am
    88     9    12    1
    89     9     8    1
    90    80    81    1
    91    50    51    1
    92    46    48    1
    93    12    14    1
    94    98    99    2
    95    98    97    1
    96    53    52    2
    97    51    52    1
    98    82    83    2
    99    82    81    1
   100    96    97    1
   101    81    84    1
   102    52    59   am
   103    97   100    1
   104    59    60    1
   105    60    61    1
   106    61    62    2
