@<TRIPOS>MOLECULE
tmp/3e85A03.pdb
 169 158 0 0 0
SMALL
GASTEIGER

@<TRIPOS>ATOM
      1  N          3.6090    9.8580   60.1630 N.3     5  PHE5       -0.1241
      2  CA         3.7790   10.4250   61.4590 C.3     5  PHE5        0.1605
      3  C          4.5350   11.7590   61.3160 C.2     5  PHE5        0.2264
      4  O          5.2390   11.9690   60.3160 O.2     5  PHE5       -0.2867
      5  CB         4.5040    9.4190   62.3680 C.3     5  PHE5        0.0534
      6  CG         3.7970    8.1090   62.4950 C.ar    5  PHE5       -0.0203
      7  CD1        2.8860    7.8880   63.5010 C.ar    5  PHE5       -0.0042
      8  CD2        4.0590    7.0940   61.6340 C.ar    5  PHE5       -0.0042
      9  CE1        2.2290    6.6780   63.6250 C.ar    5  PHE5       -0.0003
     10  CE2        3.4010    5.8940   61.7470 C.ar    5  PHE5       -0.0003
     11  CZ         2.4810    5.6880   62.7250 C.ar    5  PHE5       -0.0000
     12  N          6.7630   14.4260   63.8940 N.3     7  ASP7       -0.1239
     13  CA         7.3830   14.5980   65.1840 C.3     7  ASP7        0.1674
     14  C          8.2640   15.8640   65.0870 C.2     7  ASP7        0.2266
     15  O          8.6430   16.3080   64.0130 O.2     7  ASP7       -0.2867
     16  CB         8.2890   13.3950   65.5660 C.3     7  ASP7        0.1410
     17  CG         7.5080   12.1380   66.0180 C.2     7  ASP7        0.3668
     18  OD1        6.4730   12.2530   66.7160 O.co2   7  ASP7       -0.2456
     19  OD2        7.9990   11.0270   65.7170 O.co2   7  ASP7       -0.2456
     20  N         25.7070    0.8100   66.2010 N.3    57  PHE57      -0.1241
     21  CA        25.4560    1.2700   67.5740 C.3    57  PHE57       0.1605
     22  C         25.1710    0.1310   68.5290 C.2    57  PHE57       0.2264
     23  O         25.0010   -1.0160   68.1150 O.2    57  PHE57      -0.2867
     24  CB        24.2840    2.2610   67.5670 C.3    57  PHE57       0.0534
     25  CG        23.0060    1.6640   67.0900 C.ar   57  PHE57      -0.0203
     26  CD1       22.1030    1.1530   67.9720 C.ar   57  PHE57      -0.0042
     27  CD2       22.7420    1.5810   65.7380 C.ar   57  PHE57      -0.0042
     28  CE1       20.9310    0.5860   67.5230 C.ar   57  PHE57      -0.0003
     29  CE2       21.5760    1.0040   65.2720 C.ar   57  PHE57      -0.0003
     30  CZ        20.6670    0.5040   66.1820 C.ar   57  PHE57      -0.0000
     31  N         22.1910    0.0670   61.0100 N.3    66  VAL66      -0.1245
     32  CA        21.1610    0.4660   60.0710 C.3    66  VAL66       0.1561
     33  C         21.7940    1.0510   58.8580 C.2    66  VAL66       0.2260
     34  O         22.7690    1.7670   58.9660 O.2    66  VAL66      -0.2867
     35  CB        20.2670    1.5820   60.6320 C.3    66  VAL66       0.0252
     36  CG1       19.4840    1.1170   61.8450 C.3    66  VAL66       0.0019
     37  CG2       21.1060    2.8140   60.9470 C.3    66  VAL66       0.0019
     38  N         21.1900    3.7920   55.9590 N.3    68  HIS68      -0.1241
     39  CA        20.5290    5.0670   55.6850 C.3    68  HIS68       0.1621
     40  C         20.8430    5.4210   54.2380 C.2    68  HIS68       0.2264
     41  O         21.9860    5.4750   53.8620 O.2    68  HIS68      -0.2867
     42  CB        21.0130    6.2310   56.5560 C.3    68  HIS68       0.0745
     43  CG        20.4340    6.2390   57.9340 C.ar   68  HIS68       0.0817
     44  ND1       20.2010    7.3970   58.6410 N.ar   68  HIS68      -0.2268
     45  CD2       20.0440    5.2230   58.7370 C.ar   68  HIS68       0.1154
     46  CE1       19.7040    7.0880   59.8300 C.ar   68  HIS68       0.1986
     47  NE2       19.6180    5.7770   59.9190 N.ar   68  HIS68      -0.2212
     48  N         15.4960    3.9620   55.4050 N.3    84  ILE84      -0.1245
     49  CA        16.2510    2.8590   55.9810 C.3    84  ILE84       0.1561
     50  C         16.0550    1.6960   55.0690 C.2    84  ILE84       0.2260
     51  O         14.9240    1.2200   54.8830 O.2    84  ILE84      -0.2867
     52  CB        15.7420    2.5110   57.3580 C.3    84  ILE84       0.0252
     53  CG1       15.6980    3.7790   58.1750 C.3    84  ILE84       0.0019
     54  CG2       16.6250    1.4250   58.0310 C.3    84  ILE84       0.0019
     55  CD1       17.0010    4.4030   58.4700 C.3    84  ILE84       0.0001
     56  N         18.4730   -2.9400   61.2250 N.3    88  VAL88      -0.1231
     57  CA        17.4280   -3.2280   62.2130 C.3    88  VAL88       0.1692
     58  C         16.2860   -2.1620   62.2280 C.2    88  VAL88       0.2592
     59  O         15.2410   -2.3290   62.9030 O.2    88  VAL88      -0.2718
     60  CB        18.0940   -3.5330   63.5840 C.3    88  VAL88       0.0266
     61  CG1       17.0740   -3.9450   64.6180 C.3    88  VAL88       0.0020
     62  CG2       19.1330   -4.6650   63.4020 C.3    88  VAL88       0.0020
     63  N         16.4480   -1.1020   61.4400 N.am   89  GLY89      -0.1957
     64  CA        15.3700   -0.1180   61.2370 C.3    89  GLY89       0.1869
     65  C         14.3960   -0.5210   60.1290 C.2    89  GLY89       0.2309
     66  O         13.3440    0.0660   59.9650 O.2    89  GLY89      -0.2863
     67  N         12.8530   -3.7830   59.8910 N.3    91  PRO91      -0.2116
     68  CA        12.6550   -5.1710   60.2990 C.3    91  PRO91       0.1372
     69  C         11.7890   -5.8920   59.3090 C.2    91  PRO91       0.2244
     70  O         11.2330   -5.2640   58.3990 O.2    91  PRO91      -0.2868
     71  CB        11.9030   -5.0580   61.6400 C.3    91  PRO91       0.0268
     72  CG        11.8920   -3.7130   62.0030 C.3    91  PRO91       0.0207
     73  CD        12.1100   -2.8850   60.7770 C.3    91  PRO91       0.0892
     74  N          8.4600   -4.1740   58.8110 N.3    94  ILE94      -0.1245
     75  CA         8.3890   -2.9450   57.9960 C.3    94  ILE94       0.1561
     76  C          8.8800   -3.2000   56.5720 C.2    94  ILE94       0.2260
     77  O         10.0090   -3.6120   56.3860 O.2    94  ILE94      -0.2867
     78  CB         9.2480   -1.8510   58.6500 C.3    94  ILE94       0.0252
     79  CG1        8.7610   -1.6410   60.0560 C.3    94  ILE94       0.0019
     80  CG2        9.1990   -0.4640   57.9190 C.3    94  ILE94       0.0019
     81  CD1        9.1330   -0.3210   60.6090 C.3    94  ILE94       0.0001
     82  N         10.3120    2.3180   55.3320 N.3    97  ILE97      -0.1245
     83  CA        10.2550    3.5370   56.1400 C.3    97  ILE97       0.1561
     84  C         11.1520    4.6930   55.6310 C.2    97  ILE97       0.2260
     85  O         12.3640    4.5200   55.4620 O.2    97  ILE97      -0.2867
     86  CB        10.6310    3.2160   57.6390 C.3    97  ILE97       0.0252
     87  CG1       10.5860    4.4290   58.5450 C.3    97  ILE97       0.0019
     88  CG2       12.0490    2.5400   57.7080 C.3    97  ILE97       0.0019
     89  CD1       10.6250    4.0760   59.9680 C.3    97  ILE97       0.0001
     90  N         12.0750    9.1790   56.0420 N.3    99  PHE99      -0.1241
     91  CA        12.0240   10.3470   56.9160 C.3    99  PHE99       0.1605
     92  C         12.2390   11.5780   56.0240 C.2    99  PHE99       0.2264
     93  O         13.0890   11.5590   55.1230 O.2    99  PHE99      -0.2867
     94  CB        13.0780   10.2750   58.0040 C.3    99  PHE99       0.0534
     95  CG        12.9990    9.0180   58.8540 C.ar   99  PHE99      -0.0203
     96  CD1       12.4650    9.0470   60.1190 C.ar   99  PHE99      -0.0042
     97  CD2       13.4260    7.7870   58.3200 C.ar   99  PHE99      -0.0042
     98  CE1       12.3620    7.8580   60.8820 C.ar   99  PHE99      -0.0003
     99  CE2       13.3650    6.6350   59.0620 C.ar   99  PHE99      -0.0003
    100  CZ        12.8280    6.6630   60.3420 C.ar   99  PHE99      -0.0000
    101  N          7.5090   11.0010   58.9240 N.3   117  ILE117     -0.1245
    102  CA         7.8830    9.5960   58.8080 C.3   117  ILE117      0.1561
    103  C          6.7670    8.9200   57.9850 C.2   117  ILE117      0.2260
    104  O          5.5860    9.0560   58.3130 O.2   117  ILE117     -0.2867
    105  CB         7.9740    8.8460   60.1720 C.3   117  ILE117      0.0252
    106  CG1        8.8600    9.5550   61.1890 C.3   117  ILE117      0.0019
    107  CG2        8.4850    7.4120   59.9530 C.3   117  ILE117      0.0019
    108  CD1        9.0660    8.7080   62.4450 C.3   117  ILE117      0.0001
    109  N          5.6160    5.0490   56.7930 N.3   119  ILE119     -0.1245
    110  CA         5.8440    3.6340   57.0130 C.3   119  ILE119      0.1561
    111  C          4.8780    2.7690   56.2800 C.2   119  ILE119      0.2260
    112  O          3.6410    3.0290   56.2540 O.2   119  ILE119     -0.2867
    113  CB         5.7060    3.2890   58.5150 C.3   119  ILE119      0.0252
    114  CG1        6.7180    4.0930   59.2940 C.3   119  ILE119      0.0019
    115  CG2        5.9360    1.7730   58.7450 C.3   119  ILE119      0.0019
    116  CD1        6.4060    4.1780   60.7120 C.3   119  ILE119      0.0001
    117  N          2.0360    0.0200   62.5360 N.3   127  PRO127     -0.2102
    118  CA         3.3600    0.2150   63.1420 C.3   127  PRO127      0.1504
    119  C          3.3500   -0.0680   64.6520 C.2   127  PRO127      0.2576
    120  O          2.3630    0.2300   65.3350 O.2   127  PRO127     -0.2718
    121  CB         3.6840    1.6650   62.7960 C.3   127  PRO127      0.0282
    122  CG         2.7890    1.9880   61.6190 C.3   127  PRO127      0.0208
    123  CD         1.5500    1.2370   61.8640 C.3   127  PRO127      0.0893
    124  N          4.4070   -0.6970   65.1670 N.am  128  ASN128     -0.1961
    125  CA         4.4190   -1.1450   66.5820 C.3   128  ASN128      0.1819
    126  C          4.4860    0.0580   67.5210 C.2   128  ASN128      0.2621
    127  O          5.4380    0.8000   67.5100 O.2   128  ASN128     -0.2715
    128  CB         5.5770   -2.1160   66.8470 C.3   128  ASN128      0.1195
    129  CG         5.5870   -2.6710   68.2660 C.2   128  ASN128      0.2630
    130  OD1        6.2070   -2.1030   69.1780 O.2   128  ASN128     -0.2716
    131  ND2        4.9460   -3.8110   68.4540 N.am  128  ASN128     -0.0877
    132  N          3.4300    0.2680   68.2750 N.am  129  GLU129     -0.1977
    133  CA         3.3240    1.3500   69.2370 C.3   129  GLU129      0.1602
    134  C          4.5600    1.4100   70.1620 C.2   129  GLU129      0.2287
    135  O          5.2530    2.4400   70.2960 O.2   129  GLU129     -0.2864
    136  CB         2.0660    1.0860   70.0530 C.3   129  GLU129      0.0415
    137  CG         1.5070    2.3160   70.7370 C.3   129  GLU129      0.1163
    138  CD         0.5490    3.0840   69.8550 C.2   129  GLU129      0.3649
    139  OE1        0.9130    3.2710   68.6770 O.co2 129  GLU129     -0.2457
    140  OE2       -0.5470    3.4990   70.3440 O.co2 129  GLU129     -0.2457
    141  N          7.6070    0.0600   69.8650 N.3   131  GLU131     -0.1231
    142  CA         8.8250    0.4500   69.1550 C.3   131  GLU131      0.1699
    143  C          8.8430    1.9150   68.6700 C.2   131  GLU131      0.2592
    144  O          9.8990    2.5260   68.5090 O.2   131  GLU131     -0.2718
    145  CB         9.0620   -0.4550   67.9390 C.3   131  GLU131      0.0402
    146  CG         9.3310   -1.9360   68.2460 C.3   131  GLU131      0.1161
    147  CD         9.1040   -2.8240   67.0270 C.2   131  GLU131      0.3649
    148  OE1        9.2550   -2.3350   65.8780 O.co2 131  GLU131     -0.2457
    149  OE2        8.7420   -4.0080   67.2240 O.co2 131  GLU131     -0.2457
    150  N          7.6720    2.4680   68.3780 N.am  132  GLY132     -0.1957
    151  CA         7.5770    3.8870   68.0130 C.3   132  GLY132      0.1869
    152  C          7.9620    4.7430   69.2030 C.2   132  GLY132      0.2309
    153  O          8.6930    5.7050   69.0680 O.2   132  GLY132     -0.2863
    154  N         11.7980    4.4200   69.6680 N.3   135  ALA135     -0.1245
    155  CA        12.4080    5.1810   68.6200 C.3   135  ALA135      0.1562
    156  C         12.3770    6.6910   68.8800 C.2   135  ALA135      0.2260
    157  O         13.3710    7.3630   68.6460 O.2   135  ALA135     -0.2867
    158  CB        11.7060    4.8720   67.2600 C.3   135  ALA135      0.0290
    159  N         14.9670    7.2620   71.6370 N.3   138  ARG138     -0.1245
    160  CA        16.2820    7.1660   71.0690 C.3   138  ARG138      0.1563
    161  C         16.6300    8.4040   70.2750 C.2   138  ARG138      0.2260
    162  O         17.7900    8.8450   70.2880 O.2   138  ARG138     -0.2867
    163  CB        16.4060    5.9070   70.1980 C.3   138  ARG138      0.0307
    164  CG        16.4230    4.6420   70.9860 C.3   138  ARG138      0.0489
    165  CD        17.0860    3.4750   70.1800 C.3   138  ARG138      0.2205
    166  NE        16.5460    3.3670   68.8270 N.pl3 138  ARG138     -0.0865
    167  CZ        15.4290    2.7140   68.4970 C.cat 138  ARG138      0.5346
    168  NH1       14.7160    2.0760   69.4150 N.pl3 138  ARG138      0.1354
    169  NH2       15.0300    2.6970   67.2240 N.pl3 138  ARG138      0.1354
@<TRIPOS>BOND
     1    41    40    2
     2    40    39    1
     3    51    50    2
     4    50    49    1
     5    93    92    2
     6    82    83    1
     7    48    49    1
     8    85    84    2
     9    84    83    1
    10    39    38    1
    11    39    42    1
    12    49    52    1
    13    92    91    1
    14    90    91    1
    15    83    86    1
    16   112   111    2
    17   111   110    1
    18    77    76    2
    19    42    43    1
    20    76    75    1
    21   109   110    1
    22    91    94    1
    23   110   113    1
    24    52    54    1
    25    52    53    1
    26    86    88    1
    27    86    87    1
    28    80    78    1
    29    43    44   ar
    30    43    45   ar
    31   103   104    2
    32   103   102    1
    33    75    78    1
    34    75    74    1
    35    94    95    1
    36    53    55    1
    37    97    95   ar
    38    97    99   ar
    39    70    69    2
    40   113   115    1
    41   113   114    1
    42    87    89    1
    43    44    46   ar
    44    78    79    1
    45    45    47   ar
    46   102   101    1
    47   102   105    1
    48    95    96   ar
    49    33    34    2
    50    33    32    1
    51    99   100   ar
    52   114   116    1
    53    69    68    1
    54    46    47   ar
    55    67    68    1
    56    67    73    1
    57   107   105    1
    58    66    65    2
    59    79    81    1
    60    32    35    1
    61    32    31    1
    62    96    98   ar
    63    65    64    1
    64     1     2    1
    65   105   106    1
    66    68    71    1
    67     4     3    2
    68   100    98   ar
    69    35    37    1
    70    35    36    1
    71    73    72    1
    72   106   108    1
    73    56    57    1
    74    64    63    1
    75     3     2    1
    76    63    58   am
    77     2     5    1
    78   122   123    1
    79   122   121    1
    80     8    10   ar
    81     8     6   ar
    82    71    72    1
    83    10    11   ar
    84   123   117    1
    85    57    58    1
    86    57    60    1
    87    58    59    2
    88     5     6    1
    89     6     7   ar
    90   117   118    1
    91    11     9   ar
    92   121   118    1
    93   118   119    1
    94    62    60    1
    95     7     9   ar
    96    60    61    1
    97    12    13    1
    98    15    14    2
    99   119   124   am
   100   119   120    2
   101    14    13    1
   102   124   125    1
   103    13    16    1
   104    29    27   ar
   105    29    30   ar
   106    16    17    1
   107    19    17   ar
   108    27    25   ar
   109   148   147   ar
   110    17    18   ar
   111    30    28   ar
   112    20    21    1
   113   125   128    1
   114   125   126    1
   115   128   129    1
   116   147   149   ar
   117   147   146    1
   118    25    24    1
   119    25    26   ar
   120   169   167    1
   121   158   155    1
   122   127   126    2
   123   126   132   am
   124    28    26   ar
   125    24    21    1
   126    21    22    1
   127   145   146    1
   128   145   142    1
   129   151   150    1
   130   151   152    1
   131    23    22    2
   132   129   131   am
   133   129   130    2
   134   132   133    1
   135   150   143   am
   136   167   166    2
   137   167   168    1
   138   144   143    2
   139   155   156    1
   140   155   154    1
   141   157   156    2
   142   143   142    1
   143   139   138   ar
   144   166   165    1
   145   153   152    2
   146   142   141    1
   147   133   136    1
   148   133   134    1
   149   138   140   ar
   150   138   137    1
   151   136   137    1
   152   134   135    2
   153   165   164    1
   154   163   164    1
   155   163   160    1
   156   161   162    2
   157   161   160    1
   158   160   159    1
