@<TRIPOS>MOLECULE
tmp/3e85A00.pdb
 149 141 0 0 0
SMALL
GASTEIGER

@<TRIPOS>ATOM
      1  N         22.7460   21.3810   61.1120 N.3    19  TYR19      -0.1241
      2  CA        22.6870   20.7580   59.8110 C.3    19  TYR19       0.1605
      3  C         24.0850   20.2920   59.3960 C.2    19  TYR19       0.2264
      4  O         24.2780   19.2000   58.8680 O.2    19  TYR19      -0.2867
      5  CB        22.1380   21.7470   58.7760 C.3    19  TYR19       0.0534
      6  CG        21.8110   21.0890   57.4630 C.ar   19  TYR19      -0.0201
      7  CD1       20.6190   20.4100   57.2950 C.ar   19  TYR19      -0.0009
      8  CD2       22.7070   21.1230   56.4060 C.ar   19  TYR19      -0.0009
      9  CE1       20.3270   19.7750   56.1150 C.ar   19  TYR19       0.0417
     10  CE2       22.4340   20.5040   55.2510 C.ar   19  TYR19       0.0417
     11  CZ        21.2310   19.8290   55.0850 C.ar   19  TYR19       0.1957
     12  OH        20.9330   19.2140   53.8660 O.3    19  TYR19      -0.2866
     13  N         25.0440   17.1560   61.2800 N.3    22  LEU22      -0.1231
     14  CA        24.2580   15.9540   61.0880 C.3    22  LEU22       0.1693
     15  C         24.1430   15.5190   59.6510 C.2    22  LEU22       0.2591
     16  O         23.5070   14.5100   59.3880 O.2    22  LEU22      -0.2718
     17  CB        22.8470   16.1780   61.5810 C.3    22  LEU22       0.0284
     18  CG        22.7470   16.3450   63.0930 C.3    22  LEU22       0.0019
     19  CD1       21.3700   17.0040   63.3240 C.3    22  LEU22       0.0001
     20  CD2       22.9430   14.9810   63.7290 C.3    22  LEU22       0.0001
     21  N         24.6820   16.3160   58.7470 N.am   23  VAL23      -0.1980
     22  CA        24.6000   16.0400   57.3240 C.3    23  VAL23       0.1595
     23  C         25.9790   16.1440   56.7200 C.2    23  VAL23       0.2287
     24  O         26.5530   15.1380   56.2930 O.2    23  VAL23      -0.2864
     25  CB        23.6880   17.0560   56.5980 C.3    23  VAL23       0.0276
     26  CG1       23.7130   16.8570   55.1220 C.3    23  VAL23       0.0022
     27  CG2       22.2940   16.8970   57.0390 C.3    23  VAL23       0.0022
     28  N         28.5700   14.5290   59.1110 N.3    26  ALA26      -0.1245
     29  CA        27.9220   13.4730   59.9000 C.3    26  ALA26       0.1562
     30  C         28.8660   12.3020   60.1450 C.2    26  ALA26       0.2260
     31  O         28.8770   11.7520   61.2080 O.2    26  ALA26      -0.2867
     32  CB        26.6540   12.9660   59.2100 C.3    26  ALA26       0.0290
     33  N         28.9740   12.3780   64.1580 N.3    30  ILE30      -0.1245
     34  CA        28.0210   11.5330   64.8470 C.3    30  ILE30       0.1561
     35  C         28.7040   10.5590   65.8020 C.2    30  ILE30       0.2260
     36  O         28.3510   10.5000   67.0100 O.2    30  ILE30      -0.2867
     37  CB        27.0350   10.8180   63.9190 C.3    30  ILE30       0.0252
     38  CG1       26.0480   11.8320   63.3810 C.3    30  ILE30       0.0019
     39  CG2       26.2070    9.7620   64.7410 C.3    30  ILE30       0.0019
     40  CD1       25.1300   11.2840   62.2630 C.3    30  ILE30       0.0001
     41  N         26.8130    5.3110   69.5370 N.3    37  ILE37      -0.1245
     42  CA        27.0500    5.0190   68.1820 C.3    37  ILE37       0.1561
     43  C         28.5320    4.8950   67.9570 C.2    37  ILE37       0.2260
     44  O         29.3060    5.8320   68.2440 O.2    37  ILE37      -0.2867
     45  CB        26.4920    6.1510   67.2580 C.3    37  ILE37       0.0252
     46  CG1       24.9790    6.2880   67.4230 C.3    37  ILE37       0.0019
     47  CG2       26.8380    5.8950   65.8160 C.3    37  ILE37       0.0019
     48  CD1       24.3660    7.4500   66.6300 C.3    37  ILE37       0.0001
     49  N         25.3350    2.9580   59.9620 N.3    55  LEU55      -0.1245
     50  CA        25.5370    3.4690   61.3060 C.3    55  LEU55       0.1561
     51  C         25.4900    2.2860   62.2310 C.2    55  LEU55       0.2260
     52  O         24.4740    1.5670   62.2450 O.2    55  LEU55      -0.2867
     53  CB        24.4370    4.4530   61.6560 C.3    55  LEU55       0.0270
     54  CG        24.4070    5.6900   60.7800 C.3    55  LEU55       0.0019
     55  CD1       23.6510    5.4580   59.4680 C.3    55  LEU55       0.0001
     56  CD2       23.7700    6.8330   61.5860 C.3    55  LEU55       0.0001
     57  N         22.1910    0.0670   61.0100 N.3    66  VAL66      -0.1245
     58  CA        21.1610    0.4660   60.0710 C.3    66  VAL66       0.1561
     59  C         21.7940    1.0510   58.8580 C.2    66  VAL66       0.2260
     60  O         22.7690    1.7670   58.9660 O.2    66  VAL66      -0.2867
     61  CB        20.2670    1.5820   60.6320 C.3    66  VAL66       0.0252
     62  CG1       19.4840    1.1170   61.8450 C.3    66  VAL66       0.0019
     63  CG2       21.1060    2.8140   60.9470 C.3    66  VAL66       0.0019
     64  N         21.1900    3.7920   55.9590 N.3    68  HIS68      -0.1241
     65  CA        20.5290    5.0670   55.6850 C.3    68  HIS68       0.1621
     66  C         20.8430    5.4210   54.2380 C.2    68  HIS68       0.2264
     67  O         21.9860    5.4750   53.8620 O.2    68  HIS68      -0.2867
     68  CB        21.0130    6.2310   56.5560 C.3    68  HIS68       0.0745
     69  CG        20.4340    6.2390   57.9340 C.ar   68  HIS68       0.0817
     70  ND1       20.2010    7.3970   58.6410 N.ar   68  HIS68      -0.2268
     71  CD2       20.0440    5.2230   58.7370 C.ar   68  HIS68       0.1154
     72  CE1       19.7040    7.0880   59.8300 C.ar   68  HIS68       0.1986
     73  NE2       19.6180    5.7770   59.9190 N.ar   68  HIS68      -0.2212
     74  N         16.7770   17.3470   54.3530 N.3    80  TYR80      -0.1241
     75  CA        17.4920   16.0890   54.2260 C.3    80  TYR80       0.1605
     76  C         16.4770   14.9980   54.3480 C.2    80  TYR80       0.2264
     77  O         15.8600   14.8710   55.3870 O.2    80  TYR80      -0.2867
     78  CB        18.4450   15.9500   55.3840 C.3    80  TYR80       0.0534
     79  CG        19.3000   14.7320   55.3060 C.ar   80  TYR80      -0.0201
     80  CD1       20.4140   14.6900   54.4770 C.ar   80  TYR80      -0.0009
     81  CD2       19.0460   13.6420   56.1150 C.ar   80  TYR80      -0.0009
     82  CE1       21.2070   13.6260   54.4580 C.ar   80  TYR80       0.0417
     83  CE2       19.8410   12.5460   56.0710 C.ar   80  TYR80       0.0417
     84  CZ        20.9220   12.5390   55.2460 C.ar   80  TYR80       0.1957
     85  OH        21.7570   11.4380   55.2200 O.3    80  TYR80      -0.2866
     86  N         15.8090   10.8990   54.1020 N.3    82  TYR82      -0.1241
     87  CA        16.3710    9.5410   53.9320 C.3    82  TYR82       0.1605
     88  C         15.3960    8.3890   54.1830 C.2    82  TYR82       0.2264
     89  O         14.3200    8.5680   54.7400 O.2    82  TYR82      -0.2867
     90  CB        17.5600    9.3650   54.8430 C.3    82  TYR82       0.0534
     91  CG        17.2400    9.4850   56.3220 C.ar   82  TYR82      -0.0201
     92  CD1       17.1110    8.3710   57.1010 C.ar   82  TYR82      -0.0009
     93  CD2       17.0670   10.7260   56.9320 C.ar   82  TYR82      -0.0009
     94  CE1       16.8720    8.4820   58.4610 C.ar   82  TYR82       0.0417
     95  CE2       16.7930   10.8270   58.2780 C.ar   82  TYR82       0.0417
     96  CZ        16.7210    9.7190   59.0340 C.ar   82  TYR82       0.1957
     97  OH        16.4590    9.8220   60.3870 O.3    82  TYR82      -0.2866
     98  N         13.0820   15.4960   56.5810 N.3   101  THR101     -0.1218
     99  CA        13.4690   16.3080   57.7260 C.3   101  THR101      0.1862
    100  C         13.8180   17.7200   57.2650 C.2   101  THR101      0.2287
    101  O         14.3550   17.9270   56.2090 O.2   101  THR101     -0.2866
    102  CB        14.6870   15.7630   58.5000 C.3   101  THR101      0.1770
    103  OG1       15.9050   16.0590   57.7610 O.3   101  THR101     -0.2211
    104  CG2       14.5610   14.3000   58.7330 C.3   101  THR101      0.0375
    105  N         15.3210   21.4300   59.3120 N.3   103  LEU103     -0.1245
    106  CA        15.7110   22.1410   60.5270 C.3   103  LEU103      0.1561
    107  C         15.3210   23.6220   60.4160 C.2   103  LEU103      0.2260
    108  O         15.6020   24.2920   59.3850 O.2   103  LEU103     -0.2867
    109  CB        17.2120   22.0170   60.7080 C.3   103  LEU103      0.0270
    110  CG        17.7030   20.6960   61.3160 C.3   103  LEU103      0.0019
    111  CD1       19.1880   20.5350   60.9820 C.3   103  LEU103      0.0001
    112  CD2       17.4410   20.6980   62.8140 C.3   103  LEU103      0.0001
    113  N         14.9670    7.2620   71.6370 N.3   138  ARG138     -0.1231
    114  CA        16.2820    7.1660   71.0690 C.3   138  ARG138      0.1694
    115  C         16.6300    8.4040   70.2750 C.2   138  ARG138      0.2592
    116  O         17.7900    8.8450   70.2880 O.2   138  ARG138     -0.2718
    117  CB        16.4060    5.9070   70.1980 C.3   138  ARG138      0.0321
    118  CG        16.4230    4.6420   70.9860 C.3   138  ARG138      0.0489
    119  CD        17.0860    3.4750   70.1800 C.3   138  ARG138      0.2205
    120  NE        16.5460    3.3670   68.8270 N.pl3 138  ARG138     -0.0865
    121  CZ        15.4290    2.7140   68.4970 C.cat 138  ARG138      0.5346
    122  NH1       14.7160    2.0760   69.4150 N.pl3 138  ARG138      0.1354
    123  NH2       15.0300    2.6970   67.2240 N.pl3 138  ARG138      0.1354
    124  N         15.6280    8.9740   69.5930 N.am  139  GLY139     -0.1957
    125  CA        15.8250   10.1560   68.7620 C.3   139  GLY139      0.1869
    126  C         16.1820   11.3650   69.6170 C.2   139  GLY139      0.2309
    127  O         17.0750   12.1480   69.3240 O.2   139  GLY139     -0.2863
    128  N         19.7380   10.9910   71.0670 N.3   142  PHE142     -0.1227
    129  CA        20.6120   11.3160   69.9400 C.3   142  PHE142      0.1736
    130  C         20.7660   12.7950   69.6690 C.2   142  PHE142      0.2595
    131  O         21.8670   13.3020   69.4940 O.2   142  PHE142     -0.2718
    132  CB        19.9900   10.6610   68.6800 C.3   142  PHE142      0.0547
    133  CG        20.7240   10.9850   67.4290 C.ar  142  PHE142     -0.0202
    134  CD1       21.8940   10.3300   67.1180 C.ar  142  PHE142     -0.0042
    135  CD2       20.2790   11.9830   66.6040 C.ar  142  PHE142     -0.0042
    136  CE1       22.6280   10.6310   65.9520 C.ar  142  PHE142     -0.0003
    137  CE2       20.9990   12.3260   65.4740 C.ar  142  PHE142     -0.0003
    138  CZ        22.1790   11.6270   65.1370 C.ar  142  PHE142     -0.0000
    139  N         19.6540   13.5160   69.6110 N.am  143  PHE143     -0.1976
    140  CA        19.7070   14.9250   69.2250 C.3   143  PHE143      0.1639
    141  C         20.3510   15.6800   70.4040 C.2   143  PHE143      0.2290
    142  O         21.1220   16.6180   70.2390 O.2   143  PHE143     -0.2864
    143  CB        18.2670   15.3580   68.9910 C.3   143  PHE143      0.0560
    144  CG        18.0710   16.4790   67.9880 C.ar  143  PHE143     -0.0200
    145  CD1       17.2540   17.5500   68.3020 C.ar  143  PHE143     -0.0042
    146  CD2       18.5930   16.4130   66.7530 C.ar  143  PHE143     -0.0042
    147  CE1       17.0720   18.5890   67.4020 C.ar  143  PHE143     -0.0003
    148  CE2       18.3590   17.4160   65.8410 C.ar  143  PHE143     -0.0003
    149  CZ        17.5930   18.4960   66.1720 C.ar  143  PHE143     -0.0000
@<TRIPOS>BOND
     1    67    66    2
     2    12    11    1
     3    87    86    1
     4    87    88    1
     5    87    90    1
     6    88    89    2
     7    75    76    1
     8    75    74    1
     9    75    78    1
    10    66    65    1
    11    76    77    2
    12    82    80   ar
    13    82    84   ar
    14    80    79   ar
    15    90    91    1
    16    11    10   ar
    17    11     9   ar
    18    26    25    1
    19    85    84    1
    20    84    83   ar
    21    10     8   ar
    22    79    78    1
    23    79    81   ar
    24    65    64    1
    25    65    68    1
    26    83    81   ar
    27     9     7   ar
    28   101   100    2
    29    24    23    2
    30    91    93   ar
    31    91    92   ar
    32     8     6   ar
    33    68    69    1
    34    98    99    1
    35    25    27    1
    36    25    22    1
    37    23    22    1
    38    93    95   ar
    39    92    94   ar
    40   100    99    1
    41     7     6   ar
    42    22    21    1
    43     6     5    1
    44    99   102    1
    45   103   102    1
    46    69    70   ar
    47    69    71   ar
    48    95    96   ar
    49    94    96   ar
    50   102   104    1
    51    70    72   ar
    52    71    73   ar
    53    21    15   am
    54     5     2    1
    55    59    60    2
    56    59    58    1
    57     4     3    2
    58    96    97    1
    59    28    29    1
    60    32    29    1
    61   105   106    1
    62   108   107    2
    63    16    15    2
    64     3     2    1
    65    55    54    1
    66    15    14    1
    67     2     1    1
    68    72    73   ar
    69    29    30    1
    70    49    50    1
    71    58    61    1
    72    58    57    1
    73    30    31    2
    74   107   106    1
    75   106   109    1
    76    61    63    1
    77    61    62    1
    78   109   110    1
    79    54    56    1
    80    54    53    1
    81   111   110    1
    82    14    13    1
    83    14    17    1
    84    50    53    1
    85    50    51    1
    86   110   112    1
    87    17    18    1
    88    51    52    2
    89    40    38    1
    90    18    19    1
    91    18    20    1
    92    38    37    1
    93    37    39    1
    94    37    34    1
    95    33    34    1
    96    34    35    1
    97   138   137   ar
    98   138   136   ar
    99   137   135   ar
   100    35    36    2
   101    47    45    1
   102   148   149   ar
   103   148   146   ar
   104   136   134   ar
   105   149   147   ar
   106   135   133   ar
   107    48    46    1
   108   146   144   ar
   109   134   133   ar
   110   123   121    1
   111    45    46    1
   112    45    42    1
   113   147   145   ar
   114   133   132    1
   115    43    42    1
   116    43    44    2
   117   144   145   ar
   118   144   143    1
   119    42    41    1
   120   121   120    2
   121   121   122    1
   122   132   129    1
   123   125   124    1
   124   125   126    1
   125   120   119    1
   126   143   140    1
   127   140   139    1
   128   140   141    1
   129   127   126    2
   130   131   130    2
   131   124   115   am
   132   139   130   am
   133   130   129    1
   134   129   128    1
   135   119   118    1
   136   117   118    1
   137   117   114    1
   138   142   141    2
   139   115   116    2
   140   115   114    1
   141   114   113    1
