@<TRIPOS>MOLECULE
tmp/3e87A00.pdb
 255 245 0 0 0
SMALL
GASTEIGER

@<TRIPOS>ATOM
      1  N         28.3160   -5.6320   -7.2600 N.3    48  GLU48      -0.1245
      2  CA        29.3070   -6.6640   -6.9620 C.3    48  GLU48       0.1567
      3  C         28.7280   -8.0780   -7.0690 C.2    48  GLU48       0.2260
      4  O         29.2230   -9.0080   -6.4300 O.2    48  GLU48      -0.2867
      5  CB        29.8650   -6.4340   -5.5560 C.3    48  GLU48       0.0388
      6  CG        30.8280   -5.2630   -5.4550 C.3    48  GLU48       0.1160
      7  CD        32.1850   -5.5710   -6.0570 C.2    48  GLU48       0.3649
      8  OE1       32.8000   -6.5830   -5.6500 O.co2  48  GLU48      -0.2457
      9  OE2       32.6390   -4.8030   -6.9350 O.co2  48  GLU48      -0.2457
     10  N         31.1960  -10.7830   -8.4240 N.3    51  HIS51      -0.1241
     11  CA        32.1680  -11.2260   -7.4220 C.3    51  HIS51       0.1621
     12  C         31.5800  -12.2400   -6.4320 C.2    51  HIS51       0.2264
     13  O         32.2880  -13.1270   -5.9570 O.2    51  HIS51      -0.2867
     14  CB        32.7500  -10.0240   -6.6650 C.3    51  HIS51       0.0745
     15  CG        33.7540   -9.2410   -7.4560 C.ar   51  HIS51       0.0817
     16  ND1       33.7200   -7.8670   -7.5490 N.ar   51  HIS51      -0.2268
     17  CD2       34.8140   -9.6400   -8.1990 C.ar   51  HIS51       0.1154
     18  CE1       34.7200   -7.4520   -8.3060 C.ar   51  HIS51       0.1986
     19  NE2       35.3990   -8.5080   -8.7150 N.ar   51  HIS51      -0.2212
     20  N         42.4540  -15.5730   12.7910 N.3    91  GLU91      -0.1245
     21  CA        43.2300  -14.9640   11.7140 C.3    91  GLU91       0.1567
     22  C         44.7030  -14.8680   12.0790 C.2    91  GLU91       0.2260
     23  O         45.0560  -14.7560   13.2510 O.2    91  GLU91      -0.2867
     24  CB        42.7320  -13.5480   11.4180 C.3    91  GLU91       0.0388
     25  CG        41.2960  -13.4510   10.9430 C.3    91  GLU91       0.1160
     26  CD        40.7860  -12.0190   10.9280 C.2    91  GLU91       0.3649
     27  OE1       41.4890  -11.1300   11.4540 O.co2  91  GLU91      -0.2457
     28  OE2       39.6820  -11.7820   10.3920 O.co2  91  GLU91      -0.2457
     29  N         46.3270  -12.3080   11.2520 N.3    93  PHE93      -0.1241
     30  CA        46.3530  -10.9040   11.6730 C.3    93  PHE93       0.1605
     31  C         46.2100  -10.7640   13.1940 C.2    93  PHE93       0.2264
     32  O         46.8690   -9.9250   13.8160 O.2    93  PHE93      -0.2867
     33  CB        45.2390  -10.1300   10.9550 C.3    93  PHE93       0.0534
     34  CG        45.1310   -8.6870   11.3640 C.ar   93  PHE93      -0.0203
     35  CD1       46.1440   -7.7890   11.0600 C.ar   93  PHE93      -0.0042
     36  CD2       44.0120   -8.2250   12.0400 C.ar   93  PHE93      -0.0042
     37  CE1       46.0490   -6.4510   11.4380 C.ar   93  PHE93      -0.0003
     38  CE2       43.9090   -6.8910   12.4200 C.ar   93  PHE93      -0.0003
     39  CZ        44.9290   -6.0040   12.1180 C.ar   93  PHE93      -0.0000
     40  N         49.5150   -9.5690   15.3640 N.3    97  SER97      -0.1217
     41  CA        49.2870   -8.3690   16.1700 C.3    97  SER97       0.1889
     42  C         49.6110   -8.6310   17.6420 C.2    97  SER97       0.2288
     43  O         50.1550   -7.7670   18.3240 O.2    97  SER97      -0.2866
     44  CB        47.8400   -7.8850   16.0340 C.3    97  SER97       0.2089
     45  OG        47.5340   -7.5440   14.6900 O.3    97  SER97      -0.2183
     46  N         53.5520   -9.5170   17.5630 N.3   100  ARG100     -0.1245
     47  CA        54.3360   -8.4470   16.9220 C.3   100  ARG100      0.1563
     48  C         55.1250   -8.9400   15.7090 C.2   100  ARG100      0.2260
     49  O         55.0470   -8.3460   14.6340 O.2   100  ARG100     -0.2867
     50  CB        55.2820   -7.7470   17.9170 C.3   100  ARG100      0.0307
     51  CG        54.6330   -7.2970   19.2270 C.3   100  ARG100      0.0489
     52  CD        53.5370   -6.2760   18.9850 C.3   100  ARG100      0.2205
     53  NE        53.1330   -5.5870   20.2160 N.pl3 100  ARG100     -0.0865
     54  CZ        52.1410   -5.9670   21.0240 C.cat 100  ARG100      0.5346
     55  NH1       51.4090   -7.0460   20.7620 N.pl3 100  ARG100      0.1354
     56  NH2       51.8710   -5.2500   22.1110 N.pl3 100  ARG100      0.1354
     57  N         43.9050  -11.2680   -3.3710 N.3   130  ASP130     -0.1239
     58  CA        43.6570  -10.6390   -2.0730 C.3   130  ASP130      0.1674
     59  C         44.4000  -11.3150   -0.9160 C.2   130  ASP130      0.2266
     60  O         43.8730  -11.4130    0.1930 O.2   130  ASP130     -0.2867
     61  CB        42.1470  -10.5800   -1.7990 C.3   130  ASP130      0.1410
     62  CG        41.7610   -9.4690   -0.8230 C.2   130  ASP130      0.3668
     63  OD1       42.5850   -8.5730   -0.5540 O.co2 130  ASP130     -0.2456
     64  OD2       40.6170   -9.4960   -0.3230 O.co2 130  ASP130     -0.2456
     65  N         46.3880  -11.5100    2.1950 N.3   132  LYS132     -0.1231
     66  CA        46.6440  -10.6310    3.3350 C.3   132  LYS132      0.1693
     67  C         46.3800  -11.3630    4.6540 C.2   132  LYS132      0.2592
     68  O         45.7510  -12.4210    4.6650 O.2   132  LYS132     -0.2718
     69  CB        45.8120   -9.3440    3.2580 C.3   132  LYS132      0.0285
     70  CG        44.3090   -9.5170    3.1970 C.3   132  LYS132      0.0035
     71  CD        43.6480   -8.1570    3.0530 C.3   132  LYS132      0.0206
     72  CE        42.1510   -8.2200    3.2490 C.3   132  LYS132      0.1093
     73  NZ        41.5360   -6.8630    3.2350 N.3   132  LYS132     -0.1314
     74  N         46.8610  -10.7900    5.7560 N.am  133  LEU133     -0.1966
     75  CA        46.7870  -11.4380    7.0760 C.3   133  LEU133      0.1728
     76  C         45.3600  -11.7150    7.5750 C.2   133  LEU133      0.2616
     77  O         45.1410  -12.6840    8.3100 O.2   133  LEU133     -0.2715
     78  CB        47.5320  -10.6070    8.1290 C.3   133  LEU133      0.0311
     79  CG        49.0500  -10.4580    7.9860 C.3   133  LEU133      0.0022
     80  CD1       49.5850   -9.4810    9.0290 C.3   133  LEU133      0.0001
     81  CD2       49.7510  -11.8020    8.1080 C.3   133  LEU133      0.0001
     82  N         44.4040  -10.8690    7.1890 N.am  134  GLU134     -0.1963
     83  CA        43.0120  -11.0240    7.6180 C.3   134  GLU134      0.1733
     84  C         42.3340  -12.1880    6.8850 C.2   134  GLU134      0.2616
     85  O         41.3900  -12.7860    7.4000 O.2   134  GLU134     -0.2715
     86  CB        42.2290   -9.7230    7.3890 C.3   134  GLU134      0.0429
     87  CG        40.9410   -9.6140    8.2060 C.3   134  GLU134      0.1163
     88  CD        40.1420   -8.3480    7.9130 C.2   134  GLU134      0.3649
     89  OE1       39.0990   -8.1450    8.5680 O.co2 134  GLU134     -0.2457
     90  OE2       40.5470   -7.5580    7.0310 O.co2 134  GLU134     -0.2457
     91  N         42.8170  -12.4930    5.6810 N.am  135  ASN135     -0.1972
     92  CA        42.2650  -13.5800    4.8680 C.3   135  ASN135      0.1688
     93  C         42.9690  -14.9230    5.0840 C.2   135  ASN135      0.2292
     94  O         42.6010  -15.9210    4.4670 O.2   135  ASN135     -0.2864
     95  CB        42.3000  -13.2040    3.3800 C.3   135  ASN135      0.1181
     96  CG        41.3110  -12.1010    3.0270 C.2   135  ASN135      0.2629
     97  OD1       40.4360  -11.7620    3.8190 O.2   135  ASN135     -0.2716
     98  ND2       41.4450  -11.5420    1.8290 N.am  135  ASN135     -0.0877
     99  N         37.7650  -16.1390    1.8780 N.3   148  ASP148     -0.1239
    100  CA        37.3120  -14.9930    1.0960 C.3   148  ASP148      0.1674
    101  C         37.8820  -15.0100   -0.3270 C.2   148  ASP148      0.2266
    102  O         38.9580  -14.4700   -0.5960 O.2   148  ASP148     -0.2867
    103  CB        37.6500  -13.6830    1.8210 C.3   148  ASP148      0.1410
    104  CG        36.6510  -12.5890    1.5370 C.2   148  ASP148      0.3668
    105  OD1       36.1700  -12.4890    0.3860 O.co2 148  ASP148     -0.2456
    106  OD2       36.3420  -11.8270    2.4760 O.co2 148  ASP148     -0.2456
    107  N         37.4080  -11.7040   -4.6340 N.3   151  LEU151     -0.1245
    108  CA        38.1550  -10.9820   -5.6670 C.3   151  LEU151      0.1561
    109  C         38.9300  -11.9090   -6.6070 C.2   151  LEU151      0.2260
    110  O         39.8240  -11.4560   -7.3110 O.2   151  LEU151     -0.2867
    111  CB        39.1140   -9.9680   -5.0230 C.3   151  LEU151      0.0270
    112  CG        38.4770   -8.8170   -4.2430 C.3   151  LEU151      0.0019
    113  CD1       39.5560   -7.9820   -3.5740 C.3   151  LEU151      0.0001
    114  CD2       37.6080   -7.9460   -5.1480 C.3   151  LEU151      0.0001
    115  N         42.1370   -6.6590  -15.7640 N.3   163  LYS163     -0.1245
    116  CA        41.9910   -5.2000  -15.8420 C.3   163  LYS163      0.1561
    117  C         41.4590   -4.5490  -14.5610 C.2   163  LYS163      0.2260
    118  O         41.6820   -3.3600  -14.3390 O.2   163  LYS163     -0.2867
    119  CB        41.0490   -4.8290  -16.9930 C.3   163  LYS163      0.0271
    120  CG        41.4650   -5.3660  -18.3540 C.3   163  LYS163      0.0035
    121  CD        40.4750   -4.9400  -19.4280 C.3   163  LYS163      0.0206
    122  CE        40.6360   -5.7550  -20.7080 C.3   163  LYS163      0.1093
    123  NZ        39.5560   -5.4560  -21.6960 N.3   163  LYS163     -0.1314
    124  N         40.8130   -2.9010  -11.2310 N.3   164  PHE164     -0.1227
    125  CA        41.5220   -2.2710  -10.1270 C.3   164  PHE164      0.1736
    126  C         40.8690   -2.7420   -8.8260 C.2   164  PHE164      0.2596
    127  O         39.8040   -2.2550   -8.4400 O.2   164  PHE164     -0.2718
    128  CB        41.4680   -0.7450  -10.2700 C.3   164  PHE164      0.0547
    129  CG        42.2590    0.0000   -9.2290 C.ar  164  PHE164     -0.0202
    130  CD1       41.6610    0.9960   -8.4660 C.ar  164  PHE164     -0.0042
    131  CD2       43.6000   -0.2880   -9.0140 C.ar  164  PHE164     -0.0042
    132  CE1       42.3850    1.6850   -7.5080 C.ar  164  PHE164     -0.0003
    133  CE2       44.3310    0.4010   -8.0590 C.ar  164  PHE164     -0.0003
    134  CZ        43.7230    1.3860   -7.3030 C.ar  164  PHE164     -0.0000
    135  N         41.4990   -3.7160   -8.1750 N.am  165  CYS165     -0.1956
    136  CA        40.9360   -4.3330   -6.9770 C.3   165  CYS165      0.1843
    137  C         42.0070   -4.9990   -6.1140 C.2   165  CYS165      0.2626
    138  O         43.1270   -5.2450   -6.5600 O.2   165  CYS165     -0.2714
    139  CB        39.8590   -5.3590   -7.3590 C.3   165  CYS165      0.0997
    140  SG        40.4740   -6.8810   -8.1070 S.3   165  CYS165     -0.0797
    141  N         41.6330   -5.2890   -4.8740 N.am  166  GLY166     -0.1940
    142  CA        42.5220   -5.9110   -3.9000 C.3   166  GLY166      0.2014
    143  C         42.3220   -5.2550   -2.5500 C.2   166  GLY166      0.2640
    144  O         41.1950   -4.9690   -2.1570 O.2   166  GLY166     -0.2714
    145  N         43.4210   -5.0360   -1.8380 N.am  167  THR167     -0.1937
    146  CA        43.4260   -4.2280   -0.6280 C.3   167  THR167      0.2013
    147  C         44.5590   -3.2150   -0.7770 C.2   167  THR167      0.2484
    148  O         45.6780   -3.6080   -1.1180 O.2   167  THR167     -0.2729
    149  CB        43.6440   -5.0930    0.6270 C.3   167  THR167      0.1807
    150  OG1       42.5400   -5.9920    0.7810 O.3   167  THR167     -0.2208
    151  CG2       43.7640   -4.2270    1.8710 C.3   167  THR167      0.0379
    152  N         44.2810   -1.9170   -0.5220 N.am  168  PRO168     -0.2715
    153  CA        45.2350   -0.8350   -0.7940 C.3   168  PRO168      0.1536
    154  C         46.6800   -1.1330   -0.3860 C.2   168  PRO168      0.2598
    155  O         47.6020   -0.9340   -1.1790 O.2   168  PRO168     -0.2715
    156  CB        44.6800    0.3280    0.0320 C.3   168  PRO168      0.0310
    157  CG        43.2270    0.0900    0.0790 C.3   168  PRO168      0.0237
    158  CD        43.0280   -1.3970    0.0600 C.3   168  PRO168      0.0939
    159  N         46.8590   -1.6260    0.8340 N.am  169  GLU169     -0.1964
    160  CA        48.1860   -1.8560    1.4050 C.3   169  GLU169      0.1733
    161  C         48.9470   -3.0090    0.7320 C.2   169  GLU169      0.2616
    162  O         50.1740   -3.0790    0.8190 O.2   169  GLU169     -0.2715
    163  CB        48.0690   -2.1160    2.9140 C.3   169  GLU169      0.0429
    164  CG        47.6670   -0.8850    3.7490 C.3   169  GLU169      0.1163
    165  CD        46.1660   -0.5900    3.7740 C.2   169  GLU169      0.3649
    166  OE1       45.3760   -1.2730    3.0860 O.co2 169  GLU169     -0.2457
    167  OE2       45.7740    0.3440    4.4980 O.co2 169  GLU169     -0.2457
    168  N         48.2190   -3.9010    0.0620 N.am  170  TYR170     -0.1960
    169  CA        48.8080   -5.0950   -0.5520 C.3   170  TYR170      0.1771
    170  C         48.8780   -5.0420   -2.0810 C.2   170  TYR170      0.2619
    171  O         49.3350   -6.0020   -2.7050 O.2   170  TYR170     -0.2715
    172  CB        48.0170   -6.3370   -0.1350 C.3   170  TYR170      0.0574
    173  CG        48.1590   -6.7030    1.3200 C.ar  170  TYR170     -0.0198
    174  CD1       47.3890   -6.0790    2.2920 C.ar  170  TYR170     -0.0009
    175  CD2       49.0580   -7.6860    1.7250 C.ar  170  TYR170     -0.0009
    176  CE1       47.5140   -6.4150    3.6310 C.ar  170  TYR170      0.0417
    177  CE2       49.1880   -8.0310    3.0590 C.ar  170  TYR170      0.0417
    178  CZ        48.4180   -7.3910    4.0070 C.ar  170  TYR170      0.1957
    179  OH        48.5420   -7.7310    5.3290 O.3   170  TYR170     -0.2866
    180  N         48.4410   -3.9360   -2.6800 N.am  171  LEU171     -0.1977
    181  CA        48.4060   -3.8160   -4.1350 C.3   171  LEU171      0.1596
    182  C         49.8090   -3.8620   -4.7270 C.2   171  LEU171      0.2287
    183  O         50.7210   -3.1980   -4.2340 O.2   171  LEU171     -0.2864
    184  CB        47.7130   -2.5140   -4.5680 C.3   171  LEU171      0.0297
    185  CG        46.2100   -2.3860   -4.2940 C.3   171  LEU171      0.0022
    186  CD1       45.6800   -1.0420   -4.8020 C.3   171  LEU171      0.0001
    187  CD2       45.4380   -3.5400   -4.9160 C.3   171  LEU171      0.0001
    188  N         55.6010   -8.8680    6.6270 N.3   196  GLU196     -0.1245
    189  CA        54.9410   -8.5770    7.9020 C.3   196  GLU196      0.1567
    190  C         55.2990   -9.5820    8.9870 C.2   196  GLU196      0.2260
    191  O         55.5990   -9.1970   10.1190 O.2   196  GLU196     -0.2867
    192  CB        53.4230   -8.5430    7.7310 C.3   196  GLU196      0.0388
    193  CG        52.9270   -7.3400    6.9710 C.3   196  GLU196      0.1160
    194  CD        51.4300   -7.3710    6.7640 C.2   196  GLU196      0.3649
    195  OE1       50.9400   -8.2160    5.9720 O.co2 196  GLU196     -0.2457
    196  OE2       50.7470   -6.5410    7.3930 O.co2 196  GLU196     -0.2457
    197  N         54.1350   -3.6340    7.7470 N.3   202  LEU202     -0.1245
    198  CA        53.9820   -3.5700    6.2950 C.3   202  LEU202      0.1561
    199  C         55.2510   -2.9580    5.6940 C.2   202  LEU202      0.2260
    200  O         55.8660   -2.0960    6.3160 O.2   202  LEU202     -0.2867
    201  CB        52.7730   -2.7120    5.9130 C.3   202  LEU202      0.0270
    202  CG        51.3880   -3.3290    6.0920 C.3   202  LEU202      0.0019
    203  CD1       50.3230   -2.2440    6.0140 C.3   202  LEU202      0.0001
    204  CD2       51.1390   -4.4190    5.0490 C.3   202  LEU202      0.0001
    205  N         53.5850    1.7920    4.3330 N.3   205  TYR205     -0.1241
    206  CA        52.3320    2.2440    4.9340 C.3   205  TYR205      0.1605
    207  C         52.1830    3.7600    5.0320 C.2   205  TYR205      0.2264
    208  O         53.1030    4.4720    5.4300 O.2   205  TYR205     -0.2867
    209  CB        52.1220    1.6350    6.3250 C.3   205  TYR205      0.0534
    210  CG        50.7710    2.0010    6.9010 C.ar  205  TYR205     -0.0201
    211  CD1       49.6070    1.4430    6.3850 C.ar  205  TYR205     -0.0009
    212  CD2       50.6520    2.9370    7.9270 C.ar  205  TYR205     -0.0009
    213  CE1       48.3610    1.7830    6.8900 C.ar  205  TYR205      0.0417
    214  CE2       49.4080    3.2870    8.4390 C.ar  205  TYR205      0.0417
    215  CZ        48.2670    2.7040    7.9150 C.ar  205  TYR205      0.1957
    216  OH        47.0270    3.0370    8.4090 O.3   205  TYR205     -0.2866
    217  N         50.2840    4.6250   -2.3040 N.3   213  PHE213     -0.1241
    218  CA        50.5100    4.1310   -3.6640 C.3   213  PHE213      0.1605
    219  C         51.8240    4.6360   -4.2520 C.2   213  PHE213      0.2264
    220  O         52.4610    3.9350   -5.0430 O.2   213  PHE213     -0.2867
    221  CB        49.3400    4.4940   -4.5910 C.3   213  PHE213      0.0534
    222  CG        48.0090    3.9180   -4.1600 C.ar  213  PHE213     -0.0203
    223  CD1       46.8310    4.5970   -4.4430 C.ar  213  PHE213     -0.0042
    224  CD2       47.9310    2.7090   -3.4680 C.ar  213  PHE213     -0.0042
    225  CE1       45.5980    4.0800   -4.0530 C.ar  213  PHE213     -0.0003
    226  CE2       46.7060    2.1930   -3.0720 C.ar  213  PHE213     -0.0003
    227  CZ        45.5380    2.8780   -3.3650 C.ar  213  PHE213     -0.0000
    228  N         38.5970  -11.3960   17.9580 N.3   294  ASP294     -0.1239
    229  CA        38.5180  -10.1470   18.7200 C.3   294  ASP294      0.1674
    230  C         37.2260  -10.0460   19.5190 C.2   294  ASP294      0.2266
    231  O         36.1530  -10.3860   19.0180 O.2   294  ASP294     -0.2867
    232  CB        38.6260   -8.9310   17.7900 C.3   294  ASP294      0.1410
    233  CG        40.0470   -8.6580   17.3370 C.2   294  ASP294      0.3668
    234  OD1       40.2200   -7.8560   16.3940 O.co2 294  ASP294     -0.2456
    235  OD2       40.9920   -9.2300   17.9210 O.co2 294  ASP294     -0.2456
    236  N         35.9610   -7.3130   20.1920 N.3   296  GLU296     -0.1231
    237  CA        35.2640   -6.3270   19.3670 C.3   296  GLU296      0.1699
    238  C         34.0520   -6.9460   18.6780 C.2   296  GLU296      0.2592
    239  O         32.9750   -6.3530   18.6650 O.2   296  GLU296     -0.2718
    240  CB        36.2190   -5.7430   18.3150 C.3   296  GLU296      0.0402
    241  CG        35.6080   -4.6410   17.4460 C.3   296  GLU296      0.1161
    242  CD        36.5600   -4.1200   16.3790 C.2   296  GLU296      0.3649
    243  OE1       36.0740   -3.4820   15.4180 O.co2 296  GLU296     -0.2457
    244  OE2       37.7860   -4.3430   16.4940 O.co2 296  GLU296     -0.2457
    245  N         34.2360   -8.1390   18.1170 N.am  297  PHE297     -0.1976
    246  CA        33.1640   -8.8510   17.4230 C.3   297  PHE297      0.1639
    247  C         32.4390   -9.8480   18.3240 C.2   297  PHE297      0.2290
    248  O         31.2110   -9.8210   18.4120 O.2   297  PHE297     -0.2864
    249  CB        33.7210   -9.5690   16.1950 C.3   297  PHE297      0.0560
    250  CG        34.4210   -8.6540   15.2350 C.ar  297  PHE297     -0.0200
    251  CD1       35.7830   -8.7830   14.9930 C.ar  297  PHE297     -0.0042
    252  CD2       33.7200   -7.6470   14.5860 C.ar  297  PHE297     -0.0042
    253  CE1       36.4300   -7.9340   14.1070 C.ar  297  PHE297     -0.0003
    254  CE2       34.3600   -6.7930   13.7010 C.ar  297  PHE297     -0.0003
    255  CZ        35.7180   -6.9370   13.4610 C.ar  297  PHE297     -0.0000
@<TRIPOS>BOND
     1   123   122    1
     2   122   121    1
     3   121   120    1
     4   120   119    1
     5   119   116    1
     6   116   115    1
     7   116   117    1
     8   117   118    2
     9   124   125    1
    10   128   125    1
    11   128   129    1
    12   125   126    1
    13   129   131   ar
    14   129   130   ar
    15   131   133   ar
    16   126   127    2
    17   126   135   am
    18    19    18   ar
    19    19    17   ar
    20   130   132   ar
    21    10    11    1
    22    18    16   ar
    23    17    15   ar
    24   135   136    1
    25   140   139    1
    26   133   134   ar
    27    16    15   ar
    28   132   134   ar
    29    15    14    1
    30    11    14    1
    31    11    12    1
    32   139   136    1
    33   110   109    2
    34     1     2    1
    35     3     2    1
    36     3     4    2
    37   136   137    1
    38     2     5    1
    39     9     7   ar
    40   109   108    1
    41   138   137    2
    42    12    13    2
    43   137   141   am
    44     7     8   ar
    45     7     6    1
    46   108   111    1
    47   108   107    1
    48     5     6    1
    49   114   112    1
    50   220   219    2
    51   111   112    1
    52   187   185    1
    53   141   142    1
    54   186   185    1
    55   182   183    2
    56   182   181    1
    57   221   222    1
    58   221   218    1
    59   184   185    1
    60   184   181    1
    61   223   222   ar
    62   223   225   ar
    63   219   218    1
    64   112   113    1
    65   222   224   ar
    66   181   180    1
    67   225   227   ar
    68   142   143    1
    69   218   217    1
    70   224   226   ar
    71    57    58    1
    72   227   226   ar
    73   171   170    2
    74   180   170   am
    75   143   144    2
    76   143   145   am
    77   170   169    1
    78    58    61    1
    79    58    59    1
    80   145   146    1
    81    61    62    1
    82   155   154    2
    83   148   147    2
    84    59    60    2
    85    62    63   ar
    86    62    64   ar
    87   153   152    1
    88   153   154    1
    89   153   156    1
    90   147   146    1
    91   147   152   am
    92   146   149    1
    93   102   101    2
    94   169   172    1
    95   169   168    1
    96   152   158    1
    97   154   159   am
    98   101   100    1
    99   172   173    1
   100   156   157    1
   101   158   157    1
   102   168   161   am
   103   105   104   ar
   104   149   150    1
   105   149   151    1
   106   161   162    2
   107   161   160    1
   108   159   160    1
   109   100   103    1
   110   100    99    1
   111   173   175   ar
   112   173   174   ar
   113   160   163    1
   114   104   103    1
   115   104   106   ar
   116   175   177   ar
   117    98    96   am
   118    65    66    1
   119   174   176   ar
   120   163   164    1
   121    96    95    1
   122    96    97    2
   123    71    70    1
   124    71    72    1
   125   177   178   ar
   126   166   165   ar
   127    70    69    1
   128    73    72    1
   129    69    66    1
   130    66    67    1
   131    95    92    1
   132   176   178   ar
   133   164   165    1
   134   165   167   ar
   135   178   179    1
   136   205   206    1
   137    94    93    2
   138    67    68    2
   139    67    74   am
   140    92    93    1
   141    92    91    1
   142   206   207    1
   143   206   209    1
   144   207   208    2
   145   204   202    1
   146    91    84   am
   147   199   198    1
   148   199   200    2
   149    74    75    1
   150   201   202    1
   151   201   198    1
   152   195   194   ar
   153   203   202    1
   154   198   197    1
   155   209   210    1
   156   211   213   ar
   157   211   210   ar
   158   188   189    1
   159   194   193    1
   160   194   196   ar
   161    84    85    2
   162    84    83    1
   163   213   215   ar
   164   210   212   ar
   165   193   192    1
   166    90    88   ar
   167    75    76    1
   168    75    78    1
   169    82    76   am
   170    82    83    1
   171    86    83    1
   172    86    87    1
   173    76    77    2
   174   192   189    1
   175   189   190    1
   176    88    87    1
   177    88    89   ar
   178   215   216    1
   179   215   214   ar
   180   212   214   ar
   181    79    81    1
   182    79    78    1
   183    79    80    1
   184   190   191    2
   185    28    26   ar
   186    26    25    1
   187    26    27   ar
   188    25    24    1
   189    33    34    1
   190    33    30    1
   191    35    34   ar
   192    35    37   ar
   193    29    30    1
   194    34    36   ar
   195    24    21    1
   196    37    39   ar
   197    30    31    1
   198    21    22    1
   199    21    20    1
   200    36    38   ar
   201    22    23    2
   202    39    38   ar
   203    31    32    2
   204   255   254   ar
   205   255   253   ar
   206   254   252   ar
   207   253   251   ar
   208   252   250   ar
   209    49    48    2
   210    45    44    1
   211   251   250   ar
   212   250   249    1
   213    40    41    1
   214   243   242   ar
   215    48    47    1
   216    44    41    1
   217    41    42    1
   218   249   246    1
   219   242   244   ar
   220   242   241    1
   221   234   233   ar
   222    47    46    1
   223    47    50    1
   224   233   232    1
   225   233   235   ar
   226   246   245    1
   227   246   247    1
   228   241   240    1
   229    42    43    2
   230   232   229    1
   231    50    51    1
   232   228   229    1
   233   245   238   am
   234   240   237    1
   235   247   248    2
   236   239   238    2
   237   238   237    1
   238   229   230    1
   239    52    51    1
   240    52    53    1
   241   231   230    2
   242   237   236    1
   243    53    54    2
   244    55    54    1
   245    54    56    1
