@<TRIPOS>MOLECULE
tmp/3e87A01.pdb
 188 178 0 0 0
SMALL
GASTEIGER

@<TRIPOS>ATOM
      1  N         31.8680  -13.3800   14.5230 N.3    13  LEU13      -0.1231
      2  CA        33.3130  -13.4860   14.2870 C.3    13  LEU13       0.1693
      3  C         33.8600  -12.3320   13.4460 C.2    13  LEU13       0.2593
      4  O         35.0250  -11.9580   13.5870 O.2    13  LEU13      -0.2718
      5  CB        33.6420  -14.8140   13.5950 C.3    13  LEU13       0.0284
      6  CG        33.2880  -16.0940   14.3540 C.3    13  LEU13       0.0019
      7  CD1       33.5440  -17.3070   13.4820 C.3    13  LEU13       0.0001
      8  CD2       34.0730  -16.1900   15.6500 C.3    13  LEU13       0.0001
      9  N         33.0280  -11.7870   12.5630 N.am   14  GLY14      -0.1942
     10  CA        33.4300  -10.6790   11.7010 C.3    14  GLY14       0.2014
     11  C         32.2430   -9.8380   11.2780 C.2    14  GLY14       0.2639
     12  O         31.1250  -10.3440   11.1720 O.2    14  GLY14      -0.2714
     13  N         32.4900   -8.5500   11.0420 N.am   15  LYS15      -0.1963
     14  CA        31.4430   -7.6190   10.6220 C.3    15  LYS15       0.1728
     15  C         32.0130   -6.4890    9.7640 C.2    15  LYS15       0.2616
     16  O         33.1580   -6.0730    9.9490 O.2    15  LYS15      -0.2715
     17  CB        30.7220   -7.0460   11.8470 C.3    15  LYS15       0.0311
     18  CG        29.6060   -6.0680   11.5100 C.3    15  LYS15       0.0038
     19  CD        28.6370   -5.8960   12.6660 C.3    15  LYS15       0.0206
     20  CE        27.6870   -4.7340   12.4220 C.3    15  LYS15       0.1093
     21  NZ        26.9510   -4.8700   11.1310 N.3    15  LYS15      -0.1314
     22  N         31.2030   -6.0000    8.8280 N.am   16  GLY16      -0.1955
     23  CA        31.6230   -4.9420    7.9120 C.3    16  GLY16       0.1869
     24  C         30.5140   -4.4650    6.9880 C.2    16  GLY16       0.2309
     25  O         29.3290   -4.6670    7.2640 O.2    16  GLY16      -0.2863
     26  N         29.7090   -5.3280    3.7580 N.3    18  PHE18      -0.1227
     27  CA        29.0080   -6.3530    2.9700 C.3    18  PHE18       0.1736
     28  C         28.0540   -7.2010    3.8100 C.2    18  PHE18       0.2596
     29  O         27.0110   -7.6370    3.3210 O.2    18  PHE18      -0.2718
     30  CB        30.0150   -7.2690    2.2550 C.3    18  PHE18       0.0547
     31  CG        30.0280   -7.1190    0.7550 C.ar   18  PHE18      -0.0202
     32  CD1       30.0400   -5.8600    0.1590 C.ar   18  PHE18      -0.0042
     33  CD2       30.0510   -8.2440   -0.0620 C.ar   18  PHE18      -0.0042
     34  CE1       30.0550   -5.7300   -1.2240 C.ar   18  PHE18      -0.0003
     35  CE2       30.0730   -8.1200   -1.4430 C.ar   18  PHE18      -0.0003
     36  CZ        30.0730   -6.8610   -2.0240 C.ar   18  PHE18      -0.0000
     37  N         28.4200   -7.4330    5.0680 N.am   19  GLY19      -0.1942
     38  CA        27.6170   -8.2510    5.9700 C.3    19  GLY19       0.2014
     39  C         28.3960   -8.6790    7.2000 C.2    19  GLY19       0.2639
     40  O         29.1140   -7.8730    7.7990 O.2    19  GLY19      -0.2714
     41  N         28.2770   -9.9540    7.5650 N.am   20  LYS20      -0.1963
     42  CA        28.9070  -10.4630    8.7820 C.3    20  LYS20       0.1728
     43  C         29.1460  -11.9710    8.7410 C.2    20  LYS20       0.2616
     44  O         28.5450  -12.6850    7.9390 O.2    20  LYS20      -0.2715
     45  CB        28.0580  -10.0930   10.0040 C.3    20  LYS20       0.0311
     46  CG        26.5890  -10.4830    9.8970 C.3    20  LYS20       0.0038
     47  CD        25.7740   -9.8960   11.0380 C.3    20  LYS20       0.0206
     48  CE        24.2820  -10.1380   10.8400 C.3    20  LYS20       0.1093
     49  NZ        23.4640   -9.5740   11.9570 N.3    20  LYS20      -0.1314
     50  N         30.0380  -12.4360    9.6130 N.am   21  VAL21      -0.1977
     51  CA        30.3540  -13.8580    9.7420 C.3    21  VAL21       0.1596
     52  C         30.0710  -14.3060   11.1750 C.2    21  VAL21       0.2287
     53  O         30.5320  -13.6800   12.1290 O.2    21  VAL21      -0.2864
     54  CB        31.8300  -14.1460    9.3870 C.3    21  VAL21       0.0276
     55  CG1       32.1330  -15.6330    9.5110 C.3    21  VAL21       0.0022
     56  CG2       32.1480  -13.6490    7.9810 C.3    21  VAL21       0.0022
     57  N         31.2600  -21.7840   10.2490 N.3    34  ALA34      -0.1245
     58  CA        31.2990  -20.3370   10.0830 C.3    34  ALA34       0.1562
     59  C         30.3560  -19.9710    8.9480 C.2    34  ALA34       0.2260
     60  O         30.4910  -20.4900    7.8390 O.2    34  ALA34      -0.2867
     61  CB        32.7120  -19.8760    9.7680 C.3    34  ALA34       0.0290
     62  N         29.1030  -16.9470    6.6320 N.3    36  LYS36      -0.1245
     63  CA        29.1790  -15.5880    6.1050 C.3    36  LYS36       0.1561
     64  C         27.8200  -15.2040    5.5270 C.2    36  LYS36       0.2260
     65  O         27.3450  -15.8310    4.5810 O.2    36  LYS36      -0.2867
     66  CB        30.2690  -15.4640    5.0340 C.3    36  LYS36       0.0271
     67  CG        30.3060  -14.0990    4.3540 C.3    36  LYS36       0.0035
     68  CD        31.6890  -13.7320    3.8420 C.3    36  LYS36       0.0206
     69  CE        32.1010  -14.5550    2.6390 C.3    36  LYS36       0.1093
     70  NZ        33.3720  -14.0370    2.0550 N.3    36  LYS36      -0.1314
     71  N         25.7100  -12.2740    3.7500 N.3    38  LEU38      -0.1245
     72  CA        25.8490  -11.0400    2.9730 C.3    38  LEU38       0.1561
     73  C         24.4800  -10.4910    2.5850 C.2    38  LEU38       0.2260
     74  O         23.5910  -11.2480    2.1970 O.2    38  LEU38      -0.2867
     75  CB        26.6630  -11.2990    1.7030 C.3    38  LEU38       0.0270
     76  CG        27.9550  -12.1040    1.8550 C.3    38  LEU38       0.0019
     77  CD1       28.6060  -12.3170    0.4990 C.3    38  LEU38       0.0001
     78  CD2       28.9070  -11.4140    2.8120 C.3    38  LEU38       0.0001
     79  N         39.6520  -22.9220    2.4960 N.3    68  THR68      -0.1218
     80  CA        38.4130  -23.1570    3.2390 C.3    68  THR68       0.1862
     81  C         37.3830  -23.8830    2.3740 C.2    68  THR68       0.2287
     82  O         37.2320  -23.5750    1.1880 O.2    68  THR68      -0.2866
     83  CB        37.7960  -21.8400    3.7440 C.3    68  THR68       0.1770
     84  OG1       38.7810  -21.1050    4.4800 O.3    68  THR68      -0.2211
     85  CG2       36.6020  -22.1210    4.6420 C.3    68  THR68       0.0375
     86  N         30.5370  -22.6260    6.0230 N.3    84  MET84      -0.1230
     87  CA        31.8990  -23.1170    5.8070 C.3    84  MET84       0.1702
     88  C         32.4650  -23.7630    7.0650 C.2    84  MET84       0.2592
     89  O         32.0320  -23.4530    8.1730 O.2    84  MET84      -0.2718
     90  CB        32.7940  -21.9560    5.3680 C.3    84  MET84       0.0401
     91  CG        32.1210  -21.0230    4.3700 C.3    84  MET84       0.0596
     92  SD        33.2150  -19.7750    3.7020 S.3    84  MET84      -0.1393
     93  CE        34.2320  -20.7790    2.6210 C.3    84  MET84       0.0692
     94  N         33.4310  -24.6630    6.8850 N.am   85  GLU85      -0.1966
     95  CA        34.1020  -25.3100    8.0150 C.3    85  GLU85       0.1733
     96  C         34.7210  -24.2500    8.9250 C.2    85  GLU85       0.2616
     97  O         35.2890  -23.2710    8.4460 O.2    85  GLU85      -0.2715
     98  CB        35.1720  -26.3030    7.5370 C.3    85  GLU85       0.0429
     99  CG        36.3570  -25.6740    6.7910 C.3    85  GLU85       0.1163
    100  CD        37.3510  -26.7020    6.2670 C.2    85  GLU85       0.3649
    101  OE1       37.2660  -27.8840    6.6640 O.co2  85  GLU85      -0.2457
    102  OE2       38.2250  -26.3190    5.4580 O.co2  85  GLU85      -0.2457
    103  N         34.6020  -24.4520   10.2340 N.am   86  TYR86      -0.1960
    104  CA        35.0220  -23.4610   11.2170 C.3    86  TYR86       0.1771
    105  C         36.5120  -23.5940   11.5390 C.2    86  TYR86       0.2619
    106  O         36.9460  -24.6000   12.1020 O.2    86  TYR86      -0.2715
    107  CB        34.1760  -23.6020   12.4890 C.3    86  TYR86       0.0574
    108  CG        34.5750  -22.6850   13.6270 C.ar   86  TYR86      -0.0198
    109  CD1       34.6920  -21.3120   13.4360 C.ar   86  TYR86      -0.0009
    110  CD2       34.8150  -23.1940   14.9020 C.ar   86  TYR86      -0.0009
    111  CE1       35.0560  -20.4680   14.4840 C.ar   86  TYR86       0.0417
    112  CE2       35.1770  -22.3590   15.9550 C.ar   86  TYR86       0.0417
    113  CZ        35.2950  -21.0000   15.7420 C.ar   86  TYR86       0.1957
    114  OH        35.6550  -20.1800   16.7920 O.3    86  TYR86      -0.2866
    115  N         37.2900  -22.5810   11.1600 N.am   87  ALA87      -0.1977
    116  CA        38.6960  -22.4930   11.5450 C.3    87  ALA87       0.1597
    117  C         38.7840  -21.8140   12.9100 C.2    87  ALA87       0.2287
    118  O         38.6990  -20.5900   13.0020 O.2    87  ALA87      -0.2864
    119  CB        39.4930  -21.7110   10.5040 C.3    87  ALA87       0.0319
    120  N         42.4540  -15.5730   12.7910 N.3    91  GLU91      -0.1245
    121  CA        43.2300  -14.9640   11.7140 C.3    91  GLU91       0.1567
    122  C         44.7030  -14.8680   12.0790 C.2    91  GLU91       0.2260
    123  O         45.0560  -14.7560   13.2510 O.2    91  GLU91      -0.2867
    124  CB        42.7320  -13.5480   11.4180 C.3    91  GLU91       0.0388
    125  CG        41.2960  -13.4510   10.9430 C.3    91  GLU91       0.1160
    126  CD        40.7860  -12.0190   10.9280 C.2    91  GLU91       0.3649
    127  OE1       41.4890  -11.1300   11.4540 O.co2  91  GLU91      -0.2457
    128  OE2       39.6820  -11.7820   10.3920 O.co2  91  GLU91      -0.2457
    129  N         46.3880  -11.5100    2.1950 N.3   132  LYS132     -0.1245
    130  CA        46.6440  -10.6310    3.3350 C.3   132  LYS132      0.1561
    131  C         46.3800  -11.3630    4.6540 C.2   132  LYS132      0.2260
    132  O         45.7510  -12.4210    4.6650 O.2   132  LYS132     -0.2867
    133  CB        45.8120   -9.3440    3.2580 C.3   132  LYS132      0.0271
    134  CG        44.3090   -9.5170    3.1970 C.3   132  LYS132      0.0035
    135  CD        43.6480   -8.1570    3.0530 C.3   132  LYS132      0.0206
    136  CE        42.1510   -8.2200    3.2490 C.3   132  LYS132      0.1093
    137  NZ        41.5360   -6.8630    3.2350 N.3   132  LYS132     -0.1314
    138  N         44.4040  -10.8690    7.1890 N.3   134  GLU134     -0.1231
    139  CA        43.0120  -11.0240    7.6180 C.3   134  GLU134      0.1699
    140  C         42.3340  -12.1880    6.8850 C.2   134  GLU134      0.2592
    141  O         41.3900  -12.7860    7.4000 O.2   134  GLU134     -0.2718
    142  CB        42.2290   -9.7230    7.3890 C.3   134  GLU134      0.0402
    143  CG        40.9410   -9.6140    8.2060 C.3   134  GLU134      0.1161
    144  CD        40.1420   -8.3480    7.9130 C.2   134  GLU134      0.3649
    145  OE1       39.0990   -8.1450    8.5680 O.co2 134  GLU134     -0.2457
    146  OE2       40.5470   -7.5580    7.0310 O.co2 134  GLU134     -0.2457
    147  N         42.8170  -12.4930    5.6810 N.am  135  ASN135     -0.1974
    148  CA        42.2650  -13.5800    4.8680 C.3   135  ASN135      0.1688
    149  C         42.9690  -14.9230    5.0840 C.2   135  ASN135      0.2292
    150  O         42.6010  -15.9210    4.4670 O.2   135  ASN135     -0.2864
    151  CB        42.3000  -13.2040    3.3800 C.3   135  ASN135      0.1181
    152  CG        41.3110  -12.1010    3.0270 C.2   135  ASN135      0.2629
    153  OD1       40.4360  -11.7620    3.8190 O.2   135  ASN135     -0.2716
    154  ND2       41.4450  -11.5420    1.8290 N.am  135  ASN135     -0.0877
    155  N         43.5510  -17.7070    7.7710 N.3   137  MET137     -0.1245
    156  CA        43.1030  -18.2350    9.0550 C.3   137  MET137      0.1570
    157  C         43.8460  -19.5180    9.4020 C.2   137  MET137      0.2261
    158  O         44.5160  -20.1030    8.5550 O.2   137  MET137     -0.2867
    159  CB        41.5900  -18.4360    9.0310 C.3   137  MET137      0.0387
    160  CG        40.8700  -17.1210    8.7110 C.3   137  MET137      0.0595
    161  SD        39.4500  -16.6920    9.7250 S.3   137  MET137     -0.1393
    162  CE        39.8290  -17.4720   11.2910 C.3   137  MET137      0.0692
    163  N         40.7110  -17.7930    3.2190 N.3   147  THR147     -0.1203
    164  CA        39.2830  -17.5080    3.1640 C.3   147  THR147      0.1994
    165  C         39.0220  -16.2950    2.2740 C.2   147  THR147      0.2617
    166  O         39.9400  -15.5290    1.9520 O.2   147  THR147     -0.2717
    167  CB        38.7040  -17.2430    4.5760 C.3   147  THR147      0.1784
    168  OG1       39.3940  -16.1490    5.1890 O.3   147  THR147     -0.2211
    169  CG2       38.8490  -18.4670    5.4590 C.3   147  THR147      0.0376
    170  N         37.7650  -16.1390    1.8780 N.am  148  ASP148     -0.1973
    171  CA        37.3120  -14.9930    1.0960 C.3   148  ASP148      0.1709
    172  C         37.8820  -15.0100   -0.3270 C.2   148  ASP148      0.2293
    173  O         38.9580  -14.4700   -0.5960 O.2   148  ASP148     -0.2864
    174  CB        37.6500  -13.6830    1.8210 C.3   148  ASP148      0.1436
    175  CG        36.6510  -12.5890    1.5370 C.2   148  ASP148      0.3671
    176  OD1       36.1700  -12.4890    0.3860 O.co2 148  ASP148     -0.2456
    177  OD2       36.3420  -11.8270    2.4760 O.co2 148  ASP148     -0.2456
    178  N         39.5280  -14.8480   18.3730 N.3   293  PHE293     -0.1241
    179  CA        38.8280  -13.7930   17.6480 C.3   293  PHE293      0.1605
    180  C         38.6660  -12.5820   18.5590 C.2   293  PHE293      0.2264
    181  O         38.6150  -12.7220   19.7810 O.2   293  PHE293     -0.2867
    182  CB        37.4710  -14.2930   17.1530 C.3   293  PHE293      0.0534
    183  CG        37.5750  -15.4110   16.1590 C.ar  293  PHE293     -0.0203
    184  CD1       37.5750  -16.7350   16.5780 C.ar  293  PHE293     -0.0042
    185  CD2       37.7050  -15.1390   14.8040 C.ar  293  PHE293     -0.0042
    186  CE1       37.6860  -17.7650   15.6620 C.ar  293  PHE293     -0.0003
    187  CE2       37.8170  -16.1650   13.8830 C.ar  293  PHE293     -0.0003
    188  CZ        37.8070  -17.4800   14.3120 C.ar  293  PHE293     -0.0000
@<TRIPOS>BOND
     1    36    35   ar
     2    36    34   ar
     3    35    33   ar
     4    34    32   ar
     5   173   172    2
     6   172   171    1
     7    33    31   ar
     8    32    31   ar
     9   176   175   ar
    10    77    76    1
    11    31    30    1
    12   171   174    1
    13   171   170    1
    14    82    81    2
    15   175   174    1
    16   175   177   ar
    17    75    76    1
    18    75    72    1
    19   154   152   am
    20    76    78    1
    21   170   165   am
    22   166   165    2
    23    70    69    1
    24   129   130    1
    25    74    73    2
    26    30    27    1
    27   165   164    1
    28    81    80    1
    29    79    80    1
    30    73    72    1
    31    93    92    1
    32    69    68    1
    33    27    26    1
    34    27    28    1
    35    72    71    1
    36   152   151    1
    37   152   153    2
    38   135   134    1
    39   135   136    1
    40   164   163    1
    41   164   167    1
    42   134   133    1
    43   137   136    1
    44    80    83    1
    45   133   130    1
    46    29    28    2
    47   130   131    1
    48   151   148    1
    49    92    91    1
    50    83    84    1
    51    83    85    1
    52    28    37   am
    53    68    67    1
    54    67    66    1
    55    91    90    1
    56   150   149    2
    57   167   168    1
    58   167   169    1
    59    65    64    2
    60   131   132    2
    61   148   149    1
    62   148   147    1
    63    66    63    1
    64    37    38    1
    65    90    87    1
    66   102   100   ar
    67    64    63    1
    68   147   140   am
    69    87    86    1
    70    87    88    1
    71    38    39    1
    72    63    62    1
    73   100   101   ar
    74   100    99    1
    75    99    98    1
    76    94    88   am
    77    94    95    1
    78   140   141    2
    79   140   139    1
    80    24    25    2
    81    24    23    1
    82   146   144   ar
    83    88    89    2
    84   138   139    1
    85    39    41   am
    86    39    40    2
    87   142   139    1
    88   142   143    1
    89    98    95    1
    90    41    42    1
    91   155   156    1
    92    60    59    2
    93    23    22    1
    94   144   143    1
    95   144   145   ar
    96    44    43    2
    97    56    54    1
    98    95    96    1
    99    97    96    2
   100   158   157    2
   101   160   159    1
   102   160   161    1
   103    43    42    1
   104    43    50   am
   105    42    45    1
   106    22    15   am
   107    96   103   am
   108    59    58    1
   109   159   156    1
   110   156   157    1
   111    54    55    1
   112    54    51    1
   113    50    51    1
   114   161   162    1
   115    51    52    1
   116    15    16    2
   117    15    14    1
   118    61    58    1
   119    46    45    1
   120    46    47    1
   121    58    57    1
   122   103   104    1
   123   128   126   ar
   124   119   116    1
   125    14    13    1
   126    14    17    1
   127    48    47    1
   128    48    49    1
   129   126   125    1
   130   126   127   ar
   131   125   124    1
   132    13    11   am
   133    21    20    1
   134   115   105   am
   135   115   116    1
   136    12    11    2
   137    52    53    2
   138   104   105    1
   139   104   107    1
   140    11    10    1
   141   124   121    1
   142    18    17    1
   143    18    19    1
   144   105   106    2
   145   116   117    1
   146    10     9    1
   147   121   122    1
   148   121   120    1
   149   122   123    2
   150    20    19    1
   151   107   108    1
   152     9     3   am
   153   117   118    2
   154   109   108   ar
   155   109   111   ar
   156     3     4    2
   157     3     2    1
   158     7     6    1
   159     5     2    1
   160     5     6    1
   161   108   110   ar
   162   187   188   ar
   163   187   185   ar
   164     2     1    1
   165   188   186   ar
   166     6     8    1
   167   111   113   ar
   168   185   183   ar
   169   110   112   ar
   170   186   184   ar
   171   113   112   ar
   172   113   114    1
   173   183   184   ar
   174   183   182    1
   175   182   179    1
   176   179   178    1
   177   179   180    1
   178   180   181    2
