@<TRIPOS>MOLECULE
tmp/3e8nA01.pdb
 191 178 0 0 0
SMALL
GASTEIGER

@<TRIPOS>ATOM
      1  N         25.2960   36.9940   39.4890 N.3    18  ASN18      -0.1225
      2  CA        24.0230   36.3760   39.1510 C.3    18  ASN18       0.1785
      3  C         23.8820   34.9830   39.7500 C.2    18  ASN18       0.2598
      4  O         22.7700   34.5070   39.9640 O.2    18  ASN18      -0.2718
      5  CB        23.8510   36.2830   37.6340 C.3    18  ASN18       0.1169
      6  CG        23.8420   37.6370   36.9650 C.2    18  ASN18       0.2627
      7  OD1       23.1640   38.5670   37.4170 O.2    18  ASN18      -0.2716
      8  ND2       24.5890   37.7580   35.8700 N.am   18  ASN18      -0.0877
      9  N         25.0070   34.3310   40.0210 N.am   19  GLY19      -0.1942
     10  CA        24.9620   32.9890   40.5740 C.3    19  GLY19       0.2014
     11  C         25.0090   32.9040   42.0870 C.2    19  GLY19       0.2639
     12  O         24.4490   31.9790   42.6790 O.2    19  GLY19      -0.2714
     13  N         25.6780   33.8570   42.7220 N.am   20  GLY20      -0.1954
     14  CA        25.7610   33.8200   44.1690 C.3    20  GLY20       0.1869
     15  C         26.4100   35.0380   44.7860 C.2    20  GLY20       0.2309
     16  O         26.7490   36.0000   44.1010 O.2    20  GLY20      -0.2863
     17  N         31.7400   31.6780   49.1880 N.3    37  LYS37      -0.1245
     18  CA        30.7520   31.9360   48.1580 C.3    37  LYS37       0.1561
     19  C         29.4900   31.1510   48.4960 C.2    37  LYS37       0.2260
     20  O         29.5490   29.9430   48.7530 O.2    37  LYS37      -0.2867
     21  CB        31.2750   31.4960   46.7890 C.3    37  LYS37       0.0271
     22  CG        30.1760   31.3940   45.7480 C.3    37  LYS37       0.0035
     23  CD        30.6900   31.1100   44.3460 C.3    37  LYS37       0.0206
     24  CE        31.4820   32.2730   43.7720 C.3    37  LYS37       0.1093
     25  NZ        31.6550   32.0560   42.3140 N.3    37  LYS37      -0.1314
     26  N         25.8300   29.8380   47.2240 N.3    39  ILE39      -0.1245
     27  CA        25.0280   29.6180   46.0310 C.3    39  ILE39       0.1561
     28  C         23.6780   29.0610   46.4640 C.2    39  ILE39       0.2260
     29  O         23.5800   27.9020   46.8570 O.2    39  ILE39      -0.2867
     30  CB        25.7160   28.6150   45.0690 C.3    39  ILE39       0.0252
     31  CG1       27.1590   29.0440   44.7980 C.3    39  ILE39       0.0019
     32  CG2       24.9770   28.5620   43.7560 C.3    39  ILE39       0.0019
     33  CD1       27.9560   28.0060   44.0370 C.3    39  ILE39       0.0001
     34  N         32.2660   18.7100   44.1760 N.3    55  LEU55      -0.1245
     35  CA        33.1080   19.8790   44.4630 C.3    55  LEU55       0.1561
     36  C         34.3740   19.4930   45.2000 C.2    55  LEU55       0.2260
     37  O         35.3490   20.2380   45.2010 O.2    55  LEU55      -0.2867
     38  CB        32.3530   20.9110   45.2990 C.3    55  LEU55       0.0270
     39  CG        31.1570   21.5820   44.6320 C.3    55  LEU55       0.0019
     40  CD1       30.4620   22.4650   45.6330 C.3    55  LEU55       0.0001
     41  CD2       31.6130   22.3880   43.4270 C.3    55  LEU55       0.0001
     42  N         38.0400   19.6820   44.2210 N.3    58  LEU58      -0.1245
     43  CA        38.6950   20.9800   44.3030 C.3    58  LEU58       0.1561
     44  C         39.9230   20.8850   45.2130 C.2    58  LEU58       0.2260
     45  O         40.8530   21.6750   45.0830 O.2    58  LEU58      -0.2867
     46  CB        37.7170   22.0270   44.8360 C.3    58  LEU58       0.0270
     47  CG        37.2180   23.0490   43.8200 C.3    58  LEU58       0.0019
     48  CD1       37.3440   22.5220   42.4030 C.3    58  LEU58       0.0001
     49  CD2       35.7810   23.4070   44.1560 C.3    58  LEU58       0.0001
     50  N         42.8920   20.3020   43.1620 N.3    61  CYS61      -0.1235
     51  CA        43.2710   21.3530   42.2190 C.3    61  CYS61       0.1677
     52  C         44.2400   22.3050   42.8860 C.2    61  CYS61       0.2270
     53  O         43.8570   23.3630   43.3920 O.2    61  CYS61      -0.2867
     54  CB        42.0470   22.1270   41.7370 C.3    61  CYS61       0.0956
     55  SG        40.9630   21.1630   40.6810 S.3    61  CYS61      -0.0801
     56  N         45.7500   28.7870   40.0580 N.3    66  ILE66      -0.1231
     57  CA        44.3820   28.4440   40.4140 C.3    66  ILE66       0.1692
     58  C         44.0570   28.8570   41.8410 C.2    66  ILE66       0.2592
     59  O         44.8120   28.5500   42.7650 O.2    66  ILE66      -0.2718
     60  CB        44.1460   26.9250   40.3760 C.3    66  ILE66       0.0266
     61  CG1       44.3850   26.3740   38.9670 C.3    66  ILE66       0.0019
     62  CG2       42.7360   26.6210   40.8990 C.3    66  ILE66       0.0020
     63  CD1       43.3960   26.8360   37.9350 C.3    66  ILE66       0.0001
     64  N         42.9220   29.5190   42.0410 N.am   67  VAL67      -0.1966
     65  CA        42.5410   29.9210   43.3880 C.3    67  VAL67       0.1727
     66  C         42.5070   28.7350   44.3490 C.2    67  VAL67       0.2617
     67  O         41.9480   27.6790   44.0390 O.2    67  VAL67      -0.2715
     68  CB        41.1800   30.6240   43.3910 C.3    67  VAL67       0.0290
     69  CG1       40.6120   30.6690   44.8120 C.3    67  VAL67       0.0023
     70  CG2       41.3510   32.0460   42.8490 C.3    67  VAL67       0.0023
     71  N         43.1370   28.9180   45.5110 N.am   68  GLY68      -0.1940
     72  CA        43.1850   27.8780   46.5250 C.3    68  GLY68       0.2014
     73  C         41.7990   27.5420   47.0270 C.2    68  GLY68       0.2638
     74  O         40.9280   28.4110   47.0800 O.2    68  GLY68      -0.2714
     75  N         41.5930   26.2840   47.4030 N.am   69  PHE69      -0.1973
     76  CA        40.2930   25.8330   47.8840 C.3    69  PHE69       0.1639
     77  C         40.3880   25.2740   49.2960 C.2    69  PHE69       0.2290
     78  O         41.3510   24.5920   49.6190 O.2    69  PHE69      -0.2864
     79  CB        39.7440   24.7760   46.9250 C.3    69  PHE69       0.0560
     80  CG        38.5430   24.0420   47.4450 C.ar   69  PHE69      -0.0200
     81  CD1       38.6780   22.8060   48.0550 C.ar   69  PHE69      -0.0042
     82  CD2       37.2740   24.5690   47.2790 C.ar   69  PHE69      -0.0042
     83  CE1       37.5670   22.1090   48.4840 C.ar   69  PHE69      -0.0003
     84  CE2       36.1560   23.8790   47.7060 C.ar   69  PHE69      -0.0003
     85  CZ        36.3000   22.6460   48.3040 C.ar   69  PHE69      -0.0000
     86  N         31.1620   27.4490   49.0550 N.3    81  ILE81      -0.1245
     87  CA        32.4340   27.0950   48.4540 C.3    81  ILE81       0.1561
     88  C         33.4030   28.0490   49.1300 C.2    81  ILE81       0.2260
     89  O         33.3250   29.2680   48.9640 O.2    81  ILE81      -0.2867
     90  CB        32.4250   27.2810   46.9210 C.3    81  ILE81       0.0252
     91  CG1       31.3360   26.3870   46.3160 C.3    81  ILE81       0.0019
     92  CG2       33.7900   26.9160   46.3490 C.3    81  ILE81       0.0019
     93  CD1       31.4120   26.2120   44.8210 C.3    81  ILE81       0.0001
     94  N         37.0900   29.4830   49.7060 N.3    83  MET83      -0.1245
     95  CA        38.3680   29.5800   49.0310 C.3    83  MET83       0.1570
     96  C         39.3210   30.6250   49.6170 C.2    83  MET83       0.2261
     97  O         39.0010   31.3440   50.5760 O.2    83  MET83      -0.2867
     98  CB        38.1200   29.8400   47.5360 C.3    83  MET83       0.0387
     99  CG        37.4140   31.1510   47.2310 C.3    83  MET83       0.0595
    100  SD        36.7870   31.3570   45.4980 S.3    83  MET83      -0.1393
    101  CE        34.9990   31.6710   45.8770 C.3    83  MET83       0.0692
    102  N         33.8760   29.3940   31.8660 N.3   130  ASP130     -0.1239
    103  CA        33.4310   30.7410   32.2400 C.3   130  ASP130      0.1674
    104  C         34.5940   31.7110   32.4880 C.2   130  ASP130      0.2266
    105  O         34.6960   32.3520   33.5360 O.2   130  ASP130     -0.2867
    106  CB        32.5460   30.6440   33.4850 C.3   130  ASP130      0.1410
    107  CG        31.7500   31.9170   33.7530 C.2   130  ASP130      0.3668
    108  OD1       31.2190   32.0440   34.8860 O.co2 130  ASP130     -0.2456
    109  OD2       31.6460   32.7810   32.8460 O.co2 130  ASP130     -0.2456
    110  N         36.4440   35.0500   32.0970 N.3   132  LYS132     -0.1245
    111  CA        36.0630   36.4490   31.9100 C.3   132  LYS132      0.1561
    112  C         36.7590   37.1970   33.0500 C.2   132  LYS132      0.2260
    113  O         37.0850   36.6050   34.0770 O.2   132  LYS132     -0.2867
    114  CB        34.5320   36.6070   31.9990 C.3   132  LYS132      0.0271
    115  CG        33.9530   36.2910   33.3690 C.3   132  LYS132      0.0035
    116  CD        32.5830   35.6350   33.2740 C.3   132  LYS132      0.0206
    117  CE        31.5000   36.4880   33.9040 C.3   132  LYS132      0.1093
    118  NZ        31.4430   37.8080   33.2140 N.3   132  LYS132     -0.1314
    119  N         39.3870   31.2650   38.7880 N.3   147  CYS147     -0.1221
    120  CA        38.4200   30.6790   39.6920 C.3   147  CYS147      0.1808
    121  C         37.1290   30.4270   38.9160 C.2   147  CYS147      0.2601
    122  O         37.0350   30.7340   37.7280 O.2   147  CYS147     -0.2717
    123  CB        38.1520   31.6050   40.8800 C.3   147  CYS147      0.0970
    124  SG        37.1360   33.0580   40.4830 S.3   147  CYS147     -0.0800
    125  N         36.1460   29.8380   39.5860 N.am  148  ASP148     -0.1959
    126  CA        34.8530   29.5920   38.9650 C.3   148  ASP148      0.1840
    127  C         34.8650   28.7480   37.6810 C.2   148  ASP148      0.2622
    128  O         34.2070   29.0790   36.6970 O.2   148  ASP148     -0.2715
    129  CB        34.1610   30.9520   38.7370 C.3   148  ASP148      0.1450
    130  CG        33.7900   31.6200   40.0450 C.2   148  ASP148      0.3671
    131  OD1       33.4220   32.8180   40.0510 O.co2 148  ASP148     -0.2456
    132  OD2       33.8600   30.9310   41.0930 O.co2 148  ASP148     -0.2456
    133  N         35.6120   27.6530   37.6970 N.am  149  PHE149     -0.1960
    134  CA        35.6550   26.7780   36.5410 C.3   149  PHE149      0.1771
    135  C         34.7320   25.5690   36.8130 C.2   149  PHE149      0.2620
    136  O         34.4930   25.2080   37.9690 O.2   149  PHE149     -0.2715
    137  CB        37.1090   26.3610   36.2510 C.3   149  PHE149      0.0574
    138  CG        37.8790   25.9270   37.4650 C.ar  149  PHE149     -0.0200
    139  CD1       37.7480   24.6390   37.9450 C.ar  149  PHE149     -0.0042
    140  CD2       38.7270   26.8100   38.1300 C.ar  149  PHE149     -0.0042
    141  CE1       38.4510   24.2210   39.0600 C.ar  149  PHE149     -0.0003
    142  CE2       39.4360   26.4010   39.2490 C.ar  149  PHE149     -0.0003
    143  CZ        39.2950   25.1010   39.7170 C.ar  149  PHE149     -0.0000
    144  N         34.2040   24.9700   35.7490 N.am  150  GLY150     -0.1940
    145  CA        33.2850   23.8550   35.9020 C.3   150  GLY150      0.2014
    146  C         33.8990   22.5510   36.3690 C.2   150  GLY150      0.2639
    147  O         34.3720   21.7450   35.5600 O.2   150  GLY150     -0.2714
    148  N         33.8840   22.3290   37.6760 N.am  151  VAL151     -0.1963
    149  CA        34.4490   21.1120   38.2270 C.3   151  VAL151      0.1727
    150  C         33.3500   20.0830   38.4880 C.2   151  VAL151      0.2616
    151  O         33.5720   18.8760   38.3980 O.2   151  VAL151     -0.2715
    152  CB        35.2300   21.4160   39.5330 C.3   151  VAL151      0.0290
    153  CG1       34.4230   22.3340   40.4300 C.3   151  VAL151      0.0023
    154  CG2       35.5580   20.1340   40.2470 C.3   151  VAL151      0.0023
    155  N         32.1590   20.5740   38.7980 N.am  152  SER152     -0.1950
    156  CA        31.0180   19.7140   39.0670 C.3   152  SER152      0.1924
    157  C         30.0130   19.7740   37.9280 C.2   152  SER152      0.2314
    158  O         29.4090   20.8240   37.6620 O.2   152  SER152     -0.2863
    159  CB        30.3270   20.1320   40.3630 C.3   152  SER152      0.2116
    160  OG        28.9840   19.6750   40.3810 O.3   152  SER152     -0.2180
    161  N         26.5350   20.8070   39.0660 N.3   155  LEU155     -0.1231
    162  CA        26.3310   22.2330   39.3280 C.3   155  LEU155      0.1693
    163  C         26.0880   22.9650   38.0090 C.2   155  LEU155      0.2591
    164  O         25.2390   23.8510   37.9190 O.2   155  LEU155     -0.2718
    165  CB        27.5500   22.8390   40.0240 C.3   155  LEU155      0.0284
    166  CG        27.2450   23.6750   41.2620 C.3   155  LEU155      0.0019
    167  CD1       28.4710   24.4930   41.5700 C.3   155  LEU155      0.0001
    168  CD2       26.0410   24.5820   41.0440 C.3   155  LEU155      0.0001
    169  N         26.8490   22.5910   36.9850 N.am  156  ILE156     -0.1980
    170  CA        26.6900   23.2070   35.6760 C.3   156  ILE156      0.1595
    171  C         25.2290   23.0490   35.2430 C.2   156  ILE156      0.2287
    172  O         24.6180   24.0030   34.7800 O.2   156  ILE156     -0.2864
    173  CB        27.6110   22.5440   34.6160 C.3   156  ILE156      0.0276
    174  CG1       29.0740   22.6540   35.0460 C.3   156  ILE156      0.0022
    175  CG2       27.4270   23.2180   33.2680 C.3   156  ILE156      0.0022
    176  CD1       30.0480   22.0090   34.0860 C.3   156  ILE156      0.0001
    177  N         22.6380   25.1780   36.9730 N.3   159  MET159     -0.1245
    178  CA        22.8460   26.6010   36.7180 C.3   159  MET159      0.1570
    179  C         22.5060   26.8950   35.2490 C.2   159  MET159      0.2261
    180  O         22.6390   28.0310   34.7890 O.2   159  MET159     -0.2867
    181  CB        24.3070   26.9920   37.0030 C.3   159  MET159      0.0387
    182  CG        24.8070   26.7010   38.4200 C.3   159  MET159      0.0595
    183  SD        24.1580   27.8350   39.6560 S.3   159  MET159     -0.1393
    184  CE        24.2490   29.3840   38.7420 C.3   159  MET159      0.0692
    185  N         22.9940   34.4420   33.1310 N.3   163  VAL163     -0.1245
    186  CA        23.1990   34.8220   31.7350 C.3   163  VAL163      0.1561
    187  C         23.8400   36.2080   31.6200 C.2   163  VAL163      0.2260
    188  O         25.0660   36.3420   31.5920 O.2   163  VAL163     -0.2867
    189  CB        21.8710   34.8400   30.9630 C.3   163  VAL163      0.0252
    190  CG1       22.1430   35.0850   29.4830 C.3   163  VAL163      0.0019
    191  CG2       21.1370   33.5230   31.1560 C.3   163  VAL163      0.0019
@<TRIPOS>BOND
     1   190   189    1
     2   189   191    1
     3   189   186    1
     4   188   187    2
     5   187   186    1
     6   186   185    1
     7   102   103    1
     8   111   114    1
     9   111   110    1
    10   111   112    1
    11   114   115    1
    12   103   104    1
    13   103   106    1
    14   104   105    2
    15   109   107   ar
    16   112   113    2
    17   118   117    1
    18   175   173    1
    19   116   115    1
    20   116   117    1
    21   106   107    1
    22   107   108   ar
    23   176   174    1
    24   173   174    1
    25   173   170    1
    26   172   171    2
    27   180   179    2
    28   171   170    1
    29   179   178    1
    30   147   146    2
    31   170   169    1
    32   144   145    1
    33   144   135   am
    34     8     6   am
    35   145   146    1
    36   137   134    1
    37   137   138    1
    38   146   148   am
    39   134   135    1
    40   134   133    1
    41   128   127    2
    42   178   177    1
    43   178   181    1
    44   135   136    2
    45     6     7    2
    46     6     5    1
    47   169   163   am
    48   181   182    1
    49   138   139   ar
    50   138   140   ar
    51     5     2    1
    52   158   157    2
    53   148   149    1
    54   127   133   am
    55   127   126    1
    56   122   121    2
    57   164   163    2
    58   157   156    1
    59    63    61    1
    60   139   141   ar
    61   163   162    1
    62   140   142   ar
    63   149   150    1
    64   149   152    1
    65   151   150    2
    66   182   183    1
    67   150   155   am
    68   129   126    1
    69   129   130    1
    70   184   183    1
    71   119   120    1
    72   155   156    1
    73   121   125   am
    74   121   120    1
    75   126   125    1
    76    61    60    1
    77   141   143   ar
    78   161   162    1
    79   156   159    1
    80     2     1    1
    81     2     3    1
    82   142   143   ar
    83   162   165    1
    84   152   154    1
    85   152   153    1
    86   120   123    1
    87     3     4    2
    88     3     9   am
    89     9    10    1
    90   165   166    1
    91   130   131   ar
    92   130   132   ar
    93    56    57    1
    94   159   160    1
    95    60    57    1
    96    60    62    1
    97    57    58    1
    98   124   123    1
    99    10    11    1
   100    55    54    1
   101   168   166    1
   102   166   167    1
   103    54    51    1
   104    58    64   am
   105    58    59    2
   106    64    65    1
   107    11    12    2
   108    11    13   am
   109    51    52    1
   110    51    50    1
   111    25    24    1
   112    48    47    1
   113    13    14    1
   114    70    68    1
   115    52    53    2
   116    65    68    1
   117    65    66    1
   118    68    69    1
   119    41    39    1
   120    32    30    1
   121    24    23    1
   122    47    49    1
   123    47    46    1
   124    33    31    1
   125    67    66    2
   126    16    15    2
   127    14    15    1
   128    34    35    1
   129    42    43    1
   130    43    46    1
   131    43    44    1
   132    23    22    1
   133    66    71   am
   134    35    36    1
   135    35    38    1
   136    39    38    1
   137    39    40    1
   138    31    30    1
   139    93    91    1
   140    30    27    1
   141    45    44    2
   142    36    37    2
   143   100   101    1
   144   100    99    1
   145    71    72    1
   146    22    21    1
   147    27    28    1
   148    27    26    1
   149    91    90    1
   150    92    90    1
   151    28    29    2
   152    72    73    1
   153    21    18    1
   154    90    87    1
   155    79    80    1
   156    79    76    1
   157    73    74    2
   158    73    75   am
   159    99    98    1
   160    82    80   ar
   161    82    84   ar
   162    75    76    1
   163    80    81   ar
   164    98    95    1
   165    84    85   ar
   166    76    77    1
   167    81    83   ar
   168    18    19    1
   169    18    17    1
   170    85    83   ar
   171    87    86    1
   172    87    88    1
   173    19    20    2
   174    89    88    2
   175    95    96    1
   176    95    94    1
   177    77    78    2
   178    96    97    2
