@<TRIPOS>MOLECULE
tmp/3e8rB00.pdb
 210 205 0 0 0
SMALL
GASTEIGER

@<TRIPOS>ATOM
      1  N         43.6080   26.9760   36.5490 N.3   127  GLY127     -0.1210
      2  CA        44.0540   27.0760   37.9250 C.3   127  GLY127      0.1956
      3  C         44.6670   28.4200   38.3150 C.2   127  GLY127      0.2613
      4  O         45.2910   28.5300   39.3590 O.2   127  GLY127     -0.2717
      5  N         44.4740   29.4380   37.4840 N.am  128  THR128     -0.1938
      6  CA        44.9320   30.7900   37.7870 C.3   128  THR128      0.2028
      7  C         44.0410   31.3910   38.8540 C.2   128  THR128      0.2642
      8  O         42.8110   31.3630   38.7320 O.2   128  THR128     -0.2714
      9  CB        44.8860   31.6770   36.5300 C.3   128  THR128      0.1808
     10  OG1       45.8730   31.2200   35.6000 O.3   128  THR128     -0.2208
     11  CG2       45.1230   33.1560   36.9010 C.3   128  THR128      0.0379
     12  N         44.6660   31.9610   39.8840 N.am  129  LEU129     -0.1963
     13  CA        43.9480   32.5480   40.9970 C.3   129  LEU129      0.1728
     14  C         44.1350   34.0630   41.1640 C.2   129  LEU129      0.2617
     15  O         43.3350   34.7330   41.8110 O.2   129  LEU129     -0.2715
     16  CB        44.3740   31.8570   42.2900 C.3   129  LEU129      0.0311
     17  CG        43.9800   30.3870   42.3120 C.3   129  LEU129      0.0022
     18  CD1       45.1900   29.5230   42.6190 C.3   129  LEU129      0.0001
     19  CD2       42.8240   30.1770   43.2900 C.3   129  LEU129      0.0001
     20  N         45.2190   34.6060   40.6220 N.am  130  GLY130     -0.1940
     21  CA        45.4610   36.0230   40.7610 C.3   130  GLY130      0.2014
     22  C         46.5310   36.5040   39.8090 C.2   130  GLY130      0.2639
     23  O         47.1300   35.7090   39.0710 O.2   130  GLY130     -0.2714
     24  N         46.7750   37.8080   39.8510 N.am  131  LEU131     -0.1963
     25  CA        47.7410   38.4500   38.9520 C.3   131  LEU131      0.1728
     26  C         48.0770   39.7870   39.5700 C.2   131  LEU131      0.2616
     27  O         47.2650   40.3800   40.2930 O.2   131  LEU131     -0.2715
     28  CB        47.1050   38.6720   37.5540 C.3   131  LEU131      0.0311
     29  CG        47.9590   39.3950   36.5080 C.3   131  LEU131      0.0022
     30  CD1       49.1600   38.5230   36.1180 C.3   131  LEU131      0.0001
     31  CD2       47.1100   39.6830   35.2420 C.3   131  LEU131      0.0001
     32  N         49.2660   40.2890   39.2820 N.am  132  ALA132     -0.1977
     33  CA        49.6690   41.5600   39.8480 C.3   132  ALA132      0.1597
     34  C         50.8450   42.1120   39.0660 C.2   132  ALA132      0.2287
     35  O         51.5480   41.3810   38.3860 O.2   132  ALA132     -0.2864
     36  CB        50.0490   41.4020   41.3270 C.3   132  ALA132      0.0319
     37  N         38.1000   28.5420   42.3480 N.3   170  ASN170     -0.1240
     38  CA        39.0040   27.7570   41.5350 C.3   170  ASN170      0.1653
     39  C         38.3840   26.3750   41.2930 C.2   170  ASN170      0.2266
     40  O         37.8390   25.7570   42.2190 O.2   170  ASN170     -0.2867
     41  CB        40.3810   27.6250   42.2160 C.3   170  ASN170      0.1155
     42  CG        41.4710   27.2980   41.2400 C.2   170  ASN170      0.2627
     43  OD1       41.3480   27.5880   40.0440 O.2   170  ASN170     -0.2716
     44  ND2       42.5220   26.6290   41.7150 N.am  170  ASN170     -0.0877
     45  N         37.8960   28.5380   47.3120 N.3   175  ILE175     -0.1245
     46  CA        39.1630   28.0190   47.8510 C.3   175  ILE175      0.1561
     47  C         39.1680   28.1930   49.3970 C.2   175  ILE175      0.2260
     48  O         38.3920   28.9640   49.9680 O.2   175  ILE175     -0.2867
     49  CB        40.3860   28.7020   47.2360 C.3   175  ILE175      0.0252
     50  CG1       40.4420   30.1800   47.6410 C.3   175  ILE175      0.0019
     51  CG2       40.4590   28.4430   45.6820 C.3   175  ILE175      0.0019
     52  CD1       41.7040   30.9560   47.0440 C.3   175  ILE175      0.0001
     53  N         44.2000   29.2450   51.6610 N.3   179  GLU179     -0.1245
     54  CA        44.6300   29.3510   50.2500 C.3   179  GLU179      0.1567
     55  C         44.5040   30.7860   49.7150 C.2   179  GLU179      0.2260
     56  O         45.4120   31.2840   49.0380 O.2   179  GLU179     -0.2867
     57  CB        43.9090   28.3440   49.3680 C.3   179  GLU179      0.0388
     58  CG        44.3870   26.9190   49.6620 C.3   179  GLU179      0.1160
     59  CD        43.4540   25.8530   49.0640 C.2   179  GLU179      0.3649
     60  OE1       43.8600   24.6790   49.0040 O.co2 179  GLU179     -0.2457
     61  OE2       42.3220   26.1960   48.6730 O.co2 179  GLU179     -0.2457
     62  N         47.4610   32.8130   50.9410 N.3   182  LEU182     -0.1231
     63  CA        48.6290   32.5300   50.1030 C.3   182  LEU182      0.1693
     64  C         48.6100   33.3060   48.7780 C.2   182  LEU182      0.2591
     65  O         49.6130   33.8840   48.3810 O.2   182  LEU182     -0.2718
     66  CB        48.7660   31.0190   49.7860 C.3   182  LEU182      0.0284
     67  CG        49.0950   30.0740   50.9590 C.3   182  LEU182      0.0019
     68  CD1       49.1140   28.6200   50.4510 C.3   182  LEU182      0.0001
     69  CD2       50.4620   30.3990   51.5970 C.3   182  LEU182      0.0001
     70  N         47.4600   33.3470   48.1230 N.am  183  VAL183     -0.1980
     71  CA        47.3780   34.0280   46.8220 C.3   183  VAL183      0.1595
     72  C         47.6010   35.5020   46.9900 C.2   183  VAL183      0.2287
     73  O         48.4010   36.1040   46.2640 O.2   183  VAL183     -0.2864
     74  CB        46.0540   33.7400   46.1160 C.3   183  VAL183      0.0276
     75  CG1       45.8190   34.6880   44.8930 C.3   183  VAL183      0.0022
     76  CG2       45.9590   32.2790   45.7740 C.3   183  VAL183      0.0022
     77  N         51.1720   36.2890   47.7470 N.3   186  HIS186     -0.1226
     78  CA        51.9380   36.1250   46.5040 C.3   186  HIS186      0.1752
     79  C         51.7370   37.3030   45.5470 C.2   186  HIS186      0.2595
     80  O         52.7110   37.8520   45.0410 O.2   186  HIS186     -0.2718
     81  CB        51.5520   34.7930   45.8540 C.3   186  HIS186      0.0759
     82  CG        52.2250   34.5130   44.5510 C.ar  186  HIS186      0.0818
     83  ND1       53.1840   33.5290   44.4110 N.ar  186  HIS186     -0.2268
     84  CD2       51.9810   34.9810   43.3010 C.ar  186  HIS186      0.1154
     85  CE1       53.5160   33.4150   43.1430 C.ar  186  HIS186      0.1986
     86  NE2       52.8130   34.2900   42.4480 N.ar  186  HIS186     -0.2212
     87  N         50.4870   37.6980   45.3020 N.am  187  GLU187     -0.1979
     88  CA        50.2290   38.8630   44.4240 C.3   187  GLU187      0.1602
     89  C         50.8520   40.1570   44.9680 C.2   187  GLU187      0.2287
     90  O         51.5080   40.8940   44.2050 O.2   187  GLU187     -0.2864
     91  CB        48.7510   39.0250   44.0990 C.3   187  GLU187      0.0415
     92  CG        48.0610   37.7460   43.5600 C.3   187  GLU187      0.1163
     93  CD        48.8070   37.1030   42.4110 C.2   187  GLU187      0.3649
     94  OE1       49.6680   37.7900   41.7530 O.co2 187  GLU187     -0.2457
     95  OE2       48.5040   35.9290   42.1220 O.co2 187  GLU187     -0.2457
     96  N         54.5380   40.2410   44.2890 N.3   190  HIS190     -0.1241
     97  CA        54.9030   40.8210   42.9750 C.3   190  HIS190      0.1621
     98  C         54.8520   42.3540   43.0630 C.2   190  HIS190      0.2264
     99  O         55.7760   43.0340   42.5860 O.2   190  HIS190     -0.2867
    100  CB        53.9340   40.3710   41.8720 C.3   190  HIS190      0.0745
    101  CG        54.1270   38.9510   41.4450 C.ar  190  HIS190      0.0817
    102  ND1       55.3410   38.4620   41.0190 N.ar  190  HIS190     -0.2268
    103  CD2       53.2540   37.9170   41.3680 C.ar  190  HIS190      0.1154
    104  CE1       55.2090   37.1870   40.6860 C.ar  190  HIS190      0.1986
    105  NE2       53.9490   36.8380   40.8790 N.ar  190  HIS190     -0.2212
    106  N         59.0250   35.1670   40.5150 N.3   196  HIS196     -0.1241
    107  CA        58.8520   33.8200   41.0440 C.3   196  HIS196      0.1621
    108  C         60.1600   33.2250   41.4880 C.2   196  HIS196      0.2264
    109  O         61.2280   33.5340   40.9510 O.2   196  HIS196     -0.2867
    110  CB        58.1840   32.9090   40.0120 C.3   196  HIS196      0.0745
    111  CG        56.7440   33.2290   39.7950 C.ar  196  HIS196      0.0817
    112  ND1       56.0850   32.9540   38.6190 N.ar  196  HIS196     -0.2268
    113  CD2       55.8560   33.8720   40.5850 C.ar  196  HIS196      0.1154
    114  CE1       54.8380   33.3760   38.7080 C.ar  196  HIS196      0.1986
    115  NE2       54.6760   33.9440   39.8890 N.ar  196  HIS196     -0.2212
    116  N         58.0840   24.6370   49.5640 N.3   213  LYS213     -0.1231
    117  CA        58.3150   25.8550   48.7690 C.3   213  LYS213      0.1693
    118  C         57.9180   27.1330   49.5220 C.2   213  LYS213      0.2592
    119  O         57.0790   27.1260   50.4380 O.2   213  LYS213     -0.2718
    120  CB        57.5110   25.8060   47.4400 C.3   213  LYS213      0.0285
    121  CG        57.6350   24.4890   46.6210 C.3   213  LYS213      0.0035
    122  CD        59.0680   24.0830   46.5090 C.3   213  LYS213      0.0206
    123  CE        59.2920   23.1240   45.3470 C.3   213  LYS213      0.1093
    124  NZ        58.8860   21.7640   45.6990 N.3   213  LYS213     -0.1314
    125  N         58.4610   28.2390   49.0430 N.am  214  TYR214     -0.1962
    126  CA        58.1500   29.5500   49.5830 C.3   214  TYR214      0.1771
    127  C         57.0270   30.1680   48.7860 C.2   214  TYR214      0.2619
    128  O         56.6000   29.6270   47.7730 O.2   214  TYR214     -0.2715
    129  CB        59.3540   30.4550   49.5750 C.3   214  TYR214      0.0574
    130  CG        60.3430   30.0750   50.6180 C.ar  214  TYR214     -0.0198
    131  CD1       60.0350   30.1990   51.9770 C.ar  214  TYR214     -0.0009
    132  CD2       61.5650   29.5360   50.2620 C.ar  214  TYR214     -0.0009
    133  CE1       60.9630   29.8470   52.9380 C.ar  214  TYR214      0.0417
    134  CE2       62.4730   29.1330   51.2230 C.ar  214  TYR214      0.0417
    135  CZ        62.1970   29.3380   52.5360 C.ar  214  TYR214      0.1957
    136  OH        63.1310   28.9540   53.4510 O.3   214  TYR214     -0.2866
    137  N         56.4620   31.2410   49.3230 N.am  215  VAL215     -0.1977
    138  CA        55.2360   31.8440   48.7660 C.3   215  VAL215      0.1596
    139  C         55.2620   32.3110   47.2710 C.2   215  VAL215      0.2287
    140  O         54.2130   32.3620   46.5950 O.2   215  VAL215     -0.2864
    141  CB        54.6880   32.9570   49.7330 C.3   215  VAL215      0.0276
    142  CG1       55.4830   34.2580   49.5640 C.3   215  VAL215      0.0022
    143  CG2       53.1920   33.2140   49.4540 C.3   215  VAL215      0.0022
    144  N         56.6390   30.7540   44.9290 N.3   217  TYR217     -0.1228
    145  CA        56.8090   29.5880   44.0590 C.3   217  TYR217      0.1721
    146  C         55.8190   29.7620   42.8890 C.2   217  TYR217      0.2437
    147  O         54.7500   30.3210   43.0650 O.2   217  TYR217     -0.2733
    148  CB        56.4890   28.2730   44.8090 C.3   217  TYR217      0.0547
    149  CG        57.0380   27.0770   44.0660 C.ar  217  TYR217     -0.0200
    150  CD1       58.4240   26.8650   43.9970 C.ar  217  TYR217     -0.0009
    151  CD2       56.1850   26.1570   43.4420 C.ar  217  TYR217     -0.0009
    152  CE1       58.9540   25.7800   43.2730 C.ar  217  TYR217      0.0417
    153  CE2       56.7190   25.0310   42.7280 C.ar  217  TYR217      0.0417
    154  CZ        58.1010   24.9030   42.6090 C.ar  217  TYR217      0.1957
    155  OH        58.6460   23.8300   41.9330 O.3   217  TYR217     -0.2866
    156  N         56.1800   29.2990   41.6870 N.am  218  PRO218     -0.2718
    157  CA        55.3660   29.5750   40.4870 C.3   218  PRO218      0.1535
    158  C         54.0750   28.7800   40.2950 C.2   218  PRO218      0.2598
    159  O         53.2270   29.1500   39.4850 O.2   218  PRO218     -0.2715
    160  CB        56.3650   29.3700   39.3130 C.3   218  PRO218      0.0310
    161  CG        57.4290   28.5320   39.8300 C.3   218  PRO218      0.0237
    162  CD        57.5300   28.8090   41.3450 C.3   218  PRO218      0.0939
    163  N         53.9040   27.7230   41.0750 N.am  219  ILE219     -0.1964
    164  CA        52.7260   26.8650   40.9560 C.3   219  ILE219      0.1727
    165  C         51.8510   26.9110   42.2120 C.2   219  ILE219      0.2616
    166  O         52.3450   26.6470   43.3100 O.2   219  ILE219     -0.2715
    167  CB        53.1810   25.4090   40.7230 C.3   219  ILE219      0.0290
    168  CG1       54.1520   25.3310   39.5490 C.3   219  ILE219      0.0022
    169  CG2       51.9740   24.4630   40.5420 C.3   219  ILE219      0.0023
    170  CD1       54.1440   23.9900   38.8370 C.3   219  ILE219      0.0001
    171  N         50.5640   27.2090   42.0360 N.am  220  ALA220     -0.1963
    172  CA        49.6340   27.2710   43.1630 C.3   220  ALA220      0.1728
    173  C         48.9610   25.9180   43.4450 C.2   220  ALA220      0.2616
    174  O         47.8030   25.6920   43.0800 O.2   220  ALA220     -0.2715
    175  CB        48.5830   28.3560   42.9440 C.3   220  ALA220      0.0334
    176  N         49.6760   25.0370   44.1230 N.am  221  VAL221     -0.1963
    177  CA        49.0740   23.7620   44.5030 C.3   221  VAL221      0.1727
    178  C         49.5560   23.3090   45.8670 C.2   221  VAL221      0.2617
    179  O         50.7240   23.5090   46.2320 O.2   221  VAL221     -0.2715
    180  CB        49.3520   22.6390   43.4570 C.3   221  VAL221      0.0290
    181  CG1       48.5210   21.3870   43.7860 C.3   221  VAL221      0.0023
    182  CG2       49.0430   23.1200   42.0550 C.3   221  VAL221      0.0023
    183  N         48.6810   22.5970   46.5650 N.am  222  SER222     -0.1936
    184  CA        49.0100   22.0170   47.8580 C.3   222  SER222      0.2055
    185  C         49.7400   22.9910   48.7930 C.2   222  SER222      0.2643
    186  O         50.9120   22.8180   49.1290 O.2   222  SER222     -0.2714
    187  CB        49.6420   20.6040   47.6860 C.3   222  SER222      0.2130
    188  OG        51.0210   20.5280   47.9940 O.3   222  SER222     -0.2179
    189  N         49.0520   24.0820   49.1180 N.am  223  GLY223     -0.1954
    190  CA        49.5850   25.1150   49.9950 C.3   223  GLY223      0.1869
    191  C         49.4470   24.7800   51.4830 C.2   223  GLY223      0.2309
    192  O         48.9150   25.5800   52.2480 O.2   223  GLY223     -0.2863
    193  N         52.2070   23.4160   53.5630 N.3   225  HIS225     -0.1241
    194  CA        53.5120   23.1760   54.1580 C.3   225  HIS225      0.1621
    195  C         53.9610   24.4620   54.7980 C.2   225  HIS225      0.2264
    196  O         53.5350   25.5340   54.4000 O.2   225  HIS225     -0.2867
    197  CB        54.5240   22.7420   53.1090 C.3   225  HIS225      0.0745
    198  CG        54.0530   21.6070   52.2490 C.ar  225  HIS225      0.0817
    199  ND1       53.3920   21.8010   51.0540 N.ar  225  HIS225     -0.2268
    200  CD2       54.1920   20.2670   52.3890 C.ar  225  HIS225      0.1154
    201  CE1       53.1380   20.6300   50.4980 C.ar  225  HIS225      0.1986
    202  NE2       53.6230   19.6830   51.2830 N.ar  225  HIS225     -0.2212
    203  N         55.2930   27.6130   52.8090 N.3   228  ASN228     -0.1240
    204  CA        54.4240   28.1110   51.7570 C.3   228  ASN228      0.1653
    205  C         53.9370   29.5450   51.9740 C.2   228  ASN228      0.2266
    206  O         53.6840   30.2870   51.0050 O.2   228  ASN228     -0.2867
    207  CB        53.2010   27.1940   51.5380 C.3   228  ASN228      0.1155
    208  CG        53.5630   25.7900   51.0800 C.2   228  ASN228      0.2627
    209  OD1       52.6840   24.9250   51.0330 O.2   228  ASN228     -0.2716
    210  ND2       54.8430   25.5420   50.7680 N.am  228  ASN228     -0.0877
@<TRIPOS>BOND
     1    31    29    1
     2    10     9    1
     3    30    29    1
     4    29    28    1
     5     9    11    1
     6     9     6    1
     7     1     2    1
     8     5     6    1
     9     5     3   am
    10    28    25    1
    11     6     7    1
    12     2     3    1
    13     3     4    2
    14    35    34    2
    15   112   114   ar
    16   112   111   ar
    17   114   115   ar
    18     8     7    2
    19   170   168    1
    20     7    12   am
    21    25    26    1
    22    25    24    1
    23    34    33    1
    24    23    22    2
    25    32    26   am
    26    32    33    1
    27   160   161    1
    28   160   157    1
    29   159   158    2
    30   168   167    1
    31    26    27    2
    32   111   110    1
    33   111   113   ar
    34    22    24   am
    35    22    21    1
    36   161   162    1
    37    33    36    1
    38    12    13    1
    39   115   113   ar
    40   110   107    1
    41    43    42    2
    42   158   157    1
    43   158   163   am
    44   157   156    1
    45   106   107    1
    46   169   167    1
    47    20    21    1
    48    20    14   am
    49   104   105   ar
    50   104   102   ar
    51   167   164    1
    52   105   103   ar
    53   109   108    2
    54   164   163    1
    55   164   165    1
    56    13    14    1
    57    13    16    1
    58   102   101   ar
    59   107   108    1
    60    14    15    2
    61    42    44   am
    62    42    41    1
    63    39    38    1
    64    39    40    2
    65   162   156    1
    66   103   101   ar
    67   101   100    1
    68    38    41    1
    69    38    37    1
    70   156   146   am
    71    94    93   ar
    72   100    97    1
    73   155   154    1
    74   171   165   am
    75   171   172    1
    76   182   180    1
    77    95    93   ar
    78   165   166    2
    79    16    17    1
    80    17    18    1
    81    17    19    1
    82    93    92    1
    83    86    85   ar
    84    86    84   ar
    85    99    98    2
    86   154   153   ar
    87   154   152   ar
    88   153   151   ar
    89   146   147    2
    90   146   145    1
    91   175   172    1
    92    97    98    1
    93    97    96    1
    94   174   173    2
    95    85    83   ar
    96   172   173    1
    97   152   150   ar
    98    84    82   ar
    99   151   149   ar
   100   173   176   am
   101   180   181    1
   102   180   177    1
   103    92    91    1
   104   150   149   ar
   105   145   148    1
   106   145   144    1
   107   149   148    1
   108    91    88    1
   109   176   177    1
   110    90    89    2
   111    83    82   ar
   112    88    89    1
   113    88    87    1
   114   177   178    1
   115    82    81    1
   116    75    74    1
   117    80    79    2
   118    87    79   am
   119   123   124    1
   120   123   122    1
   121    79    78    1
   122    51    49    1
   123    76    74    1
   124    81    78    1
   125   178   179    2
   126   178   183   am
   127    74    71    1
   128    73    72    2
   129    78    77    1
   130   122   121    1
   131   183   184    1
   132   140   139    2
   133   121   120    1
   134    71    72    1
   135    71    70    1
   136    52    50    1
   137    49    50    1
   138    49    46    1
   139   139   138    1
   140    45    46    1
   141   120   117    1
   142   187   184    1
   143   187   188    1
   144   128   127    2
   145    46    47    1
   146   184   185    1
   147    70    64   am
   148    65    64    2
   149    61    59   ar
   150   138   137    1
   151   138   141    1
   152   117   118    1
   153   117   116    1
   154    64    63    1
   155   127   137   am
   156   127   126    1
   157   185   189   am
   158   185   186    2
   159    60    59   ar
   160    56    55    2
   161   125   118   am
   162   125   126    1
   163    59    58    1
   164   189   190    1
   165    57    58    1
   166    57    54    1
   167    47    48    2
   168   143   141    1
   169   118   119    2
   170   142   141    1
   171   129   126    1
   172   129   130    1
   173    55    54    1
   174    66    63    1
   175    66    67    1
   176   190   191    1
   177    63    62    1
   178    54    53    1
   179   132   130   ar
   180   132   134   ar
   181    68    67    1
   182   201   199   ar
   183   201   202   ar
   184   130   131   ar
   185   210   208   am
   186    67    69    1
   187   206   205    2
   188   209   208    2
   189   199   198   ar
   190   208   207    1
   191   134   135   ar
   192   202   200   ar
   193   191   192    2
   194   207   204    1
   195   204   205    1
   196   204   203    1
   197   131   133   ar
   198   198   200   ar
   199   198   197    1
   200   135   133   ar
   201   135   136    1
   202   197   194    1
   203   193   194    1
   204   194   195    1
   205   196   195    2
