@<TRIPOS>MOLECULE
tmp/3e8sA00.pdb
 222 217 0 0 0
SMALL
GASTEIGER

@<TRIPOS>ATOM
      1  N         81.7080   19.1380    6.1850 N.3     3  GLU3       -0.1245
      2  CA        80.7750   19.6820    7.1820 C.3     3  GLU3        0.1567
      3  C         80.6740   21.2170    7.1540 C.2     3  GLU3        0.2260
      4  O         79.5820   21.8120    7.4220 O.2     3  GLU3       -0.2867
      5  CB        81.1040   19.1420    8.5830 C.3     3  GLU3        0.0388
      6  CG        80.9300   17.5900    8.6320 C.3     3  GLU3        0.1160
      7  CD        80.9750   16.9560   10.0380 C.2     3  GLU3        0.3649
      8  OE1       81.6730   17.4520   10.9520 O.co2   3  GLU3       -0.2457
      9  OE2       80.3070   15.9340   10.2230 O.co2   3  GLU3       -0.2457
     10  N         78.8400   22.0180    3.9840 N.3     6  LEU6       -0.1231
     11  CA        77.4170   21.7820    4.2140 C.3     6  LEU6        0.1693
     12  C         76.7410   23.0510    4.7240 C.2     6  LEU6        0.2591
     13  O         75.7720   23.5280    4.1160 O.2     6  LEU6       -0.2718
     14  CB        77.2250   20.6440    5.2310 C.3     6  LEU6        0.0284
     15  CG        75.8850   19.9170    5.3550 C.3     6  LEU6        0.0019
     16  CD1       75.9780   18.8430    6.4670 C.3     6  LEU6        0.0001
     17  CD2       74.7930   20.7600    5.5960 C.3     6  LEU6        0.0001
     18  N         77.2310   23.5870    5.8490 N.am    7  LEU7       -0.1980
     19  CA        76.6750   24.8160    6.4090 C.3     7  LEU7        0.1596
     20  C         76.7870   25.9830    5.4040 C.2     7  LEU7        0.2287
     21  O         75.8840   26.7950    5.2550 O.2     7  LEU7       -0.2864
     22  CB        77.3420   25.1680    7.7390 C.3     7  LEU7        0.0297
     23  CG        76.6860   26.3020    8.5410 C.3     7  LEU7        0.0022
     24  CD1       75.1680   26.1590    8.7250 C.3     7  LEU7        0.0001
     25  CD2       77.4010   26.4270    9.8810 C.3     7  LEU7        0.0001
     26  N         73.9800   26.0440    3.0080 N.3    10  TRP10      -0.1241
     27  CA        72.7830   26.6000    3.6160 C.3    10  TRP10       0.1605
     28  C         72.7920   28.1070    3.5950 C.2    10  TRP10       0.2264
     29  O         71.7410   28.7340    3.3680 O.2    10  TRP10      -0.2867
     30  CB        72.5400   26.0360    5.0310 C.3    10  TRP10       0.0550
     31  CG        71.9860   24.6660    4.9380 C.ar   10  TRP10       0.0003
     32  CD1       72.6260   23.4940    5.2060 C.ar   10  TRP10       0.0946
     33  CD2       70.6730   24.3080    4.4680 C.ar   10  TRP10       0.0152
     34  NE1       71.7960   22.4300    4.9530 N.ar   10  TRP10      -0.2442
     35  CE2       70.5920   22.8950    4.4920 C.ar   10  TRP10       0.0810
     36  CE3       69.5600   25.0450    4.0490 C.ar   10  TRP10       0.0012
     37  CZ2       69.4460   22.1920    4.0730 C.ar   10  TRP10       0.0191
     38  CZ3       68.4210   24.3540    3.6330 C.ar   10  TRP10       0.0001
     39  CH2       68.3820   22.9430    3.6150 C.ar   10  TRP10       0.0015
     40  N         65.2830   28.2210    0.1830 N.3    17  TRP17      -0.1241
     41  CA        64.6860   27.3470    1.1690 C.3    17  TRP17       0.1605
     42  C         63.4200   27.9750    1.7970 C.2    17  TRP17       0.2264
     43  O         62.3740   27.3230    1.8760 O.2    17  TRP17      -0.2867
     44  CB        65.7180   26.9660    2.2350 C.3    17  TRP17       0.0550
     45  CG        65.1230   26.0910    3.2690 C.ar   17  TRP17       0.0003
     46  CD1       64.7170   26.4690    4.5100 C.ar   17  TRP17       0.0946
     47  CD2       64.7770   24.7070    3.1350 C.ar   17  TRP17       0.0152
     48  NE1       64.1640   25.4130    5.1690 N.ar   17  TRP17      -0.2442
     49  CE2       64.1880   24.3120    4.3540 C.ar   17  TRP17       0.0810
     50  CE3       64.9270   23.7550    2.1110 C.ar   17  TRP17       0.0012
     51  CZ2       63.7350   23.0150    4.5790 C.ar   17  TRP17       0.0191
     52  CZ3       64.4830   22.4630    2.3290 C.ar   17  TRP17       0.0001
     53  CH2       63.8950   22.0960    3.5620 C.ar   17  TRP17       0.0015
     54  N         59.7860   26.1340    1.3570 N.3    21  VAL21      -0.1245
     55  CA        59.0720   25.6670    2.5190 C.3    21  VAL21       0.1561
     56  C         57.7650   26.4200    2.7670 C.2    21  VAL21       0.2260
     57  O         56.7590   25.7910    3.0530 O.2    21  VAL21      -0.2867
     58  CB        59.9430   25.7990    3.8240 C.3    21  VAL21       0.0252
     59  CG1       59.0820   25.7200    5.0880 C.3    21  VAL21       0.0019
     60  CG2       60.9960   24.7260    3.8530 C.3    21  VAL21       0.0019
     61  N         56.3950   17.1180    2.2930 N.3    29  ARG29      -0.1245
     62  CA        56.1620   17.8440    3.5380 C.3    29  ARG29       0.1563
     63  C         54.7030   18.0570    3.7760 C.2    29  ARG29       0.2260
     64  O         54.1680   17.6830    4.8230 O.2    29  ARG29      -0.2867
     65  CB        56.9220   19.1750    3.5440 C.3    29  ARG29       0.0307
     66  CG        58.3960   18.9500    3.7820 C.3    29  ARG29       0.0489
     67  CD        59.1380   20.2120    3.9390 C.3    29  ARG29       0.2205
     68  NE        60.4560   19.9510    4.4870 N.pl3  29  ARG29      -0.0865
     69  CZ        60.9690   20.5350    5.5620 C.cat  29  ARG29       0.5346
     70  NH1       60.3140   21.5170    6.1740 N.pl3  29  ARG29       0.1354
     71  NH2       62.1790   20.1630    5.9900 N.pl3  29  ARG29       0.1354
     72  N         63.8040   23.1330   18.9890 N.3    51  ASP51      -0.1239
     73  CA        63.8070   22.7400   17.5740 C.3    51  ASP51       0.1674
     74  C         65.2290   23.0100   17.0610 C.2    51  ASP51       0.2266
     75  O         65.6480   24.1520   16.8400 O.2    51  ASP51      -0.2867
     76  CB        62.7800   23.6010   16.8520 C.3    51  ASP51       0.1410
     77  CG        62.5210   23.1920   15.3710 C.2    51  ASP51       0.3668
     78  OD1       62.9440   22.1130   14.9290 O.co2  51  ASP51      -0.2456
     79  OD2       61.7790   23.9640   14.7110 O.co2  51  ASP51      -0.2456
     80  N         68.1180   23.0430   14.4950 N.3    53  GLY53      -0.1210
     81  CA        68.1920   23.2610   13.0510 C.3    53  GLY53       0.1956
     82  C         66.8070   23.6370   12.5810 C.2    53  GLY53       0.2612
     83  O         66.2810   23.0720   11.6090 O.2    53  GLY53      -0.2717
     84  N         66.2130   24.6160   13.2840 N.am   54  CYS54      -0.1956
     85  CA        64.8380   25.0350   13.0470 C.3    54  CYS54       0.1843
     86  C         64.5300   25.6720   11.7060 C.2    54  CYS54       0.2626
     87  O         63.3500   25.8270   11.3910 O.2    54  CYS54      -0.2714
     88  CB        64.3490   25.9960   14.1360 C.3    54  CYS54       0.0997
     89  SG        65.2140   27.5840   14.1670 S.3    54  CYS54      -0.0797
     90  N         65.5580   26.0670   10.9550 N.am   55  GLY55      -0.1940
     91  CA        65.3480   26.7190    9.6950 C.3    55  GLY55       0.2014
     92  C         64.5330   27.9890    9.8450 C.2    55  GLY55       0.2638
     93  O         64.7050   28.7310   10.8010 O.2    55  GLY55      -0.2714
     94  N         63.6210   28.2100    8.9020 N.am   56  GLU56      -0.1977
     95  CA        62.7460   29.3860    8.9260 C.3    56  GLU56       0.1602
     96  C         61.5660   29.3220    9.9330 C.2    56  GLU56       0.2287
     97  O         60.7540   30.2280    9.9800 O.2    56  GLU56      -0.2864
     98  CB        62.2990   29.7640    7.5010 C.3    56  GLU56       0.0415
     99  CG        61.5270   28.7060    6.7500 C.3    56  GLU56       0.1163
    100  CD        60.3160   28.2550    7.4780 C.2    56  GLU56       0.3649
    101  OE1       59.3380   29.0200    7.4870 O.co2  56  GLU56      -0.2457
    102  OE2       60.3270   27.1180    8.0260 O.co2  56  GLU56      -0.2457
    103  N         58.8610   26.9890   10.6520 N.3    58  TRP58      -0.1227
    104  CA        57.4980   26.4820   10.4520 C.3    58  TRP58       0.1737
    105  C         57.0440   25.6130   11.6550 C.2    58  TRP58       0.2595
    106  O         55.8870   25.6850   12.0810 O.2    58  TRP58      -0.2718
    107  CB        57.3510   25.6700    9.1370 C.3    58  TRP58       0.0564
    108  CG        57.8810   24.2460    9.2710 C.ar   58  TRP58       0.0003
    109  CD1       59.1480   23.8260    9.0460 C.ar   58  TRP58       0.0946
    110  CD2       57.1430   23.0830    9.7090 C.ar   58  TRP58       0.0152
    111  NE1       59.2600   22.4990    9.3430 N.ar   58  TRP58      -0.2442
    112  CE2       58.0510   22.0160    9.7510 C.ar   58  TRP58       0.0810
    113  CE3       55.8050   22.8560   10.0920 C.ar   58  TRP58       0.0012
    114  CZ2       57.6810   20.7320   10.1470 C.ar   58  TRP58       0.0191
    115  CZ3       55.4430   21.5980   10.5070 C.ar   58  TRP58       0.0001
    116  CH2       56.3740   20.5450   10.5180 C.ar   58  TRP58       0.0015
    117  N         57.9550   24.8230   12.2020 N.am   59  LEU59      -0.1980
    118  CA        57.6130   23.9480   13.3260 C.3    59  LEU59       0.1596
    119  C         57.4400   24.7110   14.6540 C.2    59  LEU59       0.2287
    120  O         56.5320   24.4150   15.4430 O.2    59  LEU59      -0.2864
    121  CB        58.6060   22.7870   13.4170 C.3    59  LEU59       0.0297
    122  CG        58.2780   21.6270   14.4020 C.3    59  LEU59       0.0022
    123  CD1       56.8510   21.0370   14.2210 C.3    59  LEU59       0.0001
    124  CD2       59.3520   20.5180   14.3350 C.3    59  LEU59       0.0001
    125  N         69.4500   27.6100   15.0650 N.3    74  ASP74      -0.1225
    126  CA        69.9190   27.3350   13.7090 C.3    74  ASP74       0.1805
    127  C         71.2300   28.0660   13.4530 C.2    74  ASP74       0.2598
    128  O         71.5170   29.0890   14.0490 O.2    74  ASP74      -0.2718
    129  CB        68.8680   27.7530   12.6930 C.3    74  ASP74       0.1424
    130  CG        69.0430   27.0440   11.3360 C.2    74  ASP74       0.3668
    131  OD1       69.8010   27.5500   10.4910 O.co2  74  ASP74      -0.2456
    132  OD2       68.4130   25.9640   11.1380 O.co2  74  ASP74      -0.2456
    133  N         72.0140   27.5340   12.5200 N.am   75  GLY75      -0.1942
    134  CA        73.3010   28.0810   12.1980 C.3    75  GLY75       0.2014
    135  C         73.3230   29.0900   11.0650 C.2    75  GLY75       0.2638
    136  O         74.3720   29.6380   10.7650 O.2    75  GLY75      -0.2714
    137  N         72.1760   29.3600   10.4470 N.am   76  ASP76      -0.1971
    138  CA        72.1400   30.3220    9.3560 C.3    76  ASP76       0.1709
    139  C         71.3510   31.5570    9.7260 C.2    76  ASP76       0.2293
    140  O         70.1910   31.4590   10.1340 O.2    76  ASP76      -0.2864
    141  CB        71.5030   29.7150    8.1180 C.3    76  ASP76       0.1436
    142  CG        71.4790   30.6970    6.9850 C.2    76  ASP76       0.3671
    143  OD1       72.5510   30.9230    6.3750 O.co2  76  ASP76      -0.2456
    144  OD2       70.4180   31.2860    6.7600 O.co2  76  ASP76      -0.2456
    145  N         67.9150   32.3450    7.8190 N.3    79  LEU79      -0.1245
    146  CA        66.8200   31.4960    8.3370 C.3    79  LEU79       0.1561
    147  C         66.3790   31.9230    9.7430 C.2    79  LEU79       0.2260
    148  O         65.1910   32.0400   10.0190 O.2    79  LEU79      -0.2867
    149  CB        67.2340   30.0130    8.2740 C.3    79  LEU79       0.0270
    150  CG        67.4350   29.4780    6.8430 C.3    79  LEU79       0.0019
    151  CD1       67.8260   28.0070    6.8930 C.3    79  LEU79       0.0001
    152  CD2       66.2410   29.6960    5.9320 C.3    79  LEU79       0.0001
    153  N         73.3430   29.6260   16.3750 N.3    94  ALA94      -0.1231
    154  CA        74.4340   28.7430   16.8520 C.3    94  ALA94       0.1694
    155  C         74.7370   27.6810   15.8240 C.2    94  ALA94       0.2593
    156  O         73.8300   27.1760   15.1720 O.2    94  ALA94      -0.2718
    157  CB        74.0760   28.0440   18.1810 C.3    94  ALA94       0.0304
    158  N         76.0170   27.3400   15.6590 N.am   95  SER95      -0.1938
    159  CA        76.3610   26.2130   14.8010 C.3    95  SER95       0.2055
    160  C         76.2820   24.9650   15.6430 C.2    95  SER95       0.2643
    161  O         76.3600   25.0290   16.8590 O.2    95  SER95      -0.2714
    162  CB        77.7740   26.3360   14.2270 C.3    95  SER95       0.2130
    163  OG        78.7360   26.2850   15.2590 O.3    95  SER95      -0.2179
    164  N         76.1310   23.8280   14.9850 N.am   96  TYR96      -0.1959
    165  CA        76.1700   22.5260   15.6430 C.3    96  TYR96       0.1771
    166  C         77.5040   22.2850   16.3240 C.2    96  TYR96       0.2619
    167  O         77.5320   21.6870   17.3890 O.2    96  TYR96      -0.2715
    168  CB        75.9020   21.3690   14.6810 C.3    96  TYR96       0.0574
    169  CG        74.5350   21.3350   14.0690 C.ar   96  TYR96      -0.0198
    170  CD1       73.4390   21.9240   14.6930 C.ar   96  TYR96      -0.0009
    171  CD2       74.3010   20.6100   12.9090 C.ar   96  TYR96      -0.0009
    172  CE1       72.1650   21.8590   14.1300 C.ar   96  TYR96       0.0417
    173  CE2       73.0330   20.5280   12.3430 C.ar   96  TYR96       0.0417
    174  CZ        71.9590   21.1640   12.9690 C.ar   96  TYR96       0.1957
    175  OH        70.7050   21.1130   12.4360 O.3    96  TYR96      -0.2866
    176  N         78.5960   22.7590   15.7270 N.am   97  ALA97      -0.1977
    177  CA        79.9270   22.6230   16.3460 C.3    97  ALA97       0.1597
    178  C         79.9550   23.3900   17.6930 C.2    97  ALA97       0.2287
    179  O         80.5090   22.9090   18.7010 O.2    97  ALA97      -0.2864
    180  CB        81.0420   23.1330   15.3870 C.3    97  ALA97       0.0319
    181  N         64.2040   18.0430   12.5850 N.3   116  ASN116     -0.1225
    182  CA        63.4560   17.7230   11.3720 C.3   116  ASN116      0.1785
    183  C         64.2970   17.9580   10.1250 C.2   116  ASN116      0.2597
    184  O         64.4700   19.1070    9.6780 O.2   116  ASN116     -0.2718
    185  CB        62.1550   18.5450   11.2930 C.3   116  ASN116      0.1169
    186  CG        61.1450   17.9510   10.3260 C.2   116  ASN116      0.2627
    187  OD1       60.7820   16.7830   10.4680 O.2   116  ASN116     -0.2716
    188  ND2       60.6400   18.7550    9.3710 N.am  116  ASN116     -0.0877
    189  N         64.8160   16.8640    9.5650 N.am  117  PHE117     -0.1962
    190  CA        65.6800   16.8890    8.3770 C.3   117  PHE117      0.1771
    191  C         66.8330   17.8580    8.5830 C.2   117  PHE117      0.2619
    192  O         67.2680   18.5130    7.6560 O.2   117  PHE117     -0.2715
    193  CB        64.8780   17.2410    7.1140 C.3   117  PHE117      0.0574
    194  CG        63.7510   16.3160    6.8720 C.ar  117  PHE117     -0.0200
    195  CD1       63.9920   15.0700    6.3560 C.ar  117  PHE117     -0.0042
    196  CD2       62.4570   16.6630    7.2130 C.ar  117  PHE117     -0.0042
    197  CE1       62.9550   14.1740    6.1350 C.ar  117  PHE117     -0.0003
    198  CE2       61.4010   15.7580    7.0090 C.ar  117  PHE117     -0.0003
    199  CZ        61.6620   14.5190    6.4620 C.ar  117  PHE117     -0.0000
    200  N         67.3680   17.8720    9.8070 N.am  118  ALA118     -0.1977
    201  CA        68.3740   18.8350   10.2110 C.3   118  ALA118      0.1597
    202  C         69.7490   18.2570   10.5320 C.2   118  ALA118      0.2287
    203  O         70.6910   19.0250   10.7410 O.2   118  ALA118     -0.2864
    204  CB        67.8340   19.6080   11.4200 C.3   118  ALA118      0.0319
    205  N         72.4430   16.2730    8.8780 N.3   120  LEU120     -0.1231
    206  CA        72.9230   15.8480    7.5700 C.3   120  LEU120      0.1693
    207  C         74.4330   15.7280    7.5030 C.2   120  LEU120      0.2592
    208  O         74.9750   15.4750    6.4400 O.2   120  LEU120     -0.2718
    209  CB        72.4920   16.9430    6.5780 C.3   120  LEU120      0.0284
    210  CG        70.9640   17.1250    6.4390 C.3   120  LEU120      0.0019
    211  CD1       70.5750   18.6030    6.0050 C.3   120  LEU120      0.0001
    212  CD2       70.4770   15.9630    5.4990 C.3   120  LEU120      0.0001
    213  N         75.0890   15.8450    8.6520 N.am  121  HIS121     -0.1976
    214  CA        76.5230   15.8020    8.7290 C.3   121  HIS121      0.1656
    215  C         77.0120   14.4270    9.2130 C.2   121  HIS121      0.2291
    216  O         76.2360   13.5580    9.5280 O.2   121  HIS121     -0.2864
    217  CB        77.0910   17.0170    9.4990 C.3   121  HIS121      0.0771
    218  CG        76.6510   17.1410   10.9280 C.ar  121  HIS121      0.0820
    219  ND1       75.3320   17.2870   11.2980 N.ar  121  HIS121     -0.2267
    220  CD2       77.3770   17.2540   12.0730 C.ar  121  HIS121      0.1154
    221  CE1       75.2630   17.4090   12.6180 C.ar  121  HIS121      0.1986
    222  NE2       76.4890   17.4200   13.1070 N.ar  121  HIS121     -0.2212
@<TRIPOS>BOND
     1    40    41    1
     2    41    42    1
     3    41    44    1
     4    54    55    1
     5    42    43    2
     6    50    52   ar
     7    50    47   ar
     8    44    45    1
     9    61    62    1
    10    52    53   ar
    11    55    56    1
    12    55    58    1
    13    56    57    2
    14    26    27    1
    15    47    45   ar
    16    47    49   ar
    17    45    46   ar
    18    29    28    2
    19    62    65    1
    20    62    63    1
    21    65    66    1
    22    53    51   ar
    23    28    27    1
    24    39    38   ar
    25    39    37   ar
    26    27    30    1
    27    38    36   ar
    28    63    64    2
    29    66    67    1
    30    58    60    1
    31    58    59    1
    32    67    68    1
    33    10    11    1
    34    36    33   ar
    35    37    35   ar
    36    13    12    2
    37    11    12    1
    38    11    14    1
    39    49    51   ar
    40    49    48   ar
    41    33    35   ar
    42    33    31   ar
    43    68    69    2
    44    35    34   ar
    45    46    48   ar
    46    12    18   am
    47    31    30    1
    48    31    32   ar
    49    34    32   ar
    50    14    15    1
    51    21    20    2
    52    15    17    1
    53    15    16    1
    54    20    19    1
    55   212   210    1
    56    69    71    1
    57    69    70    1
    58    18    19    1
    59   152   150    1
    60   211   210    1
    61   197   195   ar
    62   197   199   ar
    63     1     2    1
    64   195   194   ar
    65   143   142   ar
    66    19    22    1
    67   210   209    1
    68   208   207    2
    69   199   198   ar
    70   209   206    1
    71    99   100    1
    72    99    98    1
    73   144   142   ar
    74   150   151    1
    75   150   149    1
    76   194   193    1
    77   194   196   ar
    78   142   141    1
    79   198   196   ar
    80   193   190    1
    81     3     2    1
    82     3     4    2
    83     2     5    1
    84   100   101   ar
    85   100   102   ar
    86    98    95    1
    87   207   206    1
    88   207   213   am
    89   206   205    1
    90   192   191    2
    91    22    23    1
    92   145   146    1
    93   141   138    1
    94   149   146    1
    95   146   147    1
    96   190   191    1
    97   190   189    1
    98    23    24    1
    99    23    25    1
   100   191   200   am
   101     5     6    1
   102     6     7    1
   103   213   214    1
   104   214   215    1
   105   214   217    1
   106    94    95    1
   107    94    92   am
   108    95    96    1
   109   109   108   ar
   110   109   111   ar
   111   107   108    1
   112   107   104    1
   113   215   216    2
   114   108   110   ar
   115   111   112   ar
   116   138   139    1
   117   138   137    1
   118   188   186   am
   119   217   218    1
   120   189   183   am
   121   184   183    2
   122    91    92    1
   123    91    90    1
   124   110   112   ar
   125   110   113   ar
   126   139   140    2
   127   147   148    2
   128   112   114   ar
   129   200   201    1
   130    92    93    2
   131    96    97    2
   132     7     9   ar
   133     7     8   ar
   134   113   115   ar
   135   183   182    1
   136   114   116   ar
   137   201   202    1
   138   201   204    1
   139   186   187    2
   140   186   185    1
   141   137   135   am
   142   104   103    1
   143   104   105    1
   144   131   130   ar
   145   115   116   ar
   146   202   203    2
   147   136   135    2
   148   218   219   ar
   149   218   220   ar
   150    90    86   am
   151   135   134    1
   152   132   130   ar
   153   185   182    1
   154   219   221   ar
   155   130   129    1
   156   182   181    1
   157    87    86    2
   158    83    82    2
   159   105   106    2
   160   105   117   am
   161    86    85    1
   162   220   222   ar
   163   134   133    1
   164   117   118    1
   165   173   171   ar
   166   173   174   ar
   167   175   174    1
   168   133   127   am
   169    82    81    1
   170    82    84   am
   171   221   222   ar
   172   129   126    1
   173   171   169   ar
   174   174   172   ar
   175    85    84    1
   176    85    88    1
   177    81    80    1
   178   118   121    1
   179   118   119    1
   180   121   122    1
   181   127   126    1
   182   127   128    2
   183   126   125    1
   184   169   168    1
   185   169   170   ar
   186   172   170   ar
   187    88    89    1
   188   123   122    1
   189   162   159    1
   190   162   163    1
   191   124   122    1
   192   119   120    2
   193   168   165    1
   194    79    77   ar
   195   159   160    1
   196   159   158    1
   197    78    77   ar
   198   164   165    1
   199   164   160   am
   200   156   155    2
   201    77    76    1
   202   180   177    1
   203   165   166    1
   204   160   161    2
   205   158   155   am
   206   176   166   am
   207   176   177    1
   208   155   154    1
   209   166   167    2
   210   177   178    1
   211   153   154    1
   212    75    74    2
   213    76    73    1
   214   154   157    1
   215    74    73    1
   216    73    72    1
   217   178   179    2
