@<TRIPOS>MOLECULE
tmp/3e8uA00.pdb
 152 154 0 0 0
SMALL
GASTEIGER

@<TRIPOS>ATOM
      1  N         19.2290   22.9900   47.8050 N.3    30  THR30      -0.1203
      2  CA        20.3110   23.1040   48.8030 C.3    30  THR30       0.1994
      3  C         21.3310   24.2210   48.5480 C.2    30  THR30       0.2618
      4  O         22.3700   24.2860   49.2310 O.2    30  THR30      -0.2717
      5  CB        21.0730   21.7660   48.9770 C.3    30  THR30       0.1784
      6  OG1       21.6230   21.3460   47.7160 O.3    30  THR30      -0.2211
      7  CG2       20.1400   20.6950   49.5500 C.3    30  THR30       0.0376
      8  N         21.0410   25.0980   47.5850 N.am   31  HIS31      -0.1961
      9  CA        21.9570   26.1800   47.2230 C.3    31  HIS31       0.1787
     10  C         21.4850   27.5440   47.7250 C.2    31  HIS31       0.2620
     11  O         22.2290   28.5320   47.6760 O.2    31  HIS31      -0.2715
     12  CB        22.2050   26.1790   45.7130 C.3    31  HIS31       0.0785
     13  CG        23.0810   25.0510   45.2430 C.ar   31  HIS31       0.0821
     14  ND1       23.5290   24.9480   43.9410 N.ar   31  HIS31      -0.2267
     15  CD2       23.6130   23.9940   45.9060 C.ar   31  HIS31       0.1154
     16  CE1       24.2800   23.8660   43.8170 C.ar   31  HIS31       0.1986
     17  NE2       24.3430   23.2660   44.9930 N.ar   31  HIS31      -0.2212
     18  N         20.2570   27.5790   48.2430 N.am   32  TYR32      -0.1960
     19  CA        19.6530   28.8180   48.7310 C.3    32  TYR32       0.1771
     20  C         19.0610   28.6600   50.1250 C.2    32  TYR32       0.2620
     21  O         18.4030   27.6660   50.4070 O.2    32  TYR32      -0.2715
     22  CB        18.5690   29.2780   47.7510 C.3    32  TYR32       0.0574
     23  CG        19.1240   29.7970   46.4380 C.ar   32  TYR32      -0.0198
     24  CD1       19.4240   28.9290   45.3810 C.ar   32  TYR32      -0.0009
     25  CD2       19.3480   31.1480   46.2560 C.ar   32  TYR32      -0.0009
     26  CE1       19.9430   29.4130   44.1720 C.ar   32  TYR32       0.0417
     27  CE2       19.8560   31.6420   45.0650 C.ar   32  TYR32       0.0417
     28  CZ        20.1480   30.7740   44.0270 C.ar   32  TYR32       0.1957
     29  OH        20.6420   31.2960   42.8520 O.3    32  TYR32      -0.2866
     30  N         19.2880   29.6450   50.9890 N.am   33  GLY33      -0.1954
     31  CA        18.7100   29.6220   52.3300 C.3    33  GLY33       0.1869
     32  C         17.1990   29.8360   52.2860 C.2    33  GLY33       0.2309
     33  O         16.6650   30.4000   51.3140 O.2    33  GLY33      -0.2863
     34  N         14.2170   31.5620   54.6260 N.3    35  ASN35      -0.1240
     35  CA        13.8680   32.4230   55.7590 C.3    35  ASN35       0.1653
     36  C         12.4240   32.1700   56.1440 C.2    35  ASN35       0.2266
     37  O         11.6350   31.7600   55.3060 O.2    35  ASN35      -0.2867
     38  CB        14.0560   33.9020   55.4120 C.3    35  ASN35       0.1155
     39  CG        15.4930   34.2430   55.0700 C.2    35  ASN35       0.2627
     40  OD1       16.2180   34.8510   55.8780 O.2    35  ASN35      -0.2716
     41  ND2       15.9240   33.8480   53.8740 N.am   35  ASN35      -0.0877
     42  N         10.3600   38.8050   60.9500 N.3    47  TRP47      -0.1241
     43  CA        11.3420   37.8070   60.5120 C.3    47  TRP47       0.1605
     44  C         11.6560   36.8450   61.6680 C.2    47  TRP47       0.2264
     45  O         12.0320   37.2760   62.7610 O.2    47  TRP47      -0.2867
     46  CB        12.5970   38.5210   59.9950 C.3    47  TRP47       0.0550
     47  CG        13.6600   37.6150   59.4420 C.ar   47  TRP47       0.0003
     48  CD1       13.6870   37.0230   58.1970 C.ar   47  TRP47       0.0946
     49  CD2       14.8690   37.2240   60.1000 C.ar   47  TRP47       0.0152
     50  NE1       14.8500   36.2840   58.0510 N.ar   47  TRP47      -0.2442
     51  CE2       15.5860   36.3880   59.2040 C.ar   47  TRP47       0.0810
     52  CE3       15.4190   37.4950   61.3650 C.ar   47  TRP47       0.0012
     53  CZ2       16.8260   35.8150   59.5380 C.ar   47  TRP47       0.0191
     54  CZ3       16.6530   36.9300   61.6970 C.ar   47  TRP47       0.0001
     55  CH2       17.3440   36.0980   60.7800 C.ar   47  TRP47       0.0015
     56  N         16.2840   31.8820   59.8370 N.3    50  TRP50      -0.1241
     57  CA        16.5660   31.2070   58.5790 C.3    50  TRP50       0.1605
     58  C         17.3120   29.8880   58.7780 C.2    50  TRP50       0.2264
     59  O         17.9040   29.6400   59.8210 O.2    50  TRP50      -0.2867
     60  CB        17.3340   32.1390   57.6250 C.3    50  TRP50       0.0550
     61  CG        18.7940   32.3660   57.9950 C.ar   50  TRP50       0.0003
     62  CD1       19.2760   33.1190   59.0310 C.ar   50  TRP50       0.0946
     63  CD2       19.9440   31.8580   57.2990 C.ar   50  TRP50       0.0152
     64  NE1       20.6480   33.1160   59.0220 N.ar   50  TRP50      -0.2442
     65  CE2       21.0880   32.3400   57.9790 C.ar   50  TRP50       0.0810
     66  CE3       20.1160   31.0280   56.1780 C.ar   50  TRP50       0.0012
     67  CZ2       22.3970   32.0150   57.5770 C.ar   50  TRP50       0.0191
     68  CZ3       21.4100   30.7040   55.7740 C.ar   50  TRP50       0.0001
     69  CH2       22.5390   31.2000   56.4750 C.ar   50  TRP50       0.0015
     70  N         20.1680   27.3310   56.8240 N.3    52  ASN52      -0.1225
     71  CA        21.1210   27.0390   55.7670 C.3    52  ASN52       0.1785
     72  C         20.7440   25.6720   55.2080 C.2    52  ASN52       0.2598
     73  O         20.7140   24.6820   55.9420 O.2    52  ASN52      -0.2718
     74  CB        22.5470   27.0450   56.3400 C.3    52  ASN52       0.1169
     75  CG        23.6110   26.8310   55.2830 C.2    52  ASN52       0.2627
     76  OD1       23.5500   25.8920   54.5000 O.2    52  ASN52      -0.2716
     77  ND2       24.5890   27.7040   55.2600 N.am   52  ASN52      -0.0877
     78  N         20.4170   25.6200   53.9230 N.am   53  THR53      -0.1939
     79  CA        19.9250   24.3790   53.3300 C.3    53  THR53       0.2028
     80  C         21.0400   23.3910   52.9580 C.2    53  THR53       0.2642
     81  O         20.7660   22.2420   52.6300 O.2    53  THR53      -0.2714
     82  CB        19.0160   24.6400   52.1140 C.3    53  THR53       0.1808
     83  OG1       19.7250   25.4260   51.1520 O.3    53  THR53      -0.2208
     84  CG2       17.7150   25.3670   52.5480 C.3    53  THR53       0.0379
     85  N         22.2840   23.8530   53.0070 N.am   54  HIS54      -0.1973
     86  CA        23.4430   23.0090   52.7270 C.3    54  HIS54       0.1656
     87  C         23.9720   22.3680   54.0250 C.2    54  HIS54       0.2291
     88  O         24.2740   21.1760   54.0570 O.2    54  HIS54      -0.2864
     89  CB        24.5310   23.8150   52.0030 C.3    54  HIS54       0.0771
     90  CG        25.8610   23.1260   51.9350 C.ar   54  HIS54       0.0820
     91  ND1       26.1140   22.0670   51.0880 N.ar   54  HIS54      -0.2267
     92  CD2       27.0130   23.3450   52.6130 C.ar   54  HIS54       0.1154
     93  CE1       27.3610   21.6620   51.2520 C.ar   54  HIS54       0.1986
     94  NE2       27.9270   22.4210   52.1730 N.ar   54  HIS54      -0.2212
     95  N         19.1690   29.5280   62.3920 N.3    59  ILE59      -0.1245
     96  CA        19.3870   30.6910   63.2340 C.3    59  ILE59       0.1561
     97  C         17.9920   31.2620   63.5310 C.2    59  ILE59       0.2260
     98  O         17.2370   31.5350   62.6080 O.2    59  ILE59      -0.2867
     99  CB        20.2390   31.7660   62.4960 C.3    59  ILE59       0.0252
    100  CG1       21.6660   31.2460   62.1910 C.3    59  ILE59       0.0019
    101  CG2       20.2410   33.1150   63.2540 C.3    59  ILE59       0.0019
    102  CD1       22.5830   31.0670   63.4150 C.3    59  ILE59       0.0001
    103  N         16.3960   33.2190   50.3230 N.3    99  SER99      -0.1202
    104  CA        17.4590   34.2160   50.4370 C.3    99  SER99       0.2020
    105  C         17.9310   34.7300   49.1090 C.2    99  SER99       0.2619
    106  O         18.1630   33.9630   48.1710 O.2    99  SER99      -0.2717
    107  CB        18.6710   33.6660   51.1950 C.3    99  SER99       0.2103
    108  OG        18.3500   33.4820   52.5520 O.3    99  SER99      -0.2182
    109  N         18.0720   36.0530   49.0710 N.am  100  HIS100     -0.1961
    110  CA        18.6800   36.8090   47.9940 C.3   100  HIS100      0.1787
    111  C         19.8230   37.5790   48.6800 C.2   100  HIS100      0.2620
    112  O         19.7720   37.8030   49.8920 O.2   100  HIS100     -0.2715
    113  CB        17.6050   37.7390   47.3930 C.3   100  HIS100      0.0785
    114  CG        18.1320   38.8340   46.5110 C.ar  100  HIS100      0.0821
    115  ND1       18.1540   38.7400   45.1360 N.ar  100  HIS100     -0.2267
    116  CD2       18.6030   40.0690   46.8070 C.ar  100  HIS100      0.1154
    117  CE1       18.6370   39.8600   44.6250 C.ar  100  HIS100      0.1986
    118  NE2       18.9260   40.6790   45.6200 N.ar  100  HIS100     -0.2212
    119  N         20.8640   37.9380   47.9300 N.am  101  ARG101     -0.1963
    120  CA        22.0160   38.6880   48.4680 C.3   101  ARG101      0.1729
    121  C         21.6120   39.8540   49.3830 C.2   101  ARG101      0.2616
    122  O         22.1890   40.0300   50.4680 O.2   101  ARG101     -0.2715
    123  CB        22.9200   39.1630   47.3190 C.3   101  ARG101      0.0348
    124  CG        23.8980   40.2830   47.6740 C.3   101  ARG101      0.0492
    125  CD        25.0600   40.3920   46.6890 C.3   101  ARG101      0.2205
    126  NE        26.1600   41.1890   47.2610 N.pl3 101  ARG101     -0.0865
    127  CZ        26.7370   42.2330   46.6640 C.cat 101  ARG101      0.5346
    128  NH1       26.3460   42.6150   45.4450 N.pl3 101  ARG101      0.1354
    129  NH2       27.7140   42.8880   47.2900 N.pl3 101  ARG101      0.1354
    130  N         20.6180   40.6340   48.9540 N.am  102  PHE102     -0.1960
    131  CA        20.0760   41.7480   49.7550 C.3   102  PHE102      0.1771
    132  C         18.7070   41.4510   50.3830 C.2   102  PHE102      0.2620
    133  O         18.4440   41.8110   51.5390 O.2   102  PHE102     -0.2715
    134  CB        19.9980   43.0320   48.9170 C.3   102  PHE102      0.0574
    135  CG        21.3420   43.6330   48.6220 C.ar  102  PHE102     -0.0200
    136  CD1       22.0180   43.3280   47.4380 C.ar  102  PHE102     -0.0042
    137  CD2       21.9530   44.4830   49.5440 C.ar  102  PHE102     -0.0042
    138  CE1       23.2870   43.8790   47.1680 C.ar  102  PHE102     -0.0003
    139  CE2       23.2180   45.0320   49.2850 C.ar  102  PHE102     -0.0003
    140  CZ        23.8860   44.7230   48.0920 C.ar  102  PHE102     -0.0000
    141  N         17.8550   40.7780   49.6230 N.am  103  GLY103     -0.1940
    142  CA        16.4500   40.6700   49.9760 C.3   103  GLY103      0.2014
    143  C         15.9440   39.2650   50.1460 C.2   103  GLY103      0.2638
    144  O         16.6920   38.3360   50.4460 O.2   103  GLY103     -0.2714
    145  N         14.6390   39.1310   49.9620 N.am  104  LEU104     -0.1977
    146  CA        13.9720   37.8540   50.0380 C.3   104  LEU104      0.1596
    147  C         13.1410   37.7970   48.7730 C.2   104  LEU104      0.2287
    148  O         12.1710   38.5380   48.6300 O.2   104  LEU104     -0.2864
    149  CB        13.1090   37.7940   51.3070 C.3   104  LEU104      0.0297
    150  CG        13.7880   38.1590   52.6380 C.3   104  LEU104      0.0022
    151  CD1       12.7620   38.4700   53.7600 C.3   104  LEU104      0.0001
    152  CD2       14.7800   37.0820   53.0760 C.3   104  LEU104      0.0001
@<TRIPOS>BOND
     1    29    28    1
     2    16    14   ar
     3    16    17   ar
     4    14    13   ar
     5    28    26   ar
     6    28    27   ar
     7    26    24   ar
     8   117   115   ar
     9   117   118   ar
    10    17    15   ar
    11    27    25   ar
    12   115   114   ar
    13    13    12    1
    14    13    15   ar
    15    24    23   ar
    16   128   127    1
    17   118   116   ar
    18    12     9    1
    19    25    23   ar
    20    23    22    1
    21   114   116   ar
    22   114   113    1
    23   127   126    2
    24   127   129    1
    25   125   126    1
    26   125   124    1
    27   138   136   ar
    28   138   140   ar
    29     9     8    1
    30     9    10    1
    31   123   124    1
    32   123   120    1
    33   113   110    1
    34   136   135   ar
    35     8     3   am
    36    11    10    2
    37     6     5    1
    38    10    18   am
    39    22    19    1
    40     1     2    1
    41   119   120    1
    42   119   111   am
    43   110   111    1
    44   110   109    1
    45   140   139   ar
    46   106   105    2
    47    18    19    1
    48   120   121    1
    49     3     2    1
    50     3     4    2
    51   135   134    1
    52   135   137   ar
    53   148   147    2
    54   111   112    2
    55    19    20    1
    56   147   146    1
    57     2     5    1
    58   134   131    1
    59   130   121   am
    60   130   131    1
    61     5     7    1
    62   109   105   am
    63   105   104    1
    64   139   137   ar
    65   121   122    2
    66   141   142    1
    67   141   132   am
    68   131   132    1
    69   145   146    1
    70   145   143   am
    71   142   143    1
    72   146   149    1
    73    20    21    2
    74    20    30   am
    75   143   144    2
    76   103   104    1
    77   132   133    2
    78   104   107    1
    79    30    31    1
    80    91    93   ar
    81    91    90   ar
    82    83    82    1
    83   107   108    1
    84    93    94   ar
    85   149   150    1
    86    33    32    2
    87    90    89    1
    88    90    92   ar
    89    89    86    1
    90    82    84    1
    91    82    79    1
    92    94    92   ar
    93    32    31    1
    94    81    80    2
    95   150   152    1
    96   150   151    1
    97    86    85    1
    98    86    87    1
    99    80    85   am
   100    80    79    1
   101    79    78    1
   102    41    39   am
   103    78    72   am
   104    87    88    2
   105    76    75    2
   106    34    35    1
   107    39    38    1
   108    39    40    2
   109    72    71    1
   110    72    73    2
   111    77    75   am
   112    75    74    1
   113    37    36    2
   114    38    35    1
   115    35    36    1
   116    71    74    1
   117    71    70    1
   118    68    66   ar
   119    68    69   ar
   120    66    63   ar
   121    69    67   ar
   122    63    65   ar
   123    63    61   ar
   124    67    65   ar
   125    60    61    1
   126    60    57    1
   127    65    64   ar
   128    61    62   ar
   129    50    48   ar
   130    50    51   ar
   131    48    47   ar
   132    57    58    1
   133    57    56    1
   134    58    59    2
   135    64    62   ar
   136    51    53   ar
   137    51    49   ar
   138    47    46    1
   139    47    49   ar
   140    53    55   ar
   141    46    43    1
   142    49    52   ar
   143    43    42    1
   144    43    44    1
   145    55    54   ar
   146    52    54   ar
   147    44    45    2
   148   100    99    1
   149   100   102    1
   150    95    96    1
   151    99    96    1
   152    99   101    1
   153    98    97    2
   154    96    97    1
