@<TRIPOS>MOLECULE
tmp/3e90D01.pdb
 119 115 0 0 0
SMALL
GASTEIGER

@<TRIPOS>ATOM
      1  N         34.1650   26.7540  -10.0440 N.3    29  ALA29      -0.1245
      2  CA        32.8090   26.7630  -10.5590 C.3    29  ALA29       0.1562
      3  C         32.0080   27.8850   -9.9160 C.2    29  ALA29       0.2260
      4  O         30.9560   28.2630  -10.4220 O.2    29  ALA29      -0.2867
      5  CB        32.1470   25.4250  -10.2830 C.3    29  ALA29       0.0290
      6  N         22.5870   27.9450   -8.4960 N.3    44  HIS44      -0.1226
      7  CA        23.1440   27.4740   -9.7520 C.3    44  HIS44       0.1752
      8  C         24.6180   27.1130   -9.7680 C.2    44  HIS44       0.2596
      9  O         25.0890   26.5220  -10.7380 O.2    44  HIS44      -0.2718
     10  CB        22.8540   28.4780  -10.8720 C.3    44  HIS44       0.0759
     11  CG        23.7480   29.6750  -10.8620 C.ar   44  HIS44       0.0818
     12  ND1       23.4480   30.8240  -10.1650 N.ar   44  HIS44      -0.2268
     13  CD2       24.9420   29.8970  -11.4620 C.ar   44  HIS44       0.1154
     14  CE1       24.4170   31.7060  -10.3370 C.ar   44  HIS44       0.1986
     15  NE2       25.3360   31.1680  -11.1210 N.ar   44  HIS44      -0.2212
     16  N         25.3580   27.4530   -8.7190 N.am   45  THR45      -0.1953
     17  CA        26.7770   27.1180   -8.7020 C.3    45  THR45       0.1897
     18  C         27.0430   25.6240   -8.5060 C.2    45  THR45       0.2313
     19  O         28.0190   25.0900   -9.0330 O.2    45  THR45      -0.2863
     20  CB        27.5270   27.8570   -7.5910 C.3    45  THR45       0.1794
     21  OG1       26.9850   27.4740   -6.3200 O.3    45  THR45      -0.2208
     22  CG2       27.4190   29.3700   -7.7830 C.3    45  THR45       0.0378
     23  N         15.3760   27.2370   -6.1550 N.3    65  VAL65      -0.1245
     24  CA        15.7140   27.5320   -7.5340 C.3    65  VAL65       0.1561
     25  C         15.2610   28.9360   -7.9250 C.2    65  VAL65       0.2260
     26  O         16.0150   29.6910   -8.5430 O.2    65  VAL65      -0.2867
     27  CB        15.0420   26.5280   -8.4790 C.3    65  VAL65       0.0252
     28  CG1       15.2620   26.9380   -9.9370 C.3    65  VAL65       0.0019
     29  CG2       15.5900   25.1380   -8.2140 C.3    65  VAL65       0.0019
     30  N         17.3930   31.2880   -6.3740 N.3    68  ASP68      -0.1239
     31  CA        18.7750   30.9590   -6.7130 C.3    68  ASP68       0.1674
     32  C         19.6530   31.0750   -5.4740 C.2    68  ASP68       0.2266
     33  O         20.7150   31.6800   -5.5060 O.2    68  ASP68      -0.2867
     34  CB        19.2560   31.9200   -7.7990 C.3    68  ASP68       0.1410
     35  CG        20.5240   31.4550   -8.4760 C.2    68  ASP68       0.3668
     36  OD1       20.9470   30.2980   -8.2460 O.co2  68  ASP68      -0.2456
     37  OD2       21.0890   32.2550   -9.2530 O.co2  68  ASP68      -0.2456
     38  N         30.7050   43.6370  -13.5280 N.3   122  ASP122     -0.1225
     39  CA        30.8680   42.5980  -14.5300 C.3   122  ASP122      0.1805
     40  C         32.0380   41.6540  -14.2500 C.2   122  ASP122      0.2598
     41  O         33.1870   41.9920  -14.5220 O.2   122  ASP122     -0.2718
     42  CB        31.0550   43.2370  -15.9040 C.3   122  ASP122      0.1424
     43  CG        30.7480   42.2800  -17.0400 C.2   122  ASP122      0.3668
     44  OD1       31.2340   41.1280  -17.0010 O.co2 122  ASP122     -0.2456
     45  OD2       30.0180   42.6830  -17.9780 O.co2 122  ASP122     -0.2456
     46  N         31.7490   40.4800  -13.7010 N.am  123  PHE123     -0.1963
     47  CA        32.7900   39.4910  -13.4330 C.3   123  PHE123      0.1756
     48  C         32.3920   38.1550  -14.0400 C.2   123  PHE123      0.2461
     49  O         31.2090   37.8340  -14.1290 O.2   123  PHE123     -0.2730
     50  CB        33.0550   39.3580  -11.9430 C.3   123  PHE123      0.0574
     51  CG        33.7560   40.5410  -11.3610 C.ar  123  PHE123     -0.0200
     52  CD1       33.0500   41.5140  -10.6620 C.ar  123  PHE123     -0.0042
     53  CD2       35.1280   40.6970  -11.5260 C.ar  123  PHE123     -0.0042
     54  CE1       33.7050   42.6260  -10.1340 C.ar  123  PHE123     -0.0003
     55  CE2       35.7880   41.8060  -11.0010 C.ar  123  PHE123     -0.0003
     56  CZ        35.0760   42.7700  -10.3050 C.ar  123  PHE123     -0.0000
     57  N         33.3840   37.3590  -14.4650 N.am  124  PRO124     -0.2716
     58  CA        33.2060   36.0460  -15.0950 C.3   124  PRO124      0.1536
     59  C         32.5330   34.9350  -14.3100 C.2   124  PRO124      0.2599
     60  O         32.3970   35.0090  -13.0920 O.2   124  PRO124     -0.2715
     61  CB        34.6270   35.6810  -15.5170 C.3   124  PRO124      0.0310
     62  CG        35.4540   36.3020  -14.4490 C.3   124  PRO124      0.0237
     63  CD        34.8160   37.6630  -14.2960 C.3   124  PRO124      0.0939
     64  N         32.0980   33.9140  -15.0440 N.am  125  THR125     -0.1937
     65  CA        31.4550   32.7500  -14.4550 C.3   125  THR125      0.2028
     66  C         32.4550   32.2380  -13.4500 C.2   125  THR125      0.2642
     67  O         33.6630   32.2630  -13.6970 O.2   125  THR125     -0.2714
     68  CB        31.2120   31.6170  -15.4850 C.3   125  THR125      0.1808
     69  OG1       30.3790   32.0890  -16.5520 O.3   125  THR125     -0.2208
     70  CG2       30.5340   30.4300  -14.8110 C.3   125  THR125      0.0379
     71  N         31.9620   31.7670  -12.3170 N.am  126  GLY126     -0.1954
     72  CA        32.8680   31.2760  -11.3070 C.3   126  GLY126      0.1869
     73  C         32.9460   32.2570  -10.1600 C.2   126  GLY126      0.2309
     74  O         33.3840   31.8920   -9.0750 O.2   126  GLY126     -0.2863
     75  N         30.2280   33.8600   -9.1920 N.3   128  SER128     -0.1217
     76  CA        28.9030   33.8140   -8.5770 C.3   128  SER128      0.1889
     77  C         29.0280   33.1750   -7.2020 C.2   128  SER128      0.2288
     78  O         29.6190   32.1070   -7.0670 O.2   128  SER128     -0.2866
     79  CB        27.9280   32.9750   -9.4090 C.3   128  SER128      0.2089
     80  OG        27.6450   33.6340  -10.6490 O.3   128  SER128     -0.2183
     81  N         23.3160   36.7550  -10.0830 N.3   145  ASN145     -0.1225
     82  CA        22.0400   36.4590  -10.7130 C.3   145  ASN145      0.1788
     83  C         21.3710   37.7550  -11.1330 C.2   145  ASN145      0.2637
     84  O         20.9370   38.5360  -10.2910 O.2   145  ASN145     -0.2714
     85  CB        21.1410   35.6770   -9.7540 C.3   145  ASN145      0.1169
     86  CG        19.8560   35.2070  -10.4150 C.2   145  ASN145      0.2627
     87  OD1       19.7960   35.0320  -11.6270 O.2   145  ASN145     -0.2716
     88  ND2       18.8290   34.9830   -9.6160 N.am  145  ASN145     -0.0877
     89  N         21.2980   37.9940  -12.4370 N.am  146  GLY146     -0.1718
     90  CA        20.6870   39.2270  -12.9030 C.2   146  GLY146      0.1480
     91  C         20.3180   39.3130  -14.3720 C.2   146  GLY146      0.2820
     92  O         19.7360   38.3860  -14.9300 O.2   146  GLY146     -0.2669
     93  N         20.6610   40.4440  -14.9880 N.am  147  VAL147     -0.1929
     94  CA        20.3580   40.7060  -16.3960 C.3   147  VAL147      0.1730
     95  C         21.5230   41.3840  -17.1150 C.2   147  VAL147      0.2616
     96  O         22.4070   41.9490  -16.4740 O.2   147  VAL147     -0.2715
     97  CB        19.1310   41.6400  -16.5280 C.3   147  VAL147      0.0290
     98  CG1       17.9230   41.0190  -15.8600 C.3   147  VAL147      0.0023
     99  CG2       19.4360   42.9820  -15.8900 C.3   147  VAL147      0.0023
    100  N         21.5120   41.3200  -18.4460 N.am  148  ILE148     -0.1977
    101  CA        22.5390   41.9600  -19.2750 C.3   148  ILE148      0.1596
    102  C         21.8270   43.0460  -20.0760 C.2   148  ILE148      0.2287
    103  O         20.9980   42.7370  -20.9300 O.2   148  ILE148     -0.2864
    104  CB        23.1770   40.9830  -20.2780 C.3   148  ILE148      0.0276
    105  CG1       23.7920   39.7970  -19.5400 C.3   148  ILE148      0.0022
    106  CG2       24.2530   41.6930  -21.0670 C.3   148  ILE148      0.0022
    107  CD1       24.3360   38.7210  -20.4540 C.3   148  ILE148      0.0001
    108  N         26.3170   44.1260  -17.3390 N.3   154  TYR154     -0.1241
    109  CA        25.6840   43.1240  -16.4980 C.3   154  TYR154      0.1605
    110  C         25.3280   43.7590  -15.1670 C.2   154  TYR154      0.2264
    111  O         26.1040   44.5420  -14.6230 O.2   154  TYR154     -0.2867
    112  CB        26.6410   41.9640  -16.2280 C.3   154  TYR154      0.0534
    113  CG        26.0860   40.9290  -15.2720 C.ar  154  TYR154     -0.0201
    114  CD1       25.0170   40.1270  -15.6420 C.ar  154  TYR154     -0.0009
    115  CD2       26.6300   40.7600  -13.9940 C.ar  154  TYR154     -0.0009
    116  CE1       24.4960   39.1800  -14.7730 C.ar  154  TYR154      0.0417
    117  CE2       26.1200   39.8130  -13.1160 C.ar  154  TYR154      0.0417
    118  CZ        25.0470   39.0200  -13.5130 C.ar  154  TYR154      0.1957
    119  OH        24.5230   38.0540  -12.6680 O.3   154  TYR154     -0.2866
@<TRIPOS>BOND
     1   106   104    1
     2   103   102    2
     3   107   105    1
     4   104   105    1
     5   104   101    1
     6   102   101    1
     7   101   100    1
     8   100    95   am
     9    45    43   ar
    10   108   109    1
    11    95    96    2
    12    95    94    1
    13    43    44   ar
    14    43    42    1
    15    69    68    1
    16    97    94    1
    17    97    99    1
    18    97    98    1
    19   109   112    1
    20   109   110    1
    21    94    93    1
    22   112   113    1
    23    42    39    1
    24   114   113   ar
    25   114   116   ar
    26    61    58    1
    27    61    62    1
    28    68    70    1
    29    68    65    1
    30   113   115   ar
    31   110   111    2
    32    58    57    1
    33    58    59    1
    34    64    65    1
    35    64    59   am
    36    93    91   am
    37    92    91    2
    38   116   118   ar
    39    39    40    1
    40    39    38    1
    41    41    40    2
    42    57    63    1
    43    57    48   am
    44    65    66    1
    45    62    63    1
    46    91    90    1
    47    59    60    2
    48    40    46   am
    49    49    48    2
    50    48    47    1
    51   115   117   ar
    52    46    47    1
    53    67    66    2
    54   118   117   ar
    55   118   119    1
    56    66    71   am
    57    47    50    1
    58    90    89    2
    59    89    83    1
    60    71    72    1
    61    50    51    1
    62    87    86    2
    63    53    51   ar
    64    53    55   ar
    65    13    15   ar
    66    13    11   ar
    67    51    52   ar
    68    72    73    1
    69    83    82    1
    70    83    84    2
    71    15    14   ar
    72    55    56   ar
    73    10    11    1
    74    10     7    1
    75    11    12   ar
    76     9     8    2
    77    82    81    1
    78    82    85    1
    79    52    54   ar
    80    80    79    1
    81     2     5    1
    82     2     1    1
    83     2     3    1
    84     4     3    2
    85    86    85    1
    86    86    88   am
    87    14    12   ar
    88    56    54   ar
    89    73    74    2
    90    28    27    1
    91     8     7    1
    92     8    16   am
    93     7     6    1
    94    79    76    1
    95    37    35   ar
    96    75    76    1
    97    19    18    2
    98    16    17    1
    99    17    18    1
   100    17    20    1
   101    76    77    1
   102    26    25    2
   103    27    29    1
   104    27    24    1
   105    35    36   ar
   106    35    34    1
   107    25    24    1
   108    34    31    1
   109    22    20    1
   110    20    21    1
   111    24    23    1
   112    77    78    2
   113    31    30    1
   114    31    32    1
   115    33    32    2
