@<TRIPOS>MOLECULE
tmp/3e92A00.pdb
 179 168 0 0 0
SMALL
GASTEIGER

@<TRIPOS>ATOM
      1  N         46.7090   32.5250   22.6380 N.3    28  VAL28      -0.1245
      2  CA        47.6170   32.6730   23.7650 C.3    28  VAL28       0.1561
      3  C         47.8650   31.3090   24.4540 C.2    28  VAL28       0.2260
      4  O         47.0600   30.3800   24.3320 O.2    28  VAL28      -0.2867
      5  CB        47.0650   33.7630   24.7560 C.3    28  VAL28       0.0252
      6  CG1       46.0030   33.1930   25.6550 C.3    28  VAL28       0.0019
      7  CG2       48.1930   34.4010   25.5690 C.3    28  VAL28       0.0019
      8  N         46.8880   26.3780   27.5080 N.3    33  TYR33      -0.1241
      9  CA        45.6290   26.6650   28.2020 C.3    33  TYR33       0.1605
     10  C         44.3750   25.9890   27.6090 C.2    33  TYR33       0.2264
     11  O         43.2930   25.9790   28.2330 O.2    33  TYR33      -0.2867
     12  CB        45.3930   28.1850   28.2940 C.3    33  TYR33       0.0534
     13  CG        46.4300   28.9780   29.0750 C.ar   33  TYR33      -0.0201
     14  CD1       46.7120   28.6840   30.4250 C.ar   33  TYR33      -0.0009
     15  CD2       47.0860   30.0600   28.4830 C.ar   33  TYR33      -0.0009
     16  CE1       47.6490   29.4220   31.1440 C.ar   33  TYR33       0.0417
     17  CE2       48.0270   30.8100   29.1880 C.ar   33  TYR33       0.0417
     18  CZ        48.3040   30.4910   30.5170 C.ar   33  TYR33       0.1957
     19  OH        49.2450   31.2390   31.2040 O.3    33  TYR33      -0.2866
     20  N         42.5190   29.1200   23.6680 N.3    36  VAL36      -0.1245
     21  CA        42.3660   30.3920   24.3500 C.3    36  VAL36       0.1561
     22  C         42.9550   31.5520   23.5470 C.2    36  VAL36       0.2260
     23  O         44.0820   31.4780   23.0150 O.2    36  VAL36      -0.2867
     24  CB        42.9880   30.3370   25.7660 C.3    36  VAL36       0.0252
     25  CG1       42.7030   31.6270   26.5480 C.3    36  VAL36       0.0019
     26  CG2       42.4560   29.1030   26.5110 C.3    36  VAL36       0.0019
     27  N         40.7330   37.1720   28.5020 N.3    49  ALA49      -0.1245
     28  CA        41.0610   35.8450   27.9610 C.3    49  ALA49       0.1562
     29  C         39.7280   35.2130   27.5660 C.2    49  ALA49       0.2260
     30  O         38.7390   35.3030   28.3170 O.2    49  ALA49      -0.2867
     31  CB        41.7780   34.9560   29.0130 C.3    49  ALA49       0.0290
     32  N         38.1640   31.6000   26.3280 N.3    51  LYS51      -0.1245
     33  CA        38.3120   30.1830   26.0760 C.3    51  LYS51       0.1561
     34  C         37.1110   29.6670   25.2740 C.2    51  LYS51       0.2260
     35  O         35.9590   29.8290   25.6920 O.2    51  LYS51      -0.2867
     36  CB        38.4140   29.4160   27.3940 C.3    51  LYS51       0.0271
     37  CG        38.5910   27.9020   27.1830 C.3    51  LYS51       0.0035
     38  CD        38.3870   27.1020   28.4610 C.3    51  LYS51       0.0206
     39  CE        39.6080   27.0610   29.3450 C.3    51  LYS51       0.1093
     40  NZ        39.3670   26.0520   30.4900 N.3    51  LYS51      -0.1314
     41  N         32.6520   23.3320   34.5760 N.3    69  GLU69      -0.1245
     42  CA        33.4810   24.5210   34.4280 C.3    69  GLU69       0.1567
     43  C         32.6260   25.7900   34.5050 C.2    69  GLU69       0.2260
     44  O         32.9740   26.7340   35.2270 O.2    69  GLU69      -0.2867
     45  CB        34.2960   24.4930   33.1270 C.3    69  GLU69       0.0388
     46  CG        35.2290   25.7280   33.0090 C.3    69  GLU69       0.1160
     47  CD        36.3800   25.5530   32.0130 C.2    69  GLU69       0.3649
     48  OE1       36.3320   24.6440   31.1620 O.co2  69  GLU69      -0.2457
     49  OE2       37.3700   26.3020   32.1250 O.co2  69  GLU69      -0.2457
     50  N         31.3520   26.3700   38.0920 N.3    72  LEU72      -0.1231
     51  CA        32.4790   26.8440   38.8890 C.3    72  LEU72       0.1693
     52  C         32.7880   28.3110   38.6370 C.2    72  LEU72       0.2591
     53  O         32.8980   29.0930   39.6030 O.2    72  LEU72      -0.2718
     54  CB        33.7490   26.0070   38.6490 C.3    72  LEU72       0.0284
     55  CG        33.7850   24.6460   39.3540 C.3    72  LEU72       0.0019
     56  CD1       34.8570   23.7680   38.7720 C.3    72  LEU72       0.0001
     57  CD2       33.8970   24.7430   40.8970 C.3    72  LEU72       0.0001
     58  N         32.9460   28.6750   37.3550 N.am   73  LEU73      -0.1980
     59  CA        33.2470   30.0540   36.9610 C.3    73  LEU73       0.1596
     60  C         32.1910   31.0680   37.3840 C.2    73  LEU73       0.2287
     61  O         32.5250   32.2130   37.8030 O.2    73  LEU73      -0.2864
     62  CB        33.5310   30.1490   35.4470 C.3    73  LEU73       0.0297
     63  CG        34.8550   29.5040   35.0350 C.3    73  LEU73       0.0022
     64  CD1       34.9880   29.4900   33.5320 C.3    73  LEU73       0.0001
     65  CD2       36.0640   30.2280   35.7030 C.3    73  LEU73       0.0001
     66  N         40.0080   33.3620   39.7170 N.3    82  ILE82      -0.1245
     67  CA        39.4570   33.6900   38.4090 C.3    82  ILE82       0.1561
     68  C         37.9110   33.5940   38.4120 C.2    82  ILE82       0.2260
     69  O         37.3430   32.6700   38.9830 O.2    82  ILE82      -0.2867
     70  CB        40.0870   32.8240   37.2840 C.3    82  ILE82       0.0252
     71  CG1       40.0270   33.5540   35.9370 C.3    82  ILE82       0.0019
     72  CG2       39.4890   31.3930   37.2580 C.3    82  ILE82       0.0019
     73  CD1       40.9900   34.7420   35.8530 C.3    82  ILE82       0.0001
     74  N         33.9060   31.3040   27.1730 N.3   102  LEU102     -0.1245
     75  CA        34.0140   31.8230   28.5260 C.3   102  LEU102      0.1561
     76  C         34.9810   33.0030   28.5240 C.2   102  LEU102      0.2260
     77  O         36.0990   32.9120   27.9730 O.2   102  LEU102     -0.2867
     78  CB        34.5860   30.7350   29.4670 C.3   102  LEU102      0.0270
     79  CG        33.8360   29.3890   29.4800 C.3   102  LEU102      0.0019
     80  CD1       34.6410   28.2600   30.0790 C.3   102  LEU102      0.0001
     81  CD2       32.4510   29.5250   30.1280 C.3   102  LEU102      0.0001
     82  N         37.1760   35.8150   30.7880 N.3   104  THR104     -0.1203
     83  CA        37.7190   36.1580   32.1130 C.3   104  THR104      0.1994
     84  C         38.7580   37.2800   31.9750 C.2   104  THR104      0.2618
     85  O         39.1520   37.6350   30.8450 O.2   104  THR104     -0.2717
     86  CB        38.5240   34.9590   32.7410 C.3   104  THR104      0.1784
     87  OG1       39.7620   34.8050   32.0230 O.3   104  THR104     -0.2211
     88  CG2       37.7320   33.6410   32.6770 C.3   104  THR104      0.0376
     89  N         39.2810   37.7730   33.1150 N.am  105  HIS105     -0.1961
     90  CA        40.4100   38.7360   33.0310 C.3   105  HIS105      0.1787
     91  C         41.6070   38.0750   32.4100 C.2   105  HIS105      0.2620
     92  O         41.7640   36.8790   32.5010 O.2   105  HIS105     -0.2715
     93  CB        40.8610   39.2150   34.4210 C.3   105  HIS105      0.0785
     94  CG        39.8690   40.1080   35.0950 C.ar  105  HIS105      0.0821
     95  ND1       39.6910   41.4210   34.7280 N.ar  105  HIS105     -0.2267
     96  CD2       38.9800   39.8680   36.0940 C.ar  105  HIS105      0.1154
     97  CE1       38.7410   41.9580   35.4770 C.ar  105  HIS105      0.1986
     98  NE2       38.2980   41.0380   36.3150 N.ar  105  HIS105     -0.2212
     99  N         42.4540   38.8680   31.7690 N.am  106  LEU106     -0.1963
    100  CA        43.7270   38.3880   31.2790 C.3   106  LEU106      0.1728
    101  C         44.7620   38.9990   32.2210 C.2   106  LEU106      0.2616
    102  O         45.0030   40.2080   32.1460 O.2   106  LEU106     -0.2715
    103  CB        43.9360   38.8930   29.8480 C.3   106  LEU106      0.0311
    104  CG        45.2470   38.4870   29.2090 C.3   106  LEU106      0.0022
    105  CD1       45.2080   36.9840   28.9480 C.3   106  LEU106      0.0001
    106  CD2       45.5410   39.2870   27.9380 C.3   106  LEU106      0.0001
    107  N         45.3580   38.2110   33.1290 N.am  107  MET107     -0.1963
    108  CA        46.3850   38.7770   34.0240 C.3   107  MET107      0.1736
    109  C         47.6800   39.1780   33.3030 C.2   107  MET107      0.2617
    110  O         48.2650   40.2160   33.6230 O.2   107  MET107     -0.2715
    111  CB        46.6950   37.8840   35.2290 C.3   107  MET107      0.0427
    112  CG        45.4440   37.5450   36.0260 C.3   107  MET107      0.0599
    113  SD        44.6160   38.9830   36.7670 S.3   107  MET107     -0.1393
    114  CE        45.7290   39.2470   38.1730 C.3   107  MET107      0.0692
    115  N         48.1460   38.3340   32.3800 N.am  108  GLY108     -0.1940
    116  CA        49.3050   38.6710   31.5430 C.3   108  GLY108      0.2014
    117  C         50.4690   37.7100   31.6380 C.2   108  GLY108      0.2639
    118  O         51.2610   37.6300   30.7220 O.2   108  GLY108     -0.2714
    119  N         50.5590   36.9740   32.7310 N.am  109  ALA109     -0.1963
    120  CA        51.6270   35.9790   32.9180 C.3   109  ALA109      0.1728
    121  C         51.2050   34.9930   33.9870 C.2   109  ALA109      0.2616
    122  O         50.2290   35.2450   34.6750 O.2   109  ALA109     -0.2715
    123  CB        52.9290   36.6830   33.3620 C.3   109  ALA109      0.0334
    124  N         51.9240   33.8730   34.1190 N.am  110  ASP110     -0.1971
    125  CA        51.6910   32.9470   35.2340 C.3   110  ASP110      0.1709
    126  C         52.9200   33.0030   36.1720 C.2   110  ASP110      0.2293
    127  O         53.9550   33.5980   35.8130 O.2   110  ASP110     -0.2864
    128  CB        51.3200   31.5170   34.7340 C.3   110  ASP110      0.1436
    129  CG        52.4630   30.8160   33.9690 C.2   110  ASP110      0.3671
    130  OD1       53.5560   30.7780   34.5020 O.co2 110  ASP110     -0.2456
    131  OD2       52.2770   30.2640   32.8550 O.co2 110  ASP110     -0.2456
    132  N         56.3480   31.8420   34.8620 N.3   113  ASN113     -0.1240
    133  CA        57.0390   32.9410   34.1870 C.3   113  ASN113      0.1653
    134  C         57.7520   33.9160   35.1390 C.2   113  ASN113      0.2266
    135  O         58.8570   34.3860   34.8690 O.2   113  ASN113     -0.2867
    136  CB        56.0390   33.7620   33.3500 C.3   113  ASN113      0.1155
    137  CG        55.3650   32.9570   32.2180 C.2   113  ASN113      0.2627
    138  OD1       54.3120   33.3800   31.6930 O.2   113  ASN113     -0.2716
    139  ND2       55.9640   31.8160   31.8280 N.am  113  ASN113     -0.0877
    140  N         47.8100   33.0310   37.8980 N.3   155  ALA155     -0.1245
    141  CA        47.9150   34.1160   36.9250 C.3   155  ALA155      0.1562
    142  C         48.2300   35.4300   37.6370 C.2   155  ALA155      0.2260
    143  O         47.6330   35.7470   38.6680 O.2   155  ALA155     -0.2867
    144  CB        46.6430   34.2330   36.1440 C.3   155  ALA155      0.0290
    145  N         43.6590   29.8830   38.9500 N.3   164  LEU164     -0.1231
    146  CA        42.9220   29.2980   37.8420 C.3   164  LEU164      0.1693
    147  C         42.8260   27.7860   37.9810 C.2   164  LEU164      0.2592
    148  O         43.6160   27.1760   38.7050 O.2   164  LEU164     -0.2718
    149  CB        43.6550   29.5170   36.5060 C.3   164  LEU164      0.0284
    150  CG        44.3480   30.8020   36.0710 C.3   164  LEU164      0.0019
    151  CD1       44.7770   30.6620   34.6110 C.3   164  LEU164      0.0001
    152  CD2       43.4200   31.9820   36.2820 C.3   164  LEU164      0.0001
    153  N         41.8910   27.2070   37.2290 N.am  165  ASP165     -0.1960
    154  CA        41.7410   25.7580   37.0920 C.3   165  ASP165      0.1840
    155  C         41.3140   24.9060   38.3000 C.2   165  ASP165      0.2622
    156  O         41.4860   23.6860   38.2770 O.2   165  ASP165     -0.2715
    157  CB        43.0310   25.1660   36.5240 C.3   165  ASP165      0.1450
    158  CG        42.9320   24.9230   35.0910 C.2   165  ASP165      0.3671
    159  OD1       42.6240   25.8830   34.3400 O.co2 165  ASP165     -0.2456
    160  OD2       43.1220   23.7530   34.7070 O.co2 165  ASP165     -0.2456
    161  N         40.7910   25.5230   39.3430 N.am  166  PHE166     -0.1974
    162  CA        40.3210   24.7560   40.5130 C.3   166  PHE166      0.1639
    163  C         39.1570   23.8430   40.1150 C.2   166  PHE166      0.2290
    164  O         38.4580   24.1050   39.1270 O.2   166  PHE166     -0.2864
    165  CB        39.8790   25.7250   41.6150 C.3   166  PHE166      0.0560
    166  CG        39.1390   26.9090   41.0790 C.ar  166  PHE166     -0.0200
    167  CD1       37.7900   26.8020   40.7430 C.ar  166  PHE166     -0.0042
    168  CD2       39.8130   28.1210   40.8480 C.ar  166  PHE166     -0.0042
    169  CE1       37.1140   27.8750   40.1890 C.ar  166  PHE166     -0.0003
    170  CE2       39.1630   29.1860   40.2860 C.ar  166  PHE166     -0.0003
    171  CZ        37.8010   29.0780   39.9610 C.ar  166  PHE166     -0.0000
    172  N         38.5380   20.9930   38.6210 N.3   168  LEU168     -0.1245
    173  CA        38.3720   20.2740   37.3540 C.3   168  LEU168      0.1561
    174  C         39.0450   18.8790   37.2760 C.2   168  LEU168      0.2260
    175  O         38.7000   18.0600   36.4030 O.2   168  LEU168     -0.2867
    176  CB        38.8010   21.1650   36.1760 C.3   168  LEU168      0.0270
    177  CG        37.9060   22.3600   35.8420 C.3   168  LEU168      0.0019
    178  CD1       38.3120   22.9680   34.5040 C.3   168  LEU168      0.0001
    179  CD2       36.4330   21.9550   35.7700 C.3   168  LEU168      0.0001
@<TRIPOS>BOND
     1     1     2    1
     2    23    22    2
     3    22    21    1
     4    20    21    1
     5     2     3    1
     6     2     5    1
     7     4     3    2
     8    21    24    1
     9     5     7    1
    10     5     6    1
    11    34    35    2
    12    34    33    1
    13    24    26    1
    14    24    25    1
    15    33    32    1
    16    33    36    1
    17    74    75    1
    18    37    36    1
    19    37    38    1
    20     8     9    1
    21    29    28    1
    22    29    30    2
    23    10     9    1
    24    10    11    2
    25   106   104    1
    26    28    27    1
    27    28    31    1
    28    77    76    2
    29     9    12    1
    30    12    13    1
    31    38    39    1
    32    15    13   ar
    33    15    17   ar
    34    76    75    1
    35    75    78    1
    36   105   104    1
    37    13    14   ar
    38    17    18   ar
    39   104   103    1
    40    39    40    1
    41    78    79    1
    42    79    80    1
    43    79    81    1
    44   103   100    1
    45    14    16   ar
    46    18    16   ar
    47    18    19    1
    48   118   117    2
    49    82    83    1
    50    85    84    2
    51    48    47   ar
    52   100    99    1
    53   100   101    1
    54   116   117    1
    55   116   115    1
    56   117   119   am
    57   138   137    2
    58    99    91   am
    59   139   137   am
    60    84    83    1
    61    84    89   am
    62    47    49   ar
    63    47    46    1
    64    87    86    1
    65    83    86    1
    66   102   101    2
    67   137   136    1
    68   101   107   am
    69   115   109   am
    70    91    92    2
    71    91    90    1
    72    88    86    1
    73   119   120    1
    74   131   129   ar
    75   120   123    1
    76   120   121    1
    77    46    45    1
    78    90    89    1
    79    90    93    1
    80    45    42    1
    81   107   108    1
    82   109   110    2
    83   109   108    1
    84   136   133    1
    85    64    63    1
    86   129   130   ar
    87   129   128    1
    88   121   124   am
    89   121   122    2
    90   108   111    1
    91   124   125    1
    92   133   132    1
    93   133   134    1
    94   159   158   ar
    95    93    94    1
    96    42    43    1
    97    42    41    1
    98   178   177    1
    99    43    44    2
   100   151   150    1
   101   160   158   ar
   102    95    94   ar
   103    95    97   ar
   104   128   125    1
   105   135   134    2
   106    63    62    1
   107    63    65    1
   108   158   157    1
   109    94    96   ar
   110   111   112    1
   111   125   126    1
   112    62    59    1
   113    97    98   ar
   114   179   177    1
   115   127   126    2
   116   177   176    1
   117    73    71    1
   118    71    70    1
   119   112   113    1
   120   150   152    1
   121   150   149    1
   122    96    98   ar
   123   144   141    1
   124   176   173    1
   125   175   174    2
   126   149   146    1
   127   157   154    1
   128   113   114    1
   129   141   142    1
   130   141   140    1
   131    59    58    1
   132    59    60    1
   133   154   153    1
   134   154   155    1
   135   153   147   am
   136    72    70    1
   137   174   173    1
   138    70    67    1
   139   173   172    1
   140    58    52   am
   141    60    61    2
   142   142   143    2
   143   146   147    1
   144   146   145    1
   145   147   148    2
   146    50    51    1
   147   156   155    2
   148   155   161   am
   149    67    68    1
   150    67    66    1
   151    68    69    2
   152    52    51    1
   153    52    53    2
   154    54    51    1
   155    54    55    1
   156    56    55    1
   157   164   163    2
   158   161   162    1
   159    55    57    1
   160   171   169   ar
   161   171   170   ar
   162   163   162    1
   163   169   167   ar
   164   170   168   ar
   165   162   165    1
   166   167   166   ar
   167   168   166   ar
   168   166   165    1
