@<TRIPOS>MOLECULE
tmp/3e93A00.pdb
 224 214 0 0 0
SMALL
GASTEIGER

@<TRIPOS>ATOM
      1  N         46.8110   33.1160   23.1540 N.3    27  VAL27      -0.1231
      2  CA        47.7850   33.1470   24.2470 C.3    27  VAL27       0.1692
      3  C         47.9010   31.8040   24.9910 C.2    27  VAL27       0.2592
      4  O         48.6330   31.6930   25.9900 O.2    27  VAL27      -0.2718
      5  CB        47.4770   34.3000   25.2770 C.3    27  VAL27       0.0266
      6  CG1       47.7650   35.6850   24.6840 C.3    27  VAL27       0.0020
      7  CG2       46.0430   34.2300   25.7910 C.3    27  VAL27       0.0020
      8  N         47.1860   30.7820   24.5250 N.am   28  GLY28      -0.1957
      9  CA        47.2160   29.4780   25.2020 C.3    28  GLY28       0.1869
     10  C         46.1900   28.4870   24.6960 C.2    28  GLY28       0.2309
     11  O         45.0110   28.8120   24.5240 O.2    28  GLY28      -0.2863
     12  N         42.7370   30.1260   24.5840 N.3    35  VAL35      -0.1245
     13  CA        42.5840   31.4340   25.2240 C.3    35  VAL35       0.1561
     14  C         43.1170   32.5460   24.3290 C.2    35  VAL35       0.2260
     15  O         44.1410   32.3750   23.6420 O.2    35  VAL35      -0.2867
     16  CB        43.2400   31.4670   26.6490 C.3    35  VAL35       0.0252
     17  CG1       42.8940   32.7520   27.3900 C.3    35  VAL35       0.0019
     18  CG2       42.7750   30.2800   27.4950 C.3    35  VAL35       0.0019
     19  N         41.0480   38.1720   29.2080 N.3    48  ALA48      -0.1231
     20  CA        41.2330   36.8560   28.6070 C.3    48  ALA48       0.1694
     21  C         39.8740   36.2220   28.3360 C.2    48  ALA48       0.2592
     22  O         38.9820   36.2230   29.1910 O.2    48  ALA48      -0.2718
     23  CB        42.0410   35.9440   29.5340 C.3    48  ALA48       0.0304
     24  N         39.7490   35.6460   27.1500 N.am   49  VAL49      -0.1966
     25  CA        38.5460   34.9610   26.7300 C.3    49  VAL49       0.1727
     26  C         38.9440   33.5190   26.4620 C.2    49  VAL49       0.2616
     27  O         39.7980   33.2650   25.6200 O.2    49  VAL49      -0.2715
     28  CB        37.9710   35.5590   25.4180 C.3    49  VAL49       0.0290
     29  CG1       36.6370   34.8970   25.0790 C.3    49  VAL49       0.0023
     30  CG2       37.8180   37.1040   25.5150 C.3    49  VAL49       0.0023
     31  N         38.3320   32.5920   27.1920 N.am   50  LYS50      -0.1977
     32  CA        38.5620   31.1650   26.9770 C.3    50  LYS50       0.1596
     33  C         37.3710   30.5660   26.2540 C.2    50  LYS50       0.2287
     34  O         36.2380   30.6110   26.7550 O.2    50  LYS50      -0.2864
     35  CB        38.7460   30.4210   28.3080 C.3    50  LYS50       0.0298
     36  CG        39.4560   29.0450   28.1610 C.3    50  LYS50       0.0038
     37  CD        38.9900   27.9630   29.1340 C.3    50  LYS50       0.0206
     38  CE        39.1290   28.2860   30.6130 C.3    50  LYS50       0.1093
     39  NZ        39.3650   27.0110   31.4070 N.3    50  LYS50      -0.1314
     40  N         32.1210   18.7440   33.6660 N.3    64  ARG64      -0.1245
     41  CA        33.2630   19.6280   33.8680 C.3    64  ARG64       0.1563
     42  C         33.0040   21.0710   33.4400 C.2    64  ARG64       0.2260
     43  O         33.4150   22.0180   34.1400 O.2    64  ARG64      -0.2867
     44  CB        34.5010   19.1050   33.1430 C.3    64  ARG64       0.0307
     45  CG        35.6630   20.0980   33.2010 C.3    64  ARG64       0.0489
     46  CD        36.8600   19.6040   32.4390 C.3    64  ARG64       0.2205
     47  NE        37.6470   18.6480   33.2100 N.pl3  64  ARG64      -0.0865
     48  CZ        38.7760   18.9570   33.8410 C.cat  64  ARG64       0.5346
     49  NH1       39.2500   20.2000   33.7870 N.pl3  64  ARG64       0.1354
     50  NH2       39.4330   18.0230   34.5210 N.pl3  64  ARG64       0.1354
     51  N         33.0880   24.1590   36.0930 N.3    68  GLU68      -0.1245
     52  CA        33.8670   25.3890   35.9490 C.3    68  GLU68       0.1567
     53  C         33.0150   26.6540   35.8990 C.2    68  GLU68       0.2260
     54  O         33.3320   27.6430   36.5410 O.2    68  GLU68      -0.2867
     55  CB        34.7980   25.3360   34.7280 C.3    68  GLU68       0.0388
     56  CG        35.6270   26.6340   34.5600 C.3    68  GLU68       0.1160
     57  CD        36.6750   26.5610   33.4460 C.2    68  GLU68       0.3649
     58  OE1       36.5240   25.7100   32.5500 O.co2  68  GLU68      -0.2457
     59  OE2       37.6350   27.3580   33.4630 O.co2  68  GLU68      -0.2457
     60  N         31.6570   27.4000   39.3050 N.3    71  LEU71      -0.1231
     61  CA        32.7120   27.8500   40.2080 C.3    71  LEU71       0.1693
     62  C         33.0950   29.3110   39.9450 C.2    71  LEU71       0.2591
     63  O         33.1970   30.1240   40.8810 O.2    71  LEU71      -0.2718
     64  CB        33.9200   26.9040   40.1420 C.3    71  LEU71       0.0284
     65  CG        35.2160   27.2380   40.8930 C.3    71  LEU71       0.0019
     66  CD1       36.0510   25.9670   41.0520 C.3    71  LEU71       0.0001
     67  CD2       36.0200   28.2980   40.1570 C.3    71  LEU71       0.0001
     68  N         33.3200   29.6370   38.6760 N.am   72  LEU72      -0.1980
     69  CA        33.7070   30.9890   38.2910 C.3    72  LEU72       0.1596
     70  C         32.6110   32.0080   38.5690 C.2    72  LEU72       0.2287
     71  O         32.9070   33.1490   38.9140 O.2    72  LEU72      -0.2864
     72  CB        34.1400   31.0280   36.8080 C.3    72  LEU72       0.0297
     73  CG        35.4050   30.2380   36.4740 C.3    72  LEU72       0.0022
     74  CD1       35.5710   30.2000   34.9470 C.3    72  LEU72       0.0001
     75  CD2       36.6470   30.8160   37.1340 C.3    72  LEU72       0.0001
     76  N         32.9340   32.6960   42.5470 N.3    75  MET75      -0.1245
     77  CA        34.1630   33.2290   43.1450 C.3    75  MET75       0.1570
     78  C         34.2370   34.7360   43.0470 C.2    75  MET75       0.2261
     79  O         34.4960   35.2560   41.9750 O.2    75  MET75      -0.2867
     80  CB        35.4100   32.6640   42.4400 C.3    75  MET75       0.0387
     81  CG        35.6050   31.1680   42.5120 C.3    75  MET75       0.0595
     82  SD        36.0120   30.5980   44.1520 S.3    75  MET75      -0.1393
     83  CE        34.3940   30.3590   44.9000 C.3    75  MET75       0.0692
     84  N         41.3010   35.7370   44.0640 N.3    80  VAL80      -0.1231
     85  CA        40.7310   34.5670   43.3720 C.3    80  VAL80       0.1692
     86  C         40.1630   35.0540   42.0520 C.2    80  VAL80       0.2591
     87  O         39.4570   36.0750   42.0060 O.2    80  VAL80      -0.2718
     88  CB        39.6220   33.8960   44.2080 C.3    80  VAL80       0.0266
     89  CG1       39.0630   32.6190   43.5230 C.3    80  VAL80       0.0020
     90  CG2       40.1400   33.5730   45.6550 C.3    80  VAL80       0.0020
     91  N         40.4900   34.3440   40.9700 N.am   81  ILE81      -0.1980
     92  CA        39.9320   34.6640   39.6530 C.3    81  ILE81       0.1595
     93  C         38.4030   34.7120   39.7010 C.2    81  ILE81       0.2287
     94  O         37.7620   33.8970   40.3470 O.2    81  ILE81      -0.2864
     95  CB        40.4210   33.6610   38.5520 C.3    81  ILE81       0.0276
     96  CG1       40.0870   34.1790   37.1340 C.3    81  ILE81       0.0022
     97  CG2       39.8720   32.2490   38.8120 C.3    81  ILE81       0.0022
     98  CD1       40.9690   35.3140   36.6860 C.3    81  ILE81       0.0001
     99  N         34.3160   32.0800   28.2560 N.3   101  LEU101     -0.1245
    100  CA        34.4690   32.6500   29.5920 C.3   101  LEU101      0.1561
    101  C         35.4140   33.8460   29.5190 C.2   101  LEU101      0.2260
    102  O         36.4670   33.7720   28.8790 O.2   101  LEU101     -0.2867
    103  CB        35.0310   31.5850   30.5470 C.3   101  LEU101      0.0270
    104  CG        34.2290   30.2740   30.6760 C.3   101  LEU101      0.0019
    105  CD1       35.0850   29.2390   31.3970 C.3   101  LEU101      0.0001
    106  CD2       32.9080   30.5050   31.3910 C.3   101  LEU101      0.0001
    107  N         37.6040   36.7300   31.6890 N.3   103  THR103     -0.1203
    108  CA        38.1520   37.2120   32.9520 C.3   103  THR103      0.1994
    109  C         39.0800   38.3890   32.6870 C.2   103  THR103      0.2618
    110  O         39.4230   38.6700   31.5320 O.2   103  THR103     -0.2717
    111  CB        38.9790   36.1180   33.6560 C.3   103  THR103      0.1784
    112  OG1       40.1900   35.9100   32.9230 O.3   103  THR103     -0.2211
    113  CG2       38.1780   34.7840   33.7550 C.3   103  THR103      0.0376
    114  N         39.5030   39.0660   33.7520 N.am  104  HIS104     -0.1961
    115  CA        40.6440   39.9940   33.6550 C.3   104  HIS104      0.1787
    116  C         41.8220   39.2600   33.0530 C.2   104  HIS104      0.2620
    117  O         41.9970   38.0550   33.2910 O.2   104  HIS104     -0.2715
    118  CB        41.0570   40.4860   35.0380 C.3   104  HIS104      0.0785
    119  CG        40.1110   41.4710   35.6410 C.ar  104  HIS104      0.0821
    120  ND1       40.0820   42.7980   35.2650 N.ar  104  HIS104     -0.2267
    121  CD2       39.1900   41.3350   36.6240 C.ar  104  HIS104      0.1154
    122  CE1       39.1680   43.4320   35.9800 C.ar  104  HIS104      0.1986
    123  NE2       38.6150   42.5680   36.8140 N.ar  104  HIS104     -0.2212
    124  N         42.6330   39.9760   32.2790 N.am  105  LEU105     -0.1963
    125  CA        43.8330   39.3960   31.7020 C.3   105  LEU105      0.1728
    126  C         44.9550   39.4130   32.7270 C.2   105  LEU105      0.2616
    127  O         45.2920   40.4690   33.2720 O.2   105  LEU105     -0.2715
    128  CB        44.2720   40.1660   30.4470 C.3   105  LEU105      0.0311
    129  CG        45.5180   39.6030   29.7510 C.3   105  LEU105      0.0022
    130  CD1       45.2290   38.2710   29.0420 C.3   105  LEU105      0.0001
    131  CD2       46.1140   40.6050   28.7880 C.3   105  LEU105      0.0001
    132  N         45.5470   38.2490   32.9590 N.am  106  MET106     -0.1963
    133  CA        46.7000   38.1260   33.8550 C.3   106  MET106      0.1736
    134  C         47.9830   38.3860   33.0970 C.2   106  MET106      0.2617
    135  O         48.0840   38.0730   31.9050 O.2   106  MET106     -0.2715
    136  CB        46.7490   36.7160   34.4550 C.3   106  MET106      0.0427
    137  CG        45.4660   36.2690   35.1010 C.3   106  MET106      0.0599
    138  SD        45.0320   37.2430   36.5580 S.3   106  MET106     -0.1393
    139  CE        43.6840   38.2590   36.0050 C.3   106  MET106      0.0692
    140  N         48.9680   38.9600   33.7850 N.am  107  GLY107     -0.1955
    141  CA        50.3120   39.1380   33.2120 C.3   107  GLY107      0.1869
    142  C         51.2560   38.0250   33.6600 C.2   107  GLY107      0.2309
    143  O         51.1670   36.8780   33.1860 O.2   107  GLY107     -0.2863
    144  N         38.3190   30.1810   49.2640 N.3   138  ILE138     -0.1245
    145  CA        37.9970   29.0200   48.4360 C.3   138  ILE138      0.1561
    146  C         37.5680   27.8220   49.3230 C.2   138  ILE138      0.2260
    147  O         36.5570   27.1680   49.0550 O.2   138  ILE138     -0.2867
    148  CB        39.2170   28.6800   47.5290 C.3   138  ILE138      0.0252
    149  CG1       39.3500   29.7490   46.4360 C.3   138  ILE138      0.0019
    150  CG2       39.0810   27.3380   46.8620 C.3   138  ILE138      0.0019
    151  CD1       40.7740   29.8920   45.8760 C.3   138  ILE138      0.0001
    152  N         35.6070   24.2770   48.2270 N.3   143  ILE143     -0.1231
    153  CA        36.2620   24.0560   46.9460 C.3   143  ILE143      0.1692
    154  C         37.6980   23.7350   47.2810 C.2   143  ILE143      0.2592
    155  O         38.3290   24.4460   48.0770 O.2   143  ILE143     -0.2718
    156  CB        36.1630   25.2880   46.0030 C.3   143  ILE143      0.0266
    157  CG1       34.7160   25.4660   45.5240 C.3   143  ILE143      0.0019
    158  CG2       37.0970   25.0840   44.7810 C.3   143  ILE143      0.0020
    159  CD1       34.2870   26.9450   45.3100 C.3   143  ILE143      0.0001
    160  N         38.2000   22.6410   46.7160 N.am  144  ILE144     -0.1966
    161  CA        39.6230   22.3010   46.8310 C.3   144  ILE144      0.1727
    162  C         40.3030   22.6290   45.4860 C.2   144  ILE144      0.2616
    163  O         39.7990   22.2240   44.4290 O.2   144  ILE144     -0.2715
    164  CB        39.8090   20.8040   47.1550 C.3   144  ILE144      0.0290
    165  CG1       39.0020   20.4180   48.4100 C.3   144  ILE144      0.0022
    166  CG2       41.3070   20.4690   47.3440 C.3   144  ILE144      0.0023
    167  CD1       38.7900   18.9050   48.5320 C.3   144  ILE144      0.0001
    168  N         41.4240   23.3570   45.5270 N.am  145  HIS145     -0.1973
    169  CA        42.1550   23.6420   44.2760 C.3   145  HIS145      0.1656
    170  C         42.7480   22.3420   43.7020 C.2   145  HIS145      0.2291
    171  O         42.4780   21.9770   42.5530 O.2   145  HIS145     -0.2864
    172  CB        43.2540   24.7140   44.4530 C.3   145  HIS145      0.0771
    173  CG        43.7370   25.2740   43.1480 C.ar  145  HIS145      0.0820
    174  ND1       44.4880   24.5390   42.2490 N.ar  145  HIS145     -0.2267
    175  CD2       43.5140   26.4740   42.5570 C.ar  145  HIS145      0.1154
    176  CE1       44.7240   25.2720   41.1740 C.ar  145  HIS145      0.1986
    177  NE2       44.1280   26.4430   41.3260 N.ar  145  HIS145     -0.2212
    178  N         44.6460   33.6340   42.5920 N.3   162  ILE162     -0.1231
    179  CA        44.6370   32.1980   42.3750 C.3   162  ILE162      0.1692
    180  C         43.7320   31.8570   41.1890 C.2   162  ILE162      0.2592
    181  O         42.5590   32.2440   41.1460 O.2   162  ILE162     -0.2718
    182  CB        44.1320   31.4580   43.6150 C.3   162  ILE162      0.0266
    183  CG1       44.9780   31.8240   44.8660 C.3   162  ILE162      0.0019
    184  CG2       44.0500   29.9210   43.3060 C.3   162  ILE162      0.0020
    185  CD1       44.3710   31.3220   46.2190 C.3   162  ILE162      0.0001
    186  N         44.2820   31.1330   40.2210 N.am  163  LEU163     -0.1966
    187  CA        43.4750   30.5870   39.1490 C.3   163  LEU163      0.1728
    188  C         43.8180   29.1270   38.8140 C.2   163  LEU163      0.2616
    189  O         44.6230   28.5070   39.4970 O.2   163  LEU163     -0.2715
    190  CB        43.5430   31.4720   37.8990 C.3   163  LEU163      0.0311
    191  CG        44.7970   31.9010   37.1560 C.3   163  LEU163      0.0022
    192  CD1       44.2480   32.3750   35.8320 C.3   163  LEU163      0.0001
    193  CD2       45.5090   33.0630   37.8290 C.3   163  LEU163      0.0001
    194  N         43.1610   28.5760   37.8020 N.am  164  ASP164     -0.1957
    195  CA        43.5790   27.2800   37.2870 C.3   164  ASP164      0.1840
    196  C         43.6510   27.3480   35.7790 C.2   164  ASP164      0.2622
    197  O         42.6240   27.3600   35.0920 O.2   164  ASP164     -0.2715
    198  CB        42.6500   26.1510   37.7670 C.3   164  ASP164      0.1450
    199  CG        43.2240   24.7710   37.5140 C.2   164  ASP164      0.3671
    200  OD1       43.8850   24.5690   36.4690 O.co2 164  ASP164     -0.2456
    201  OD2       43.0140   23.8810   38.3710 O.co2 164  ASP164     -0.2456
    202  N         44.8790   27.4110   35.2620 N.am  165  PHE165     -0.1960
    203  CA        45.1020   27.4720   33.8050 C.3   165  PHE165      0.1771
    204  C         45.0680   26.0980   33.1630 C.2   165  PHE165      0.2620
    205  O         45.4250   25.9630   31.9930 O.2   165  PHE165     -0.2715
    206  CB        46.4870   28.0200   33.4720 C.3   165  PHE165      0.0574
    207  CG        46.6950   29.4510   33.8200 C.ar  165  PHE165     -0.0200
    208  CD1       46.0450   30.4580   33.1140 C.ar  165  PHE165     -0.0042
    209  CD2       47.5960   29.8020   34.8180 C.ar  165  PHE165     -0.0042
    210  CE1       46.2620   31.8040   33.4290 C.ar  165  PHE165     -0.0003
    211  CE2       47.8240   31.1400   35.1420 C.ar  165  PHE165     -0.0003
    212  CZ        47.1570   32.1430   34.4400 C.ar  165  PHE165     -0.0000
    213  N         44.7380   25.0690   33.9370 N.am  166  GLY166     -0.1940
    214  CA        44.6760   23.7050   33.4010 C.3   166  GLY166      0.2014
    215  C         43.8030   23.6690   32.1680 C.2   166  GLY166      0.2638
    216  O         42.6240   24.0370   32.2290 O.2   166  GLY166     -0.2714
    217  N         44.4050   23.2790   31.0430 N.am  167  LEU167     -0.1977
    218  CA        43.6970   23.1120   29.7780 C.3   167  LEU167      0.1596
    219  C         43.8930   21.6960   29.2600 C.2   167  LEU167      0.2287
    220  O         43.4870   21.3920   28.1420 O.2   167  LEU167     -0.2864
    221  CB        44.1570   24.1310   28.7140 C.3   167  LEU167      0.0297
    222  CG        43.9240   25.6440   28.8890 C.3   167  LEU167      0.0022
    223  CD1       44.4630   26.4310   27.6730 C.3   167  LEU167      0.0001
    224  CD2       42.4510   25.9990   29.1640 C.3   167  LEU167      0.0001
@<TRIPOS>BOND
     1     1     2    1
     2    15    14    2
     3     2     3    1
     4     2     5    1
     5    14    13    1
     6    11    10    2
     7     8     3   am
     8     8     9    1
     9    12    13    1
    10     6     5    1
    11    10     9    1
    12     3     4    2
    13    29    28    1
    14    13    16    1
    15     5     7    1
    16    28    30    1
    17    28    25    1
    18    27    26    2
    19    33    34    2
    20    33    32    1
    21    26    25    1
    22    26    31   am
    23    16    17    1
    24    16    18    1
    25    25    24    1
    26    32    31    1
    27    32    35    1
    28    24    21   am
    29   223   222    1
    30   220   219    2
    31    36    35    1
    32    36    37    1
    33    99   100    1
    34    21    20    1
    35    21    22    2
    36    20    19    1
    37    20    23    1
    38   221   222    1
    39   221   218    1
    40   131   129    1
    41   102   101    2
    42   222   224    1
    43   130   129    1
    44    37    38    1
    45   219   218    1
    46   101   100    1
    47   100   103    1
    48   129   128    1
    49   218   217    1
    50   128   125    1
    51   103   104    1
    52    38    39    1
    53   104   106    1
    54   104   105    1
    55   217   215   am
    56   110   109    2
    57   107   108    1
    58   125   124    1
    59   125   126    1
    60   135   134    2
    61   205   204    2
    62   215   216    2
    63   215   214    1
    64   124   116   am
    65    46    45    1
    66    46    47    1
    67    58    57   ar
    68   109   108    1
    69   109   114   am
    70   126   132   am
    71   126   127    2
    72   112   111    1
    73   108   111    1
    74   132   133    1
    75   116   117    2
    76   116   115    1
    77   134   140   am
    78   134   133    1
    79   208   210   ar
    80   208   207   ar
    81    44    45    1
    82    44    41    1
    83   204   203    1
    84   204   213   am
    85   143   142    2
    86    47    48    2
    87   141   142    1
    88   141   140    1
    89   214   213    1
    90   210   212   ar
    91    42    41    1
    92    42    43    2
    93    57    59   ar
    94    57    56    1
    95   206   203    1
    96   206   207    1
    97   115   114    1
    98   115   118    1
    99   111   113    1
   100    40    41    1
   101    49    48    1
   102   203   202    1
   103   207   209   ar
   104    48    50    1
   105   133   136    1
   106   212   211   ar
   107   136   137    1
   108    56    55    1
   109    55    52    1
   110   209   211   ar
   111    74    73    1
   112   118   119    1
   113   197   196    2
   114   137   138    1
   115   202   196   am
   116   120   119   ar
   117   120   122   ar
   118   119   121   ar
   119   196   195    1
   120   192   191    1
   121    53    52    1
   122    53    54    2
   123    52    51    1
   124   122   123   ar
   125   139   138    1
   126   200   199   ar
   127    73    72    1
   128    73    75    1
   129   121   123   ar
   130    98    96    1
   131    72    69    1
   132    96    95    1
   133   191   193    1
   134   191   190    1
   135   195   198    1
   136   195   194    1
   137   199   198    1
   138   199   201   ar
   139   194   188   am
   140   190   187    1
   141    69    70    1
   142    69    68    1
   143    95    97    1
   144    95    92    1
   145    70    71    2
   146    68    62   am
   147   188   187    1
   148   188   189    2
   149   187   186    1
   150    60    61    1
   151    92    93    1
   152    92    91    1
   153    93    94    2
   154    62    61    1
   155    62    63    2
   156    64    61    1
   157    64    65    1
   158    67    65    1
   159   186   180   am
   160    65    66    1
   161    91    86   am
   162   181   180    2
   163   176   177   ar
   164   176   174   ar
   165   180   179    1
   166   177   175   ar
   167    79    78    2
   168    87    86    2
   169    86    85    1
   170   174   173   ar
   171   179   178    1
   172   179   182    1
   173    80    81    1
   174    80    77    1
   175    81    82    1
   176    76    77    1
   177   171   170    2
   178   175   173   ar
   179    78    77    1
   180   173   172    1
   181   184   182    1
   182    85    84    1
   183    85    88    1
   184    89    88    1
   185   182   183    1
   186   170   169    1
   187    82    83    1
   188    88    90    1
   189   169   172    1
   190   169   168    1
   191   163   162    2
   192   158   156    1
   193   183   185    1
   194   159   157    1
   195   162   168   am
   196   162   161    1
   197   157   156    1
   198   151   149    1
   199   156   153    1
   200   149   148    1
   201   160   161    1
   202   160   154   am
   203   161   164    1
   204   150   148    1
   205   153   154    1
   206   153   152    1
   207   164   166    1
   208   164   165    1
   209   154   155    2
   210   148   145    1
   211   165   167    1
   212   145   144    1
   213   145   146    1
   214   147   146    2
