@<TRIPOS>MOLECULE
tmp/3e94A01.pdb
 159 151 0 0 0
SMALL
GASTEIGER

@<TRIPOS>ATOM
      1  N         -1.0670  -25.4510   35.6480 N.3    18  VAL18      -0.1245
      2  CA        -0.4660  -25.0300   34.3830 C.3    18  VAL18       0.1561
      3  C         -1.1030  -25.7860   33.2040 C.2    18  VAL18       0.2260
      4  O         -1.5230  -25.1730   32.2310 O.2    18  VAL18      -0.2867
      5  CB         1.0610  -25.1630   34.3940 C.3    18  VAL18       0.0252
      6  CG1        1.6170  -24.9880   32.9830 C.3    18  VAL18       0.0019
      7  CG2        1.6630  -24.1200   35.3290 C.3    18  VAL18       0.0019
      8  N         -4.7560  -24.4980   32.7780 N.3    21  ILE21      -0.1231
      9  CA        -4.7700  -23.1660   32.1680 C.3    21  ILE21       0.1692
     10  C         -4.4540  -23.2490   30.6690 C.2    21  ILE21       0.2592
     11  O         -5.1270  -22.6160   29.8620 O.2    21  ILE21      -0.2718
     12  CB        -3.8160  -22.1930   32.9090 C.3    21  ILE21       0.0266
     13  CG1       -4.4010  -21.8430   34.2900 C.3    21  ILE21       0.0019
     14  CG2       -3.5720  -20.9140   32.0610 C.3    21  ILE21       0.0020
     15  CD1       -3.4060  -21.2430   35.3080 C.3    21  ILE21       0.0001
     16  N         -3.4420  -24.0360   30.3060 N.am   22  CYS22      -0.1970
     17  CA        -3.0360  -24.1680   28.9110 C.3    22  CYS22       0.1712
     18  C         -4.1140  -24.8210   28.0580 C.2    22  CYS22       0.2296
     19  O         -4.3370  -24.4110   26.9220 O.2    22  CYS22      -0.2864
     20  CB        -1.7380  -24.9540   28.7910 C.3    22  CYS22       0.0983
     21  SG        -0.3390  -23.9620   29.3000 S.3    22  CYS22      -0.0798
     22  N         -6.8620  -22.3400   27.6100 N.3    25  ALA25      -0.1245
     23  CA        -6.4130  -21.3460   26.6270 C.3    25  ALA25       0.1562
     24  C         -6.6010  -21.8310   25.1830 C.2    25  ALA25       0.2260
     25  O         -7.0600  -21.0770   24.3070 O.2    25  ALA25      -0.2867
     26  CB        -4.9340  -20.9810   26.8700 C.3    25  ALA25       0.0290
     27  N         -3.9700  -12.1740   20.7670 N.3    58  TRP58      -0.1227
     28  CA        -4.6880  -13.2880   21.4010 C.3    58  TRP58       0.1737
     29  C         -4.4350  -13.4230   22.9060 C.2    58  TRP58       0.2595
     30  O         -5.3760  -13.6060   23.6650 O.2    58  TRP58      -0.2718
     31  CB        -4.4220  -14.6330   20.6980 C.3    58  TRP58       0.0564
     32  CG        -3.0130  -15.1220   20.8670 C.ar   58  TRP58       0.0003
     33  CD1       -1.9270  -14.7940   20.0910 C.ar   58  TRP58       0.0946
     34  CD2       -2.5300  -15.9940   21.8900 C.ar   58  TRP58       0.0152
     35  NE1       -0.7930  -15.4250   20.5760 N.ar   58  TRP58      -0.2442
     36  CE2       -1.1410  -16.1650   21.6770 C.ar   58  TRP58       0.0810
     37  CE3       -3.1410  -16.6590   22.9680 C.ar   58  TRP58       0.0012
     38  CZ2       -0.3450  -16.9780   22.5060 C.ar   58  TRP58       0.0191
     39  CZ3       -2.3550  -17.4560   23.7910 C.ar   58  TRP58       0.0001
     40  CH2       -0.9630  -17.6120   23.5490 C.ar   58  TRP58       0.0015
     41  N         -3.1790  -13.3400   23.3450 N.am   59  ASN59      -0.1974
     42  CA        -2.8670  -13.5710   24.7550 C.3    59  ASN59       0.1688
     43  C         -3.4130  -12.4950   25.6750 C.2    59  ASN59       0.2292
     44  O         -3.9890  -12.8200   26.7080 O.2    59  ASN59      -0.2864
     45  CB        -1.3700  -13.8450   25.0080 C.3    59  ASN59       0.1181
     46  CG        -0.4680  -12.8310   24.3520 C.2    59  ASN59       0.2629
     47  OD1       -0.5850  -12.5650   23.1620 O.2    59  ASN59      -0.2716
     48  ND2        0.4490  -12.2510   25.1300 N.am   59  ASN59      -0.0877
     49  N         -7.2780  -13.0390   25.6900 N.3    62  LEU62      -0.1231
     50  CA        -7.6980  -14.1050   26.5970 C.3    62  LEU62       0.1693
     51  C         -7.5120  -13.7400   28.0640 C.2    62  LEU62       0.2591
     52  O         -8.3370  -14.1050   28.9130 O.2    62  LEU62      -0.2718
     53  CB        -6.9690  -15.4190   26.2970 C.3    62  LEU62       0.0284
     54  CG        -7.2630  -16.1540   24.9740 C.3    62  LEU62       0.0019
     55  CD1       -6.7300  -17.5940   25.0820 C.3    62  LEU62       0.0001
     56  CD2       -8.7440  -16.1500   24.6070 C.3    62  LEU62       0.0001
     57  N         -6.4030  -13.0580   28.3640 N.am   63  ILE63      -0.1980
     58  CA        -6.1270  -12.6350   29.7340 C.3    63  ILE63       0.1595
     59  C         -7.1890  -11.6570   30.2430 C.2    63  ILE63       0.2287
     60  O         -7.6950  -11.8160   31.3650 O.2    63  ILE63      -0.2864
     61  CB        -4.7020  -12.0590   29.8850 C.3    63  ILE63       0.0276
     62  CG1       -3.6750  -13.1930   29.7670 C.3    63  ILE63       0.0022
     63  CG2       -4.5490  -11.3360   31.2300 C.3    63  ILE63       0.0022
     64  CD1       -2.2310  -12.6820   29.3970 C.3    63  ILE63       0.0001
     65  N        -10.5170  -13.8070   31.0110 N.3    66  PHE66      -0.1241
     66  CA       -10.5780  -14.5700   32.2460 C.3    66  PHE66       0.1605
     67  C        -10.4230  -13.7290   33.5010 C.2    66  PHE66       0.2264
     68  O        -10.9280  -14.0950   34.5590 O.2    66  PHE66      -0.2867
     69  CB        -9.7370  -15.8660   32.2350 C.3    66  PHE66       0.0534
     70  CG        -8.2390  -15.6710   32.2350 C.ar   66  PHE66      -0.0203
     71  CD1       -7.5920  -15.0250   33.2890 C.ar   66  PHE66      -0.0042
     72  CD2       -7.4720  -16.2290   31.2180 C.ar   66  PHE66      -0.0042
     73  CE1       -6.1880  -14.8810   33.2860 C.ar   66  PHE66      -0.0003
     74  CE2       -6.0700  -16.0990   31.2070 C.ar   66  PHE66      -0.0003
     75  CZ        -5.4390  -15.4290   32.2400 C.ar   66  PHE66      -0.0000
     76  N         -8.8270  -17.3920   39.8270 N.3    77  ILE77      -0.1245
     77  CA        -9.3780  -17.1850   38.4890 C.3    77  ILE77       0.1561
     78  C        -10.3220  -18.3070   38.1000 C.2    77  ILE77       0.2260
     79  O        -10.0990  -19.4740   38.4560 O.2    77  ILE77      -0.2867
     80  CB        -8.2910  -16.9540   37.3800 C.3    77  ILE77       0.0252
     81  CG1       -7.4210  -18.1920   37.1780 C.3    77  ILE77       0.0019
     82  CG2       -7.4570  -15.6610   37.6650 C.3    77  ILE77       0.0019
     83  CD1       -6.5250  -18.1420   35.9390 C.3    77  ILE77       0.0001
     84  N          4.2460  -20.8080   39.3670 N.3    95  VAL95      -0.1245
     85  CA         3.8120  -19.6420   38.5670 C.3    95  VAL95       0.1561
     86  C          3.0810  -18.5910   39.4190 C.2    95  VAL95       0.2260
     87  O          2.2020  -17.8790   38.9290 O.2    95  VAL95      -0.2867
     88  CB         2.9350  -20.0690   37.3600 C.3    95  VAL95       0.0252
     89  CG1        3.7710  -20.8780   36.3490 C.3    95  VAL95       0.0019
     90  CG2        1.7170  -20.9120   37.8230 C.3    95  VAL95       0.0019
     91  N          3.4210  -14.5300   38.2710 N.3    98  ILE98      -0.1231
     92  CA         2.5700  -14.0800   37.1670 C.3    98  ILE98       0.1692
     93  C          1.0840  -14.1270   37.5770 C.2    98  ILE98       0.2592
     94  O          0.2920  -13.2390   37.2070 O.2    98  ILE98      -0.2718
     95  CB         2.8460  -14.8060   35.8010 C.3    98  ILE98       0.0266
     96  CG1        2.0760  -14.0900   34.6680 C.3    98  ILE98       0.0019
     97  CG2        2.4990  -16.3420   35.8290 C.3    98  ILE98       0.0020
     98  CD1        2.3720  -14.6130   33.2910 C.3    98  ILE98       0.0001
     99  N          0.7260  -15.1480   38.3650 N.am   99  PHE99      -0.1976
    100  CA        -0.6590  -15.3140   38.8030 C.3    99  PHE99       0.1639
    101  C         -1.0590  -14.1180   39.6500 C.2    99  PHE99       0.2290
    102  O         -2.1330  -13.5330   39.4440 O.2    99  PHE99      -0.2864
    103  CB        -0.8400  -16.6180   39.5920 C.3    99  PHE99       0.0560
    104  CG        -2.2770  -17.0580   39.7080 C.ar   99  PHE99      -0.0200
    105  CD1       -2.8550  -17.8480   38.7160 C.ar   99  PHE99      -0.0042
    106  CD2       -3.0510  -16.6760   40.8110 C.ar   99  PHE99      -0.0042
    107  CE1       -4.1890  -18.2640   38.8170 C.ar   99  PHE99      -0.0003
    108  CE2       -4.3790  -17.0740   40.9230 C.ar   99  PHE99      -0.0003
    109  CZ        -4.9520  -17.8760   39.9200 C.ar   99  PHE99      -0.0000
    110  N         -1.7770  -10.9410   37.6690 N.3   102  VAL102     -0.1245
    111  CA        -3.1430  -11.0020   37.1210 C.3   102  VAL102      0.1561
    112  C         -4.1410  -10.5200   38.1900 C.2   102  VAL102      0.2260
    113  O         -4.9570   -9.6250   37.9430 O.2   102  VAL102     -0.2867
    114  CB        -3.5000  -12.4270   36.6300 C.3   102  VAL102      0.0252
    115  CG1       -4.9990  -12.5410   36.2960 C.3   102  VAL102      0.0019
    116  CG2       -2.6580  -12.7600   35.4060 C.3   102  VAL102      0.0019
    117  N          1.7400   -8.1380   31.3190 N.3   181  ILE181     -0.1245
    118  CA         1.3430   -9.4690   31.7640 C.3   181  ILE181      0.1561
    119  C          1.2340  -10.4110   30.5620 C.2   181  ILE181      0.2260
    120  O          1.6730  -11.5710   30.6280 O.2   181  ILE181     -0.2867
    121  CB         0.0080   -9.4090   32.5790 C.3   181  ILE181      0.0252
    122  CG1        0.2500   -8.6200   33.8830 C.3   181  ILE181      0.0019
    123  CG2       -0.5420  -10.8260   32.8460 C.3   181  ILE181      0.0019
    124  CD1       -0.9740   -8.4250   34.7830 C.3   181  ILE181      0.0001
    125  N          3.3490  -13.7960   30.1420 N.3   185  CYS185     -0.1235
    126  CA         2.6260  -15.0230   29.8390 C.3   185  CYS185      0.1677
    127  C          3.2790  -15.7660   28.6910 C.2   185  CYS185      0.2270
    128  O          3.5250  -16.9690   28.7950 O.2   185  CYS185     -0.2867
    129  CB         1.1310  -14.7220   29.5810 C.3   185  CYS185      0.0956
    130  SG         0.2590  -15.9350   28.5280 S.3   185  CYS185     -0.0801
    131  N          6.5400  -17.5100   29.7240 N.3   188  HIS188     -0.1226
    132  CA         6.2160  -18.7790   30.3800 C.3   188  HIS188      0.1752
    133  C          5.8340  -19.8470   29.3610 C.2   188  HIS188      0.2595
    134  O          6.3650  -20.9510   29.4010 O.2   188  HIS188     -0.2718
    135  CB         5.0610  -18.6170   31.3750 C.3   188  HIS188      0.0759
    136  CG         5.4480  -17.9280   32.6420 C.ar  188  HIS188      0.0818
    137  ND1        5.5060  -18.5830   33.8520 N.ar  188  HIS188     -0.2268
    138  CD2        5.7890  -16.6430   32.8920 C.ar  188  HIS188      0.1154
    139  CE1        5.8610  -17.7270   34.7960 C.ar  188  HIS188      0.1986
    140  NE2        6.0400  -16.5440   34.2400 N.ar  188  HIS188     -0.2212
    141  N          4.9050  -19.5310   28.4540 N.am  189  LEU189     -0.1980
    142  CA         4.4770  -20.5240   27.4530 C.3   189  LEU189      0.1596
    143  C          5.6330  -21.0550   26.6110 C.2   189  LEU189      0.2287
    144  O          5.7250  -22.2570   26.3830 O.2   189  LEU189     -0.2864
    145  CB         3.3720  -19.9730   26.5400 C.3   189  LEU189      0.0297
    146  CG         2.0450  -19.7020   27.2410 C.3   189  LEU189      0.0022
    147  CD1        1.1100  -18.9410   26.3110 C.3   189  LEU189      0.0001
    148  CD2        1.3930  -20.9970   27.7760 C.3   189  LEU189      0.0001
    149  N          7.4860  -23.5500   28.7710 N.3   192  PHE192     -0.1241
    150  CA         6.7640  -24.8220   28.9200 C.3   192  PHE192      0.1605
    151  C          6.9780  -25.6660   27.6780 C.2   192  PHE192      0.2264
    152  O          7.2110  -26.8750   27.7730 O.2   192  PHE192     -0.2867
    153  CB         5.2500  -24.6340   29.1310 C.3   192  PHE192      0.0534
    154  CG         4.8770  -23.7700   30.3100 C.ar  192  PHE192     -0.0203
    155  CD1        3.6620  -23.0850   30.3050 C.ar  192  PHE192     -0.0042
    156  CD2        5.7180  -23.6430   31.4240 C.ar  192  PHE192     -0.0042
    157  CE1        3.2940  -22.2700   31.3790 C.ar  192  PHE192     -0.0003
    158  CE2        5.3590  -22.8370   32.4980 C.ar  192  PHE192     -0.0003
    159  CZ         4.1460  -22.1430   32.4760 C.ar  192  PHE192     -0.0000
@<TRIPOS>BOND
     1    33    35   ar
     2    33    32   ar
     3    35    36   ar
     4    31    32    1
     5    31    28    1
     6    27    28    1
     7    32    34   ar
     8    28    29    1
     9    36    34   ar
    10    36    38   ar
    11    34    37   ar
    12    38    40   ar
    13    29    41   am
    14    29    30    2
    15    37    39   ar
    16    47    46    2
    17    41    42    1
    18    40    39   ar
    19    25    24    2
    20    46    45    1
    21    46    48   am
    22    56    54    1
    23    42    45    1
    24    42    43    1
    25    54    55    1
    26    54    53    1
    27    24    23    1
    28    43    44    2
    29    49    50    1
    30    53    50    1
    31   147   146    1
    32   144   143    2
    33   145   146    1
    34   145   142    1
    35    50    51    1
    36   143   142    1
    37    23    26    1
    38    23    22    1
    39    19    18    2
    40   146   148    1
    41   142   141    1
    42   151   152    2
    43   151   150    1
    44    18    17    1
    45    51    57   am
    46    51    52    2
    47    57    58    1
    48   141   133   am
    49   130   129    1
    50   127   128    2
    51   127   126    1
    52   149   150    1
    53    20    17    1
    54    20    21    1
    55    17    16    1
    56   150   153    1
    57   153   154    1
    58   133   134    2
    59   133   132    1
    60    64    62    1
    61   129   126    1
    62   131   132    1
    63    58    61    1
    64    58    59    1
    65    62    61    1
    66   126   125    1
    67    11    10    2
    68    61    63    1
    69    59    60    2
    70   155   154   ar
    71   155   157   ar
    72    16    10   am
    73   154   156   ar
    74   132   135    1
    75   119   120    2
    76   119   118    1
    77    10     9    1
    78    65    66    1
    79    74    72   ar
    80    74    75   ar
    81    72    70   ar
    82   117   118    1
    83   135   136    1
    84   157   159   ar
    85   156   158   ar
    86   118   121    1
    87    14    12    1
    88     9     8    1
    89     9    12    1
    90     4     3    2
    91    69    70    1
    92    69    66    1
    93    70    71   ar
    94    75    73   ar
    95    66    67    1
    96   159   158   ar
    97   121   123    1
    98   121   122    1
    99   136   138   ar
   100   136   137   ar
   101   138   140   ar
   102    12    13    1
   103     6     5    1
   104     3     2    1
   105    73    71   ar
   106    98    96    1
   107    67    68    2
   108   137   139   ar
   109   122   124    1
   110   140   139   ar
   111    13    15    1
   112     2     5    1
   113     2     1    1
   114     5     7    1
   115    96    95    1
   116   116   114    1
   117    95    97    1
   118    95    92    1
   119    83    81    1
   120   115   114    1
   121    89    88    1
   122   114   111    1
   123   111   110    1
   124   111   112    1
   125    92    93    1
   126    92    91    1
   127    81    80    1
   128    94    93    2
   129    88    90    1
   130    88    85    1
   131    80    82    1
   132    80    77    1
   133    93    99   am
   134   113   112    2
   135    78    79    2
   136    78    77    1
   137    99   100    1
   138    77    76    1
   139    85    84    1
   140    85    86    1
   141   105   107   ar
   142   105   104   ar
   143   100   103    1
   144   100   101    1
   145   107   109   ar
   146    87    86    2
   147   102   101    2
   148   103   104    1
   149   104   106   ar
   150   109   108   ar
   151   106   108   ar
