@<TRIPOS>MOLECULE
tmp/3e9jD00.pdb
 153 144 0 0 0
SMALL
GASTEIGER

@<TRIPOS>ATOM
      1  N        -44.6920   24.3490  -71.1130 N.3    12  LEU12      -0.1245
      2  CA       -45.3130   23.7370  -69.9290 C.3    12  LEU12       0.1561
      3  C        -44.3420   22.8020  -69.2020 C.2    12  LEU12       0.2260
      4  O        -44.3700   22.7020  -67.9740 O.2    12  LEU12      -0.2867
      5  CB       -46.5790   22.9820  -70.3280 C.3    12  LEU12       0.0270
      6  CG       -47.7370   23.8750  -70.7830 C.3    12  LEU12       0.0019
      7  CD1      -48.8340   23.0390  -71.4260 C.3    12  LEU12       0.0001
      8  CD2      -48.2910   24.7020  -69.6240 C.3    12  LEU12       0.0001
      9  N        -43.4690   24.4890  -65.6160 N.3    16  ALA16      -0.1245
     10  CA       -43.1300   23.6780  -64.4630 C.3    16  ALA16       0.1562
     11  C        -41.6930   24.0090  -64.0540 C.2    16  ALA16       0.2260
     12  O        -41.4770   24.6810  -63.0440 O.2    16  ALA16      -0.2867
     13  CB       -43.2740   22.2050  -64.7920 C.3    16  ALA16       0.0290
     14  N        -40.2370   25.7110  -60.9610 N.3    20  GLN20      -0.1245
     15  CA       -39.9840   24.6120  -60.0010 C.3    20  GLN20       0.1566
     16  C        -39.1110   25.0520  -58.8250 C.2    20  GLN20       0.2260
     17  O        -39.4000   24.7450  -57.6650 O.2    20  GLN20      -0.2867
     18  CB       -39.2670   23.4440  -60.6950 C.3    20  GLN20       0.0367
     19  CG       -40.1630   22.3340  -61.2310 C.3    20  GLN20       0.0905
     20  CD       -39.3920   21.3090  -62.0700 C.2    20  GLN20       0.2608
     21  OE1      -38.1560   21.2960  -62.0880 O.2    20  GLN20      -0.2717
     22  NE2      -40.1260   20.4520  -62.7750 N.am   20  GLN20      -0.0878
     23  N        -40.3990   28.6610  -57.3420 N.3    23  MET23      -0.1245
     24  CA       -41.4920   28.3740  -56.4010 C.3    23  MET23       0.1570
     25  C        -40.9330   27.7800  -55.0900 C.2    23  MET23       0.2261
     26  O        -41.6010   26.9720  -54.4270 O.2    23  MET23      -0.2867
     27  CB       -42.4920   27.3930  -57.0390 C.3    23  MET23       0.0387
     28  CG       -43.2180   27.9260  -58.2850 C.3    23  MET23       0.0595
     29  SD       -43.6120   26.6310  -59.4920 S.3    23  MET23      -0.1393
     30  CE       -44.7590   27.4830  -60.5800 C.3    23  MET23       0.0692
     31  N        -39.3860   25.2960  -53.0530 N.3    25  LEU25      -0.1231
     32  CA       -39.3570   23.8300  -53.2130 C.3    25  LEU25       0.1693
     33  C        -40.5480   23.1870  -52.4920 C.2    25  LEU25       0.2592
     34  O        -40.3900   22.5920  -51.4170 O.2    25  LEU25      -0.2718
     35  CB       -38.0290   23.2290  -52.7030 C.3    25  LEU25       0.0284
     36  CG       -37.1340   22.5340  -53.7380 C.3    25  LEU25       0.0019
     37  CD1      -35.7950   22.1310  -53.1250 C.3    25  LEU25       0.0001
     38  CD2      -37.8400   21.3160  -54.3250 C.3    25  LEU25       0.0001
     39  N        -41.7370   23.3160  -53.0840 N.am   26  LYS26      -0.1966
     40  CA       -42.9540   22.7290  -52.4980 C.3    26  LYS26       0.1713
     41  C        -42.8530   21.1830  -52.4410 C.2    26  LYS26       0.2458
     42  O        -42.1340   20.5720  -53.2460 O.2    26  LYS26      -0.2730
     43  CB       -44.2260   23.1670  -53.2590 C.3    26  LYS26       0.0311
     44  CG       -45.0340   24.3110  -52.6260 C.3    26  LYS26       0.0038
     45  CD       -46.4210   24.4310  -53.2870 C.3    26  LYS26       0.0206
     46  CE       -47.4050   25.2680  -52.4670 C.3    26  LYS26       0.1093
     47  NZ       -48.7780   25.2810  -53.0650 N.3    26  LYS26      -0.1314
     48  N        -43.5540   20.5530  -51.4740 N.am   27  PRO27      -0.2716
     49  CA       -43.5560   19.0960  -51.3120 C.3    27  PRO27       0.1536
     50  C        -44.5600   18.3840  -52.2250 C.2    27  PRO27       0.2598
     51  O        -45.7250   18.7860  -52.2840 O.2    27  PRO27      -0.2715
     52  CB       -43.9600   18.9210  -49.8480 C.3    27  PRO27       0.0310
     53  CG       -44.8090   20.1020  -49.5420 C.3    27  PRO27       0.0237
     54  CD       -44.3830   21.2200  -50.4490 C.3    27  PRO27       0.0939
     55  N        -44.1220   17.3270  -52.9090 N.am   28  CYS28      -0.1968
     56  CA       -44.9300   16.7280  -53.9800 C.3    28  CYS28       0.1712
     57  C        -44.5110   15.3220  -54.4330 C.2    28  CYS28       0.2296
     58  O        -43.3390   15.0870  -54.7390 O.2    28  CYS28      -0.2864
     59  CB       -44.8930   17.6450  -55.1960 C.3    28  CYS28       0.0983
     60  SG       -43.2260   18.1560  -55.7640 S.3    28  CYS28      -0.0798
     61  N        -47.1630   13.0640  -56.3990 N.3    30  LEU30      -0.1231
     62  CA       -47.9030   12.7850  -57.6270 C.3    30  LEU30       0.1693
     63  C        -47.3550   13.6080  -58.7840 C.2    30  LEU30       0.2592
     64  O        -47.6100   13.3030  -59.9410 O.2    30  LEU30      -0.2718
     65  CB       -49.3950   13.0740  -57.4610 C.3    30  LEU30       0.0284
     66  CG       -50.1000   12.4720  -56.2390 C.3    30  LEU30       0.0019
     67  CD1      -50.3900   13.5460  -55.1810 C.3    30  LEU30       0.0001
     68  CD2      -51.3930   11.7710  -56.6550 C.3    30  LEU30       0.0001
     69  N        -46.6030   14.6520  -58.4650 N.am   31  CYS31      -0.1970
     70  CA       -45.9630   15.4700  -59.4810 C.3    31  CYS31       0.1712
     71  C        -45.0630   14.6530  -60.3920 C.2    31  CYS31       0.2296
     72  O        -45.3620   14.5280  -61.5690 O.2    31  CYS31      -0.2864
     73  CB       -45.1750   16.5790  -58.8120 C.3    31  CYS31       0.0983
     74  SG       -46.1660   17.3590  -57.5790 S.3    31  CYS31      -0.0798
     75  N        -46.8210   12.4340  -62.4190 N.3    34  GLU34      -0.1231
     76  CA       -47.5070   13.2480  -63.4230 C.3    34  GLU34       0.1699
     77  C        -46.5350   13.8840  -64.4260 C.2    34  GLU34       0.2592
     78  O        -46.8640   14.0190  -65.6020 O.2    34  GLU34      -0.2718
     79  CB       -48.3620   14.3270  -62.7460 C.3    34  GLU34       0.0402
     80  CG       -49.6200   13.7820  -62.0750 C.3    34  GLU34       0.1161
     81  CD       -50.2350   14.7560  -61.0820 C.2    34  GLU34       0.3649
     82  OE1      -50.1520   15.9790  -61.2990 O.co2  34  GLU34      -0.2457
     83  OE2      -50.8190   14.3000  -60.0840 O.co2  34  GLU34      -0.2457
     84  N        -45.3460   14.2720  -63.9640 N.am   35  ARG35      -0.1980
     85  CA       -44.2930   14.7670  -64.8560 C.3    35  ARG35       0.1597
     86  C        -43.6900   13.6230  -65.6770 C.2    35  ARG35       0.2287
     87  O        -42.9270   13.8740  -66.5960 O.2    35  ARG35      -0.2864
     88  CB       -43.1850   15.4930  -64.0770 C.3    35  ARG35       0.0334
     89  CG       -43.6270   16.7710  -63.3390 C.3    35  ARG35       0.0492
     90  CD       -42.4240   17.6050  -62.8680 C.3    35  ARG35       0.2205
     91  NE       -42.5960   18.1740  -61.5230 N.pl3  35  ARG35      -0.0865
     92  CZ       -42.9990   19.4180  -61.2360 C.cat  35  ARG35       0.5346
     93  NH1      -43.3050   20.2890  -62.1940 N.pl3  35  ARG35       0.1354
     94  NH2      -43.1010   19.7970  -59.9630 N.pl3  35  ARG35       0.1354
     95  N        -46.1580   13.1830  -68.5390 N.3    38  LEU38      -0.1245
     96  CA       -45.7520   14.2000  -69.5210 C.3    38  LEU38       0.1561
     97  C        -44.4890   13.7440  -70.2270 C.2    38  LEU38       0.2260
     98  O        -44.5440   13.2430  -71.3410 O.2    38  LEU38      -0.2867
     99  CB       -45.4540   15.5590  -68.8610 C.3    38  LEU38       0.0270
    100  CG       -46.5420   16.6090  -68.6390 C.3    38  LEU38       0.0019
    101  CD1      -45.9100   17.8930  -68.0970 C.3    38  LEU38       0.0001
    102  CD2      -47.2970   16.8940  -69.9210 C.3    38  LEU38       0.0001
    103  N        -55.2760   12.6350  -57.7550 N.3    78  HIS78      -0.1241
    104  CA       -54.6050   13.7600  -57.0620 C.3    78  HIS78       0.1621
    105  C        -55.5890   14.8130  -56.5300 C.2    78  HIS78       0.2264
    106  O        -55.5770   15.1440  -55.3300 O.2    78  HIS78      -0.2867
    107  CB       -53.5940   14.4040  -58.0300 C.3    78  HIS78       0.0745
    108  CG       -53.0980   15.7650  -57.6280 C.ar   78  HIS78       0.0817
    109  ND1      -51.7640   16.0200  -57.3930 N.ar   78  HIS78      -0.2268
    110  CD2      -53.7350   16.9550  -57.4890 C.ar   78  HIS78       0.1154
    111  CE1      -51.6050   17.2970  -57.0960 C.ar   78  HIS78       0.1986
    112  NE2      -52.7860   17.8860  -57.1440 N.ar   78  HIS78      -0.2212
    113  N        -34.7230   19.4020  -59.4050 N.3   112  VAL112     -0.1245
    114  CA       -35.8900   20.2790  -59.2930 C.3   112  VAL112      0.1561
    115  C        -35.4950   21.6020  -58.5850 C.2   112  VAL112      0.2260
    116  O        -36.2660   22.5720  -58.5910 O.2   112  VAL112     -0.2867
    117  CB       -37.0610   19.5450  -58.5570 C.3   112  VAL112      0.0252
    118  CG1      -38.1120   20.5240  -58.0250 C.3   112  VAL112      0.0019
    119  CG2      -37.7090   18.5220  -59.4830 C.3   112  VAL112      0.0019
    120  N        -52.6520   25.8710  -58.4210 N.3   114  MET114     -0.1231
    121  CA       -51.8670   25.3040  -59.5200 C.3   114  MET114      0.1687
    122  C        -52.4300   23.9930  -60.0960 C.2   114  MET114      0.2434
    123  O        -52.5420   23.8640  -61.3190 O.2   114  MET114     -0.2733
    124  CB       -50.4090   25.0850  -59.0890 C.3   114  MET114      0.0400
    125  CG       -49.4940   24.5930  -60.2280 C.3   114  MET114      0.0596
    126  SD       -48.5750   23.0650  -59.8890 S.3   114  MET114     -0.1393
    127  CE       -49.8360   21.9650  -59.2430 C.3   114  MET114      0.0692
    128  N        -52.7610   23.0050  -59.2340 N.am  115  PRO115     -0.2729
    129  CA       -53.2490   21.7580  -59.8310 C.3   115  PRO115      0.1401
    130  C        -54.5020   22.0180  -60.6600 C.2   115  PRO115      0.2269
    131  O        -54.6820   21.4040  -61.7070 O.2   115  PRO115     -0.2865
    132  CB       -53.5430   20.8670  -58.6150 C.3   115  PRO115      0.0296
    133  CG       -53.6870   21.8050  -57.4680 C.3   115  PRO115      0.0237
    134  CD       -52.7520   22.9370  -57.7610 C.3   115  PRO115      0.0939
    135  N        -53.6300   21.7550  -64.0870 N.3   118  LEU118     -0.1245
    136  CA       -53.2080   20.3760  -64.3890 C.3   118  LEU118      0.1561
    137  C        -54.3920   19.4320  -64.6340 C.2   118  LEU118      0.2260
    138  O        -54.5070   18.8250  -65.7000 O.2   118  LEU118     -0.2867
    139  CB       -52.3530   19.8100  -63.2440 C.3   118  LEU118      0.0270
    140  CG       -51.0870   20.5610  -62.8070 C.3   118  LEU118      0.0019
    141  CD1      -50.5510   19.9600  -61.5100 C.3   118  LEU118      0.0001
    142  CD2      -50.0140   20.5540  -63.8980 C.3   118  LEU118      0.0001
    143  N        -54.6170   18.1790  -68.5660 N.3   122  PHE122     -0.1241
    144  CA       -54.2600   16.7740  -68.8290 C.3   122  PHE122      0.1605
    145  C        -55.3770   16.0040  -69.5410 C.2   122  PHE122      0.2264
    146  O        -55.1030   15.0780  -70.3120 O.2   122  PHE122     -0.2867
    147  CB       -53.8610   16.0420  -67.5400 C.3   122  PHE122      0.0534
    148  CG       -52.3850   16.0960  -67.2420 C.ar  122  PHE122     -0.0203
    149  CD1      -51.8590   17.1190  -66.4560 C.ar  122  PHE122     -0.0042
    150  CD2      -51.5200   15.1260  -67.7470 C.ar  122  PHE122     -0.0042
    151  CE1      -50.5000   17.1790  -66.1740 C.ar  122  PHE122     -0.0003
    152  CE2      -50.1580   15.1780  -67.4710 C.ar  122  PHE122     -0.0003
    153  CZ       -49.6490   16.2110  -66.6810 C.ar  122  PHE122     -0.0000
@<TRIPOS>BOND
     1     7     6    1
     2    98    97    2
     3     1     2    1
     4     6     5    1
     5     6     8    1
     6     5     2    1
     7   146   145    2
     8    97    96    1
     9     2     3    1
    10   102   100    1
    11   145   144    1
    12    96    99    1
    13    96    95    1
    14     3     4    2
    15    99   100    1
    16   144   143    1
    17   144   147    1
    18   100   101    1
    19   150   152   ar
    20   150   148   ar
    21   147   148    1
    22   152   153   ar
    23   148   149   ar
    24   153   151   ar
    25    87    86    2
    26   149   151   ar
    27   138   137    2
    28    86    85    1
    29     9    10    1
    30    78    77    2
    31    85    88    1
    32    85    84    1
    33    13    10    1
    34   137   136    1
    35    10    11    1
    36    77    84   am
    37    77    76    1
    38   136   135    1
    39   136   139    1
    40    88    89    1
    41    11    12    2
    42   142   140    1
    43    76    79    1
    44    76    75    1
    45    89    90    1
    46   139   140    1
    47    90    91    1
    48   140   141    1
    49    22    20   am
    50    79    80    1
    51    93    92    1
    52    21    20    2
    53    80    81    1
    54    20    19    1
    55   131   130    2
    56    72    71    2
    57    91    92    2
    58   123   122    2
    59    82    81   ar
    60    92    94    1
    61    19    18    1
    62    81    83   ar
    63    14    15    1
    64    18    15    1
    65   130   129    1
    66    30    29    1
    67    71    70    1
    68   125   126    1
    69   125   124    1
    70   122   121    1
    71   122   128   am
    72    15    16    1
    73    64    63    2
    74   126   127    1
    75   129   128    1
    76   129   132    1
    77   121   124    1
    78   121   120    1
    79    29    28    1
    80   119   117    1
    81    70    73    1
    82    70    69    1
    83   113   114    1
    84   114   115    1
    85   114   117    1
    86   128   134    1
    87    16    17    2
    88    73    74    1
    89    63    69   am
    90    63    62    1
    91   132   133    1
    92   116   115    2
    93   117   118    1
    94    28    27    1
    95   107   108    1
    96   107   104    1
    97   134   133    1
    98   103   104    1
    99   108   110   ar
   100   108   109   ar
   101    62    65    1
   102    62    61    1
   103   110   112   ar
   104    65    66    1
   105   109   111   ar
   106    23    24    1
   107   112   111   ar
   108   104   105    1
   109    27    24    1
   110    68    66    1
   111   105   106    2
   112    24    25    1
   113    66    67    1
   114    60    59    1
   115    59    56    1
   116    25    26    2
   117    58    57    2
   118    57    56    1
   119    38    36    1
   120    56    55    1
   121    36    37    1
   122    36    35    1
   123    45    44    1
   124    45    46    1
   125    43    44    1
   126    43    40    1
   127    42    41    2
   128    32    31    1
   129    32    35    1
   130    32    33    1
   131    39    40    1
   132    39    33   am
   133    47    46    1
   134    55    50   am
   135    40    41    1
   136    33    34    2
   137    41    48   am
   138    51    50    2
   139    50    49    1
   140    48    49    1
   141    48    54    1
   142    49    52    1
   143    54    53    1
   144    52    53    1
