@<TRIPOS>MOLECULE
tmp/3e9rB00.pdb
 75 71 0 0 0
SMALL
GASTEIGER

@<TRIPOS>ATOM
      1  N         15.0420   28.7420   46.9450 N.3   111  ALA111     -0.1231
      2  CA        14.0000   29.6730   46.5480 C.3   111  ALA111      0.1694
      3  C         13.6390   29.3090   45.1150 C.2   111  ALA111      0.2592
      4  O         14.5220   28.9920   44.3050 O.2   111  ALA111     -0.2718
      5  CB        14.5150   31.1080   46.6200 C.3   111  ALA111      0.0304
      6  N         12.3520   29.3500   44.7920 N.am  112  ALA112     -0.1966
      7  CA        11.9230   28.9480   43.4650 C.3   112  ALA112      0.1728
      8  C         10.7550   29.7810   42.9580 C.2   112  ALA112      0.2616
      9  O         10.0790   30.4600   43.7380 O.2   112  ALA112     -0.2715
     10  CB        11.5770   27.4730   43.4470 C.3   112  ALA112      0.0334
     11  N         10.5410   29.7400   41.6450 N.am  113  GLY113     -0.1955
     12  CA         9.3950   30.4070   41.0480 C.3   113  GLY113      0.1869
     13  C          8.1980   29.4730   41.0200 C.2   113  GLY113      0.2309
     14  O          8.3250   28.2890   40.7020 O.2   113  GLY113     -0.2863
     15  N         16.2420   34.0020   34.0810 N.3   195  TYR195     -0.1227
     16  CA        14.9210   33.5810   34.5130 C.3   195  TYR195      0.1736
     17  C         14.1560   33.0800   33.2930 C.2   195  TYR195      0.2595
     18  O         14.5520   33.3300   32.1570 O.2   195  TYR195     -0.2718
     19  CB        14.1770   34.7240   35.1970 C.3   195  TYR195      0.0548
     20  CG        14.7080   35.0180   36.5830 C.ar  195  TYR195     -0.0200
     21  CD1       15.2560   36.2600   36.8960 C.ar  195  TYR195     -0.0009
     22  CD2       14.6820   34.0470   37.5690 C.ar  195  TYR195     -0.0009
     23  CE1       15.7390   36.5200   38.1850 C.ar  195  TYR195      0.0417
     24  CE2       15.1620   34.2900   38.8450 C.ar  195  TYR195      0.0417
     25  CZ        15.6890   35.5210   39.1480 C.ar  195  TYR195      0.1957
     26  OH        16.1640   35.7420   40.4220 O.3   195  TYR195     -0.2866
     27  N         13.0740   32.3550   33.5260 N.am  196  GLU196     -0.1979
     28  CA        12.3840   31.6770   32.4370 C.3   196  GLU196      0.1602
     29  C         11.4680   32.6690   31.7310 C.2   196  GLU196      0.2287
     30  O         10.8600   33.5250   32.3860 O.2   196  GLU196     -0.2864
     31  CB        11.5940   30.4850   32.9780 C.3   196  GLU196      0.0415
     32  CG        12.4600   29.4270   33.7040 C.3   196  GLU196      0.1163
     33  CD        12.9560   29.8930   35.0600 C.2   196  GLU196      0.3649
     34  OE1       12.2930   30.7570   35.6810 O.co2 196  GLU196     -0.2457
     35  OE2       14.0120   29.4060   35.5120 O.co2 196  GLU196     -0.2457
     36  N         10.1020   26.0800   39.6550 N.3   212  VAL212     -0.1231
     37  CA        11.3250   26.0960   38.8630 C.3   212  VAL212      0.1692
     38  C         12.4340   26.8400   39.5870 C.2   212  VAL212      0.2593
     39  O         12.2060   27.8840   40.1900 O.2   212  VAL212     -0.2718
     40  CB        11.1010   26.7390   37.4810 C.3   212  VAL212      0.0266
     41  CG1       10.5350   28.1480   37.6320 C.3   212  VAL212      0.0020
     42  CG2       12.4120   26.7340   36.6740 C.3   212  VAL212      0.0020
     43  N         13.6360   26.2850   39.5290 N.am  213  GLY213     -0.1942
     44  CA        14.8050   26.9220   40.1090 C.3   213  GLY213      0.2014
     45  C         16.0380   26.4480   39.3790 C.2   213  GLY213      0.2638
     46  O         15.9110   25.7410   38.3770 O.2   213  GLY213     -0.2714
     47  N         17.2210   26.8220   39.8730 N.am  214  MET214     -0.1976
     48  CA        18.4730   26.5880   39.1440 C.3   214  MET214      0.1605
     49  C         19.4620   25.7250   39.9390 C.2   214  MET214      0.2287
     50  O         20.6560   25.6880   39.6370 O.2   214  MET214     -0.2864
     51  CB        19.1340   27.9370   38.8070 C.3   214  MET214      0.0413
     52  CG        18.2380   28.8930   38.0080 C.3   214  MET214      0.0598
     53  SD        18.9870   30.5170   37.7580 S.3   214  MET214     -0.1393
     54  CE        17.6260   31.3830   36.9710 C.3   214  MET214      0.0692
     55  N          9.2810   32.3500   46.1020 N.3   237  THR237     -0.1203
     56  CA         9.5900   33.7630   46.3230 C.3   237  THR237      0.1994
     57  C          9.0080   34.6500   45.2410 C.2   237  THR237      0.2617
     58  O          9.0550   35.8750   45.3480 O.2   237  THR237     -0.2717
     59  CB        11.0980   34.0160   46.3510 C.3   237  THR237      0.1784
     60  OG1       11.6880   33.4590   45.1720 O.3   237  THR237     -0.2211
     61  CG2       11.7230   33.3880   47.6000 C.3   237  THR237      0.0376
     62  N          8.4900   34.0280   44.1870 N.am  238  ASN238     -0.1974
     63  CA         7.8510   34.7620   43.1020 C.3   238  ASN238      0.1688
     64  C          6.9320   33.8450   42.2990 C.2   238  ASN238      0.2292
     65  O          7.1340   32.6320   42.2580 O.2   238  ASN238     -0.2864
     66  CB         8.9050   35.3880   42.1850 C.3   238  ASN238      0.1181
     67  CG         9.8580   34.3580   41.6070 C.2   238  ASN238      0.2629
     68  OD1        9.8720   34.1190   40.3980 O.2   238  ASN238     -0.2716
     69  ND2       10.6530   33.7240   42.4750 N.am  238  ASN238     -0.0877
     70  N          5.6250   32.8020   38.6610 N.3   240  SER240     -0.1217
     71  CA         6.0520   32.8650   37.2580 C.3   240  SER240      0.1889
     72  C          5.0050   33.4840   36.3560 C.2   240  SER240      0.2288
     73  O          3.8240   33.1680   36.4700 O.2   240  SER240     -0.2866
     74  CB         6.4000   31.4600   36.7360 C.3   240  SER240      0.2089
     75  OG         7.3590   30.8430   37.5760 O.3   240  SER240     -0.2183
@<TRIPOS>BOND
     1    29    30    2
     2    29    28    1
     3    18    17    2
     4    28    31    1
     5    28    27    1
     6    31    32    1
     7    17    27   am
     8    17    16    1
     9    32    33    1
    10    15    16    1
    11    16    19    1
    12    33    35   ar
    13    33    34   ar
    14    19    20    1
    15    72    73    2
    16    72    71    1
    17    20    21   ar
    18    20    22   ar
    19    42    40    1
    20    74    71    1
    21    74    75    1
    22    21    23   ar
    23    54    53    1
    24    71    70    1
    25    40    41    1
    26    40    37    1
    27    22    24   ar
    28    53    52    1
    29    52    51    1
    30    23    25   ar
    31    46    45    2
    32    51    48    1
    33    24    25   ar
    34    37    38    1
    35    37    36    1
    36    48    47    1
    37    48    49    1
    38    25    26    1
    39    45    47   am
    40    45    44    1
    41    43    38   am
    42    43    44    1
    43    38    39    2
    44    50    49    2
    45    68    67    2
    46    14    13    2
    47    13    12    1
    48    12    11    1
    49    67    66    1
    50    67    69   am
    51    11     8   am
    52    66    63    1
    53    65    64    2
    54    64    63    1
    55     8     7    1
    56     8     9    2
    57    63    62    1
    58    10     7    1
    59     7     6    1
    60    62    57   am
    61     4     3    2
    62     6     3   am
    63     3     2    1
    64    60    59    1
    65    57    58    2
    66    57    56    1
    67    55    56    1
    68    56    59    1
    69    59    61    1
    70     2     5    1
    71     2     1    1
