@<TRIPOS>MOLECULE
tmp/3e9sA00.pdb
 135 131 0 0 0
SMALL
GASTEIGER

@<TRIPOS>ATOM
      1  N        -16.4580   21.3800   23.6750 N.3   159  LYS159     -0.1245
      2  CA       -16.8380   20.4530   24.7230 C.3   159  LYS159      0.1561
      3  C        -15.9180   19.2560   24.5730 C.2   159  LYS159      0.2260
      4  O        -15.3370   19.0520   23.5140 O.2   159  LYS159     -0.2867
      5  CB       -18.2960   20.0060   24.5770 C.3   159  LYS159      0.0271
      6  CG       -19.3020   21.1300   24.6760 C.3   159  LYS159      0.0035
      7  CD       -20.6730   20.6170   25.0900 C.3   159  LYS159      0.0206
      8  CE       -20.7500   20.3740   26.5980 C.3   159  LYS159      0.1093
      9  NZ       -20.7090   21.6630   27.3530 N.3   159  LYS159     -0.1314
     10  N        -22.0380   15.9130   29.2920 N.3   164  LEU164     -0.1231
     11  CA       -23.3240   16.0550   28.6380 C.3   164  LEU164      0.1693
     12  C        -23.4810   17.5040   28.2060 C.2   164  LEU164      0.2593
     13  O        -23.1590   18.4320   28.9500 O.2   164  LEU164     -0.2718
     14  CB       -24.4750   15.6690   29.5750 C.3   164  LEU164      0.0284
     15  CG       -25.6060   14.8320   28.9430 C.3   164  LEU164      0.0019
     16  CD1      -26.8950   14.9550   29.7740 C.3   164  LEU164      0.0001
     17  CD2      -25.8660   15.3010   27.5260 C.3   164  LEU164      0.0001
     18  N        -23.9660   17.6920   26.9860 N.am  165  GLY165     -0.1942
     19  CA       -24.1590   19.0330   26.4810 C.3   165  GLY165      0.2014
     20  C        -25.6170   19.2990   26.1880 C.2   165  GLY165      0.2638
     21  O        -26.4550   18.3970   26.2490 O.2   165  GLY165     -0.2714
     22  N        -25.9210   20.5530   25.8860 N.am  166  ASP166     -0.1971
     23  CA       -27.2810   20.9380   25.5590 C.3   166  ASP166      0.1709
     24  C        -27.4140   20.9790   24.0220 C.2   166  ASP166      0.2293
     25  O        -26.6500   21.6680   23.3420 O.2   166  ASP166     -0.2864
     26  CB       -27.6000   22.3050   26.1990 C.3   166  ASP166      0.1436
     27  CG       -28.9220   22.8990   25.7050 C.2   166  ASP166      0.3671
     28  OD1      -28.9450   23.4680   24.5870 O.co2 166  ASP166     -0.2456
     29  OD2      -29.9390   22.7890   26.4290 O.co2 166  ASP166     -0.2456
     30  N        -29.7220   22.3440   21.9270 N.3   168  ARG168     -0.1231
     31  CA       -29.9760   23.6890   21.4130 C.3   168  ARG168      0.1694
     32  C        -28.6940   24.5070   21.3360 C.2   168  ARG168      0.2591
     33  O        -28.3510   25.0600   20.2950 O.2   168  ARG168     -0.2718
     34  CB       -30.9730   24.4100   22.3120 C.3   168  ARG168      0.0321
     35  CG       -31.3550   25.7910   21.8300 C.3   168  ARG168      0.0489
     36  CD       -32.4620   26.3340   22.7000 C.3   168  ARG168      0.2205
     37  NE       -31.9670   26.6270   24.0390 N.pl3 168  ARG168     -0.0865
     38  CZ       -31.5220   27.8220   24.4180 C.cat 168  ARG168      0.5346
     39  NH1      -31.5210   28.8400   23.5580 N.pl3 168  ARG168      0.1354
     40  NH2      -31.0580   27.9920   25.6490 N.pl3 168  ARG168      0.1354
     41  N        -27.9810   24.5840   22.4490 N.am  169  GLU169     -0.1979
     42  CA       -26.7470   25.3370   22.4700 C.3   169  GLU169      0.1602
     43  C        -25.7270   24.7740   21.4840 C.2   169  GLU169      0.2287
     44  O        -24.9770   25.5270   20.8690 O.2   169  GLU169     -0.2864
     45  CB       -26.1500   25.3450   23.8710 C.3   169  GLU169      0.0415
     46  CG       -24.6410   25.2590   23.8300 C.3   169  GLU169      0.1163
     47  CD       -23.9820   25.7860   25.0680 C.2   169  GLU169      0.3649
     48  OE1      -24.2270   25.2150   26.1590 O.co2 169  GLU169     -0.2457
     49  OE2      -23.2180   26.7720   24.9380 O.co2 169  GLU169     -0.2457
     50  N        -36.4740   30.5190   21.5150 N.3   210  MET210     -0.1245
     51  CA       -36.5590   29.9230   22.8440 C.3   210  MET210      0.1570
     52  C        -37.7450   30.5270   23.6010 C.2   210  MET210      0.2261
     53  O        -37.8110   31.7360   23.7970 O.2   210  MET210     -0.2867
     54  CB       -35.2540   30.1560   23.6240 C.3   210  MET210      0.0387
     55  CG       -35.2660   29.5910   25.0460 C.3   210  MET210      0.0595
     56  SD       -35.6170   27.8090   25.1060 S.3   210  MET210     -0.1393
     57  CE       -34.3150   27.2180   26.1320 C.3   210  MET210      0.0692
     58  N        -38.1000   24.8610   27.7860 N.3   249  PRO249     -0.2103
     59  CA       -37.8130   23.8960   28.8570 C.3   249  PRO249      0.1489
     60  C        -38.7100   22.6650   28.7330 C.2   249  PRO249      0.2417
     61  O        -39.9020   22.7890   28.4730 O.2   249  PRO249     -0.2734
     62  CB       -38.1030   24.6910   30.1240 C.3   249  PRO249      0.0282
     63  CG       -37.7090   26.0950   29.7330 C.3   249  PRO249      0.0208
     64  CD       -38.2880   26.2210   28.3280 C.3   249  PRO249      0.0893
     65  N        -38.1510   21.4610   28.9460 N.am  250  PRO250     -0.2729
     66  CA       -38.9390   20.2260   28.8420 C.3   250  PRO250      0.1401
     67  C        -40.3190   20.3850   29.4710 C.2   250  PRO250      0.2269
     68  O        -40.4580   21.0280   30.5110 O.2   250  PRO250     -0.2865
     69  CB       -38.0900   19.2020   29.5950 C.3   250  PRO250      0.0296
     70  CG       -36.6920   19.7360   29.4690 C.3   250  PRO250      0.0237
     71  CD       -36.8780   21.2160   29.6480 C.3   250  PRO250      0.0939
     72  N        -36.3920   15.4340   26.6790 N.3   266  TYR266     -0.1241
     73  CA       -35.3650   15.4160   27.7040 C.3   266  TYR266      0.1605
     74  C        -35.9890   15.0680   29.0540 C.2   266  TYR266      0.2264
     75  O        -36.9000   15.7370   29.5310 O.2   266  TYR266     -0.2867
     76  CB       -34.6720   16.7810   27.7620 C.3   266  TYR266      0.0534
     77  CG       -33.5640   16.8780   28.7880 C.ar  266  TYR266     -0.0201
     78  CD1      -33.8460   17.1300   30.1380 C.ar  266  TYR266     -0.0009
     79  CD2      -32.2250   16.7280   28.4070 C.ar  266  TYR266     -0.0009
     80  CE1      -32.8210   17.2360   31.0830 C.ar  266  TYR266      0.0417
     81  CE2      -31.1940   16.8290   29.3390 C.ar  266  TYR266      0.0417
     82  CZ       -31.4940   17.0860   30.6740 C.ar  266  TYR266      0.1957
     83  OH       -30.4650   17.2180   31.5780 O.3   266  TYR266     -0.2866
     84  N        -35.2130   14.0250   33.1970 N.3   268  GLY268     -0.1210
     85  CA       -34.2020   14.2560   34.2120 C.3   268  GLY268      0.1956
     86  C        -33.9700   15.7150   34.5600 C.2   268  GLY268      0.2612
     87  O        -34.6500   16.6140   34.0610 O.2   268  GLY268     -0.2717
     88  N        -32.9800   15.9460   35.4110 N.am  269  ASN269     -0.1960
     89  CA       -32.6500   17.2810   35.8770 C.3   269  ASN269      0.1819
     90  C        -31.6810   18.0780   35.0270 C.2   269  ASN269      0.2621
     91  O        -30.8590   17.5370   34.2890 O.2   269  ASN269     -0.2715
     92  CB       -32.0980   17.2090   37.3050 C.3   269  ASN269      0.1195
     93  CG       -33.1790   16.9580   38.3350 C.2   269  ASN269      0.2630
     94  OD1      -32.8840   16.6420   39.4900 O.2   269  ASN269     -0.2716
     95  ND2      -34.4410   17.1080   37.9290 N.am  269  ASN269     -0.0877
     96  N        -31.7850   19.3880   35.1710 N.am  270  TYR270     -0.1960
     97  CA       -30.9380   20.3030   34.4530 C.3   270  TYR270      0.1771
     98  C        -29.4840   19.8180   34.4130 C.2   270  TYR270      0.2619
     99  O        -28.8960   19.4850   35.4480 O.2   270  TYR270     -0.2715
    100  CB       -31.0000   21.6640   35.1240 C.3   270  TYR270      0.0574
    101  CG       -30.3460   22.7430   34.3230 C.ar  270  TYR270     -0.0198
    102  CD1      -30.8780   23.1380   33.0940 C.ar  270  TYR270     -0.0009
    103  CD2      -29.2040   23.3910   34.7940 C.ar  270  TYR270     -0.0009
    104  CE1      -30.2940   24.1570   32.3560 C.ar  270  TYR270      0.0417
    105  CE2      -28.6070   24.4180   34.0610 C.ar  270  TYR270      0.0417
    106  CZ       -29.1600   24.7950   32.8460 C.ar  270  TYR270      0.1957
    107  OH       -28.5910   25.8150   32.1240 O.3   270  TYR270     -0.2866
    108  N        -28.9200   19.7700   33.2100 N.am  271  GLN271     -0.1977
    109  CA       -27.5350   19.3650   33.0140 C.3   271  GLN271      0.1601
    110  C        -27.1430   17.9550   33.4010 C.2   271  GLN271      0.2287
    111  O        -25.9550   17.6640   33.4950 O.2   271  GLN271     -0.2864
    112  CB       -26.5970   20.3310   33.7320 C.3   271  GLN271      0.0394
    113  CG       -26.5200   21.6810   33.0760 C.3   271  GLN271      0.0908
    114  CD       -25.6270   22.6490   33.8180 C.2   271  GLN271      0.2608
    115  OE1      -25.3890   23.7620   33.3530 O.2   271  GLN271     -0.2717
    116  NE2      -25.1320   22.2370   34.9790 N.am  271  GLN271     -0.0878
    117  N        -31.3960   12.6880   26.7040 N.3   275  TYR275     -0.1241
    118  CA       -32.0880   13.1090   25.4920 C.3   275  TYR275      0.1605
    119  C        -32.4590   11.9000   24.6530 C.2   275  TYR275      0.2264
    120  O        -31.8200   10.8570   24.7430 O.2   275  TYR275     -0.2867
    121  CB       -31.2020   13.9810   24.6000 C.3   275  TYR275      0.0534
    122  CG       -31.0810   15.4590   24.9200 C.ar  275  TYR275     -0.0201
    123  CD1      -29.9400   15.9570   25.5450 C.ar  275  TYR275     -0.0009
    124  CD2      -32.0450   16.3780   24.4790 C.ar  275  TYR275     -0.0009
    125  CE1      -29.7410   17.3310   25.7180 C.ar  275  TYR275      0.0417
    126  CE2      -31.8570   17.7520   24.6460 C.ar  275  TYR275      0.0417
    127  CZ       -30.6920   18.2200   25.2670 C.ar  275  TYR275      0.1957
    128  OH       -30.4570   19.5780   25.4130 O.3   275  TYR275     -0.2866
    129  N        -38.3520   19.5800   24.4430 N.3   303  THR303     -0.1218
    130  CA       -37.5960   20.8340   24.5360 C.3   303  THR303      0.1862
    131  C        -37.3310   21.4410   23.1720 C.2   303  THR303      0.2287
    132  O        -37.1070   22.6420   23.0560 O.2   303  THR303     -0.2866
    133  CB       -36.1980   20.6780   25.1760 C.3   303  THR303      0.1770
    134  OG1      -35.6280   19.4080   24.8320 O.3   303  THR303     -0.2211
    135  CG2      -36.2760   20.8340   26.6310 C.3   303  THR303      0.0375
@<TRIPOS>BOND
     1    33    32    2
     2    44    43    2
     3    32    31    1
     4    32    41   am
     5    31    30    1
     6    31    34    1
     7    43    42    1
     8    50    51    1
     9    35    34    1
    10    35    36    1
    11    41    42    1
    12    42    45    1
    13    36    37    1
    14    51    52    1
    15    51    54    1
    16   132   131    2
    17   131   130    1
    18    25    24    2
    19     4     3    2
    20    39    38    1
    21    52    53    2
    22    54    55    1
    23     1     2    1
    24    46    45    1
    25    46    47    1
    26    24    23    1
    27    37    38    2
    28    38    40    1
    29   129   130    1
    30   124   126   ar
    31   124   122   ar
    32   130   133    1
    33     3     2    1
    34     5     6    1
    35     5     2    1
    36    28    27   ar
    37   121   122    1
    38   121   118    1
    39   126   127   ar
    40   119   120    2
    41   119   118    1
    42     6     7    1
    43   134   133    1
    44   122   123   ar
    45    49    47   ar
    46    55    56    1
    47    47    48   ar
    48     7     8    1
    49    56    57    1
    50   133   135    1
    51   127   128    1
    52   127   125   ar
    53   118   117    1
    54   123   125   ar
    55    23    22    1
    56    23    26    1
    57    27    26    1
    58    27    29   ar
    59    22    20   am
    60    20    21    2
    61    20    19    1
    62    19    18    1
    63     8     9    1
    64    72    73    1
    65    18    12   am
    66    17    15    1
    67    73    76    1
    68    73    74    1
    69    76    77    1
    70    58    64    1
    71    58    59    1
    72    12    11    1
    73    12    13    2
    74    64    63    1
    75    79    77   ar
    76    79    81   ar
    77    61    60    2
    78    11    10    1
    79    11    14    1
    80    60    59    1
    81    60    65   am
    82    77    78   ar
    83    66    65    1
    84    66    67    1
    85    66    69    1
    86    59    62    1
    87    15    14    1
    88    15    16    1
    89    65    71    1
    90    74    75    2
    91    81    82   ar
    92    70    69    1
    93    70    71    1
    94    67    68    2
    95    63    62    1
    96    78    80   ar
    97    82    80   ar
    98    82    83    1
    99   107   106    1
   100   104   106   ar
   101   104   102   ar
   102   106   105   ar
   103   109   108    1
   104   109   110    1
   105   109   112    1
   106   113   112    1
   107   113   114    1
   108   102   101   ar
   109    84    85    1
   110   108    98   am
   111   115   114    2
   112   110   111    2
   113   114   116   am
   114   105   103   ar
   115    87    86    2
   116    85    86    1
   117    91    90    2
   118   101   103   ar
   119   101   100    1
   120    98    97    1
   121    98    99    2
   122    97   100    1
   123    97    96    1
   124    86    88   am
   125    90    96   am
   126    90    89    1
   127    88    89    1
   128    89    92    1
   129    92    93    1
   130    95    93   am
   131    93    94    2
