@<TRIPOS>MOLECULE
tmp/3e9zA00.pdb
 97 91 0 0 0
SMALL
GASTEIGER

@<TRIPOS>ATOM
      1  N        -18.3530   -1.4410  -24.7240 N.3   111  ALA111     -0.1231
      2  CA       -17.3530   -1.6990  -25.7400 C.3   111  ALA111      0.1694
      3  C        -16.6030   -0.4070  -25.9400 C.2   111  ALA111      0.2592
      4  O        -17.1900    0.6820  -25.9130 O.2   111  ALA111     -0.2718
      5  CB       -18.0040   -2.1290  -27.0500 C.3   111  ALA111      0.0304
      6  N        -15.3040   -0.5010  -26.1500 N.am  112  ALA112     -0.1966
      7  CA       -14.5540    0.7210  -26.3600 C.3   112  ALA112      0.1728
      8  C        -13.4170    0.5020  -27.3440 C.2   112  ALA112      0.2616
      9  O        -12.9540   -0.6280  -27.5520 O.2   112  ALA112     -0.2715
     10  CB       -14.0440    1.2710  -25.0260 C.3   112  ALA112      0.0334
     11  N        -12.9860    1.5890  -27.9640 N.am  113  GLY113     -0.1955
     12  CA       -11.8390    1.5380  -28.8350 C.3   113  GLY113      0.1869
     13  C        -10.6170    1.7000  -27.9700 C.2   113  GLY113      0.2309
     14  O        -10.5760    2.5690  -27.1070 O.2   113  GLY113     -0.2863
     15  N        -16.9290    9.7110  -26.5360 N.3   190  ASN190     -0.1240
     16  CA       -17.3190   10.3550  -27.7690 C.3   190  ASN190      0.1653
     17  C        -18.8280   10.1850  -27.8890 C.2   190  ASN190      0.2266
     18  O        -19.3500    9.0750  -27.8050 O.2   190  ASN190     -0.2867
     19  CB       -16.5890    9.7350  -28.9600 C.3   190  ASN190      0.1155
     20  CG       -17.2930    9.9940  -30.2720 C.2   190  ASN190      0.2627
     21  OD1      -18.0060   10.9730  -30.4190 O.2   190  ASN190     -0.2716
     22  ND2      -17.0860    9.1110  -31.2410 N.am  190  ASN190     -0.0877
     23  N        -17.6540    6.3970  -35.3210 N.3   195  TYR195     -0.1227
     24  CA       -16.3610    6.0260  -34.7740 C.3   195  TYR195      0.1736
     25  C        -15.4200    7.2220  -34.8940 C.2   195  TYR195      0.2595
     26  O        -15.6480    8.1290  -35.6930 O.2   195  TYR195     -0.2718
     27  CB       -15.7970    4.8150  -35.5110 C.3   195  TYR195      0.0548
     28  CG       -16.4790    3.5580  -35.0990 C.ar  195  TYR195     -0.0200
     29  CD1      -17.3010    2.8680  -35.9790 C.ar  195  TYR195     -0.0009
     30  CD2      -16.3330    3.0690  -33.8070 C.ar  195  TYR195     -0.0009
     31  CE1      -17.9320    1.7050  -35.5820 C.ar  195  TYR195      0.0417
     32  CE2      -16.9530    1.9150  -33.4080 C.ar  195  TYR195      0.0417
     33  CZ       -17.7560    1.2370  -34.2940 C.ar  195  TYR195      0.1957
     34  OH       -18.3800    0.0870  -33.8800 O.3   195  TYR195     -0.2866
     35  N        -14.3780    7.2360  -34.0840 N.am  196  GLU196     -0.1979
     36  CA       -13.4530    8.3550  -34.0820 C.3   196  GLU196      0.1602
     37  C        -12.5150    8.3180  -35.2900 C.2   196  GLU196      0.2287
     38  O        -11.9990    7.2720  -35.6740 O.2   196  GLU196     -0.2864
     39  CB       -12.6490    8.3850  -32.7770 C.3   196  GLU196      0.0415
     40  CG       -13.5180    8.4320  -31.5300 C.3   196  GLU196      0.1163
     41  CD       -14.2040    7.1320  -31.2440 C.2   196  GLU196      0.3649
     42  OE1      -13.6840    6.0770  -31.6500 O.co2 196  GLU196     -0.2457
     43  OE2      -15.2610    7.1790  -30.6040 O.co2 196  GLU196     -0.2457
     44  N        -11.9320    4.7680  -25.7280 N.3   212  VAL212     -0.1231
     45  CA       -12.9890    5.6890  -26.1320 C.3   212  VAL212      0.1692
     46  C        -14.2760    4.9380  -26.4650 C.2   212  VAL212      0.2593
     47  O        -14.2450    3.9160  -27.1450 O.2   212  VAL212     -0.2718
     48  CB       -12.5390    6.5520  -27.3450 C.3   212  VAL212      0.0266
     49  CG1      -12.0250    5.6610  -28.4730 C.3   212  VAL212      0.0020
     50  CG2      -13.6750    7.4440  -27.8360 C.3   212  VAL212      0.0020
     51  N        -15.4050    5.4540  -25.9910 N.am  213  GLY213     -0.1942
     52  CA       -16.6930    4.8470  -26.2670 C.3   213  GLY213      0.2014
     53  C        -17.7860    5.8970  -26.2890 C.2   213  GLY213      0.2638
     54  O        -17.5220    7.0870  -26.1250 O.2   213  GLY213     -0.2714
     55  N        -19.0250    5.4560  -26.4660 N.am  214  MET214     -0.1976
     56  CA       -20.1360    6.3730  -26.6320 C.3   214  MET214      0.1605
     57  C        -21.1530    6.2130  -25.5300 C.2   214  MET214      0.2287
     58  O        -22.2950    6.6340  -25.6780 O.2   214  MET214     -0.2864
     59  CB       -20.8060    6.0990  -27.9720 C.3   214  MET214      0.0413
     60  CG       -19.8020    5.8810  -29.0950 C.3   214  MET214      0.0598
     61  SD       -20.5590    5.5610  -30.6900 S.3   214  MET214     -0.1393
     62  CE       -19.1080    5.4110  -31.7310 C.3   214  MET214      0.0692
     63  N        -12.8590   -3.6100  -27.8820 N.3   237  THR237     -0.1203
     64  CA       -13.4790   -4.3490  -28.9760 C.3   237  THR237      0.1994
     65  C        -12.8500   -4.0110  -30.3120 C.2   237  THR237      0.2617
     66  O        -13.1340   -4.6390  -31.3210 O.2   237  THR237     -0.2717
     67  CB       -14.9450   -4.0330  -29.0640 C.3   237  THR237      0.1784
     68  OG1      -15.0950   -2.6180  -29.0000 O.3   237  THR237     -0.2211
     69  CG2      -15.6900   -4.6800  -27.9120 C.3   237  THR237      0.0376
     70  N        -11.9950   -3.0050  -30.3080 N.am  238  ASN238     -0.1974
     71  CA       -11.2210   -2.6510  -31.4830 C.3   238  ASN238      0.1688
     72  C        -10.0700   -1.7560  -31.0540 C.2   238  ASN238      0.2292
     73  O        -10.1570   -1.0370  -30.0650 O.2   238  ASN238     -0.2864
     74  CB       -12.0720   -1.9150  -32.5010 C.3   238  ASN238      0.1181
     75  CG       -12.6160   -0.6070  -31.9540 C.2   238  ASN238      0.2629
     76  OD1      -12.1270    0.4740  -32.2900 O.2   238  ASN238     -0.2716
     77  ND2      -13.6100   -0.7030  -31.0860 N.am  238  ASN238     -0.0877
     78  N         -7.9540    1.4310  -31.8150 N.3   240  SER240     -0.1217
     79  CA        -8.2120    2.6530  -32.5390 C.3   240  SER240      0.1889
     80  C         -7.1320    2.8660  -33.5660 C.2   240  SER240      0.2288
     81  O         -5.9440    2.7350  -33.2650 O.2   240  SER240     -0.2866
     82  CB        -8.2390    3.8400  -31.5810 C.3   240  SER240      0.2089
     83  OG        -9.1980    3.6280  -30.5640 O.3   240  SER240     -0.2183
     84  N        -12.2280    0.6070  -37.9180 N.3   250  PRO250     -0.2116
     85  CA       -13.2200    0.0330  -37.0060 C.3   250  PRO250      0.1372
     86  C        -14.3290   -0.6360  -37.7990 C.2   250  PRO250      0.2244
     87  O        -14.8840   -0.0640  -38.7410 O.2   250  PRO250     -0.2868
     88  CB       -13.8030    1.2580  -36.2870 C.3   250  PRO250      0.0268
     89  CG       -12.9940    2.4260  -36.7220 C.3   250  PRO250      0.0207
     90  CD       -12.3610    2.0670  -38.0110 C.3   250  PRO250      0.0892
     91  N        -16.3700   -5.3350  -33.6080 N.3   255  VAL255     -0.1245
     92  CA       -16.6270   -4.8650  -32.2560 C.3   255  VAL255      0.1561
     93  C        -17.5780   -5.8250  -31.5600 C.2   255  VAL255      0.2260
     94  O        -17.2830   -6.3200  -30.4700 O.2   255  VAL255     -0.2867
     95  CB       -17.2140   -3.4360  -32.2440 C.3   255  VAL255      0.0252
     96  CG1      -17.8240   -3.1140  -30.8820 C.3   255  VAL255      0.0019
     97  CG2      -16.1290   -2.4450  -32.5960 C.3   255  VAL255      0.0019
@<TRIPOS>BOND
     1    87    86    2
     2    90    84    1
     3    90    89    1
     4    84    85    1
     5    86    85    1
     6    85    88    1
     7    89    88    1
     8    29    31   ar
     9    29    28   ar
    10    26    25    2
    11    38    37    2
    12    31    33   ar
    13    27    28    1
    14    27    24    1
    15    23    24    1
    16    37    36    1
    17    28    30   ar
    18    25    24    1
    19    25    35   am
    20    33    34    1
    21    33    32   ar
    22    35    36    1
    23    36    39    1
    24    30    32   ar
    25    91    92    1
    26    80    81    2
    27    80    79    1
    28    39    40    1
    29    97    95    1
    30    79    78    1
    31    79    82    1
    32    74    75    1
    33    74    71    1
    34    76    75    2
    35    92    95    1
    36    92    93    1
    37    95    96    1
    38    75    77   am
    39    62    61    1
    40    42    41   ar
    41    82    83    1
    42    93    94    2
    43    40    41    1
    44    71    72    1
    45    71    70    1
    46    66    65    2
    47    41    43   ar
    48    22    20   am
    49    72    73    2
    50    61    60    1
    51    21    20    2
    52    65    70   am
    53    65    64    1
    54    20    19    1
    55    60    59    1
    56    67    68    1
    57    67    64    1
    58    67    69    1
    59    64    63    1
    60    19    16    1
    61    12    13    1
    62    12    11    1
    63    49    48    1
    64    59    56    1
    65    13    14    2
    66    11     8   am
    67    17    18    2
    68    17    16    1
    69    50    48    1
    70    16    15    1
    71     9     8    2
    72    48    45    1
    73     8     7    1
    74    47    46    2
    75     5     2    1
    76    56    55    1
    77    56    57    1
    78    55    53   am
    79    46    45    1
    80    46    51   am
    81     7     6    1
    82     7    10    1
    83    53    52    1
    84    53    54    2
    85    52    51    1
    86     6     3   am
    87    45    44    1
    88     3     4    2
    89     3     2    1
    90     2     1    1
    91    58    57    2
