@<TRIPOS>MOLECULE
tmp/3ea2B00.pdb
 124 118 0 0 0
SMALL
GASTEIGER

@<TRIPOS>ATOM
      1  N         16.8660   21.5710   40.3090 N.3    32  HIS32      -0.1226
      2  CA        17.9720   20.9670   41.0520 C.3    32  HIS32       0.1752
      3  C         19.0740   20.5520   40.0620 C.2    32  HIS32       0.2596
      4  O         18.7780   20.0000   39.0030 O.2    32  HIS32      -0.2718
      5  CB        17.4380   19.7670   41.8460 C.3    32  HIS32       0.0759
      6  CG        18.5010   18.8680   42.3930 C.ar   32  HIS32       0.0818
      7  ND1       18.7880   17.6400   41.8400 N.ar   32  HIS32      -0.2268
      8  CD2       19.3400   19.0140   43.4460 C.ar   32  HIS32       0.1154
      9  CE1       19.7590   17.0640   42.5300 C.ar   32  HIS32       0.1986
     10  NE2       20.1110   17.8750   43.5100 N.ar   32  HIS32      -0.2212
     11  N         20.3350   20.8290   40.4030 N.am   33  ASP33      -0.1974
     12  CA        21.4730   20.5200   39.5230 C.3    33  ASP33       0.1709
     13  C         21.1370   20.9760   38.1080 C.2    33  ASP33       0.2293
     14  O         21.2630   20.2220   37.1460 O.2    33  ASP33      -0.2864
     15  CB        21.7760   19.0200   39.5120 C.3    33  ASP33       0.1436
     16  CG        22.8710   18.6400   40.4830 C.2    33  ASP33       0.3671
     17  OD1       23.8190   19.4320   40.6330 O.co2  33  ASP33      -0.2456
     18  OD2       22.7940   17.5460   41.0850 O.co2  33  ASP33      -0.2456
     19  N         26.2200   24.4000   40.3400 N.3    69  ARG69      -0.1245
     20  CA        27.3480   23.7480   40.9900 C.3    69  ARG69       0.1563
     21  C         28.5860   24.0380   40.1550 C.2    69  ARG69       0.2260
     22  O         28.6710   23.6210   38.9980 O.2    69  ARG69      -0.2867
     23  CB        27.1180   22.2350   41.0560 C.3    69  ARG69       0.0307
     24  CG        25.7970   21.8200   41.6830 C.3    69  ARG69       0.0489
     25  CD        25.7030   22.1790   43.1680 C.3    69  ARG69       0.2205
     26  NE        24.4200   21.7430   43.7190 N.pl3  69  ARG69      -0.0865
     27  CZ        24.1290   20.4870   44.0340 C.cat  69  ARG69       0.5346
     28  NH1       25.0370   19.5320   43.8770 N.pl3  69  ARG69       0.1354
     29  NH2       22.9110   20.1750   44.4500 N.pl3  69  ARG69       0.1354
     30  N         29.3240   18.1290   38.2710 N.3    82  HIS82      -0.1241
     31  CA        28.4660   17.2380   39.0350 C.3    82  HIS82       0.1621
     32  C         29.5390   16.3310   39.6080 C.2    82  HIS82       0.2264
     33  O         29.9890   15.4000   38.9430 O.2    82  HIS82      -0.2867
     34  CB        27.5310   16.4000   38.1790 C.3    82  HIS82       0.0745
     35  CG        26.8930   15.2860   38.9480 C.ar   82  HIS82       0.0817
     36  ND1       26.1440   15.5070   40.0840 N.ar   82  HIS82      -0.2268
     37  CD2       26.9660   13.9420   38.8010 C.ar   82  HIS82       0.1154
     38  CE1       25.7870   14.3470   40.6060 C.ar   82  HIS82       0.1986
     39  NE2       26.2740   13.3810   39.8470 N.ar   82  HIS82      -0.2212
     40  N         27.2520   26.8060   44.5620 N.3   115  LYS115     -0.1245
     41  CA        27.9540   25.9050   45.4620 C.3   115  LYS115      0.1561
     42  C         29.2210   25.3880   44.7990 C.2   115  LYS115      0.2260
     43  O         29.2510   25.1720   43.5920 O.2   115  LYS115     -0.2867
     44  CB        27.0410   24.7310   45.8230 C.3   115  LYS115      0.0271
     45  CG        27.5690   23.7960   46.9030 C.3   115  LYS115      0.0035
     46  CD        26.5120   22.7440   47.2510 C.3   115  LYS115      0.0206
     47  CE        26.8880   21.9220   48.4890 C.3   115  LYS115      0.1093
     48  NZ        28.1020   21.0930   48.2670 N.3   115  LYS115     -0.1314
     49  N         26.0730   29.2880   48.7740 N.3   163  ARG163     -0.1245
     50  CA        26.2230   27.9790   49.3840 C.3   163  ARG163      0.1563
     51  C         27.7210   27.6930   49.4270 C.2   163  ARG163      0.2260
     52  O         28.1560   26.5440   49.3620 O.2   163  ARG163     -0.2867
     53  CB        25.4920   26.8900   48.5930 C.3   163  ARG163      0.0307
     54  CG        23.9700   26.9240   48.7570 C.3   163  ARG163      0.0489
     55  CD        23.3230   25.6340   48.2670 C.3   163  ARG163      0.2205
     56  NE        23.6850   24.4790   49.0880 N.pl3 163  ARG163     -0.0865
     57  CZ        23.2560   23.2390   48.8660 C.cat 163  ARG163      0.5346
     58  NH1       22.4480   22.9890   47.8460 N.pl3 163  ARG163      0.1354
     59  NH2       23.6240   22.2500   49.6700 N.pl3 163  ARG163      0.1354
     60  N         24.2790   24.3430   56.3930 N.3   178  TRP178     -0.1241
     61  CA        23.3260   23.5090   55.6690 C.3   178  TRP178      0.1605
     62  C         23.5950   22.0400   55.9970 C.2   178  TRP178      0.2264
     63  O         24.3180   21.3540   55.2730 O.2   178  TRP178     -0.2867
     64  CB        23.5100   23.7830   54.1720 C.3   178  TRP178      0.0550
     65  CG        22.4760   23.2120   53.2400 C.ar  178  TRP178      0.0003
     66  CD1       22.1370   21.8950   53.0830 C.ar  178  TRP178      0.0946
     67  CD2       21.7290   23.9390   52.2530 C.ar  178  TRP178      0.0152
     68  NE1       21.2330   21.7590   52.0510 N.ar  178  TRP178     -0.2442
     69  CE2       20.9650   22.9970   51.5270 C.ar  178  TRP178      0.0810
     70  CE3       21.6360   25.2980   51.9110 C.ar  178  TRP178      0.0012
     71  CZ2       20.1160   23.3680   50.4750 C.ar  178  TRP178      0.0191
     72  CZ3       20.7940   25.6700   50.8640 C.ar  178  TRP178      0.0001
     73  CH2       20.0440   24.7030   50.1570 C.ar  178  TRP178      0.0015
     74  N         23.7190   18.0700   56.3350 N.3   180  ASP180     -0.1239
     75  CA        23.6320   17.0500   55.3080 C.3   180  ASP180      0.1674
     76  C         22.4130   16.1350   55.3740 C.2   180  ASP180      0.2266
     77  O         22.0300   15.6570   56.4440 O.2   180  ASP180     -0.2867
     78  CB        24.8980   16.1960   55.3420 C.3   180  ASP180      0.1410
     79  CG        24.9150   15.1440   54.2640 C.2   180  ASP180      0.3668
     80  OD1       24.8980   15.5200   53.0780 O.co2 180  ASP180     -0.2456
     81  OD2       24.9420   13.9420   54.6000 O.co2 180  ASP180     -0.2456
     82  N         16.0250   18.9340   52.5240 N.3   198  ASP198     -0.1239
     83  CA        16.9970   18.4710   51.5500 C.3   198  ASP198      0.1674
     84  C         17.4790   17.0520   51.8410 C.2   198  ASP198      0.2266
     85  O         18.6810   16.7930   51.8860 O.2   198  ASP198     -0.2867
     86  CB        18.1800   19.4430   51.5080 C.3   198  ASP198      0.1410
     87  CG        19.1720   19.1190   50.4050 C.2   198  ASP198      0.3668
     88  OD1       18.7430   18.6370   49.3350 O.co2 198  ASP198     -0.2456
     89  OD2       20.3810   19.3710   50.6060 O.co2 198  ASP198     -0.2456
     90  N         18.2510   14.2840   50.3600 N.3   200  TYR200     -0.1241
     91  CA        18.5470   13.8100   49.0130 C.3   200  TYR200      0.1605
     92  C         18.8410   12.3280   48.8390 C.2   200  TYR200      0.2264
     93  O         18.8860   11.8440   47.7090 O.2   200  TYR200     -0.2867
     94  CB        19.7130   14.6010   48.4230 C.3   200  TYR200      0.0534
     95  CG        21.0200   14.4160   49.1570 C.ar  200  TYR200     -0.0201
     96  CD1       21.3600   15.2270   50.2410 C.ar  200  TYR200     -0.0009
     97  CD2       21.9240   13.4300   48.7630 C.ar  200  TYR200     -0.0009
     98  CE1       22.5790   15.0630   50.9130 C.ar  200  TYR200      0.0417
     99  CE2       23.1370   13.2560   49.4240 C.ar  200  TYR200      0.0417
    100  CZ        23.4590   14.0730   50.4950 C.ar  200  TYR200      0.1957
    101  OH        24.6610   13.8930   51.1400 O.3   200  TYR200     -0.2866
    102  N         13.2090   20.6290   48.3560 N.3   232  PHE232     -0.1241
    103  CA        13.7840   19.8560   47.2500 C.3   232  PHE232      0.1605
    104  C         12.9890   18.5660   47.0380 C.2   232  PHE232      0.2264
    105  O         12.9060   17.7310   47.9380 O.2   232  PHE232     -0.2867
    106  CB        15.2410   19.4580   47.5340 C.3   232  PHE232      0.0534
    107  CG        16.2260   20.5810   47.4160 C.ar  232  PHE232     -0.0203
    108  CD1       16.3600   21.5190   48.4330 C.ar  232  PHE232     -0.0042
    109  CD2       17.0350   20.6930   46.2840 C.ar  232  PHE232     -0.0042
    110  CE1       17.2880   22.5520   48.3310 C.ar  232  PHE232     -0.0003
    111  CE2       17.9650   21.7240   46.1700 C.ar  232  PHE232     -0.0003
    112  CZ        18.0920   22.6550   47.1970 C.ar  232  PHE232     -0.0000
    113  N         13.7700   16.6250   44.5230 N.3   234  SER234     -0.1217
    114  CA        14.7680   15.7890   43.8630 C.3   234  SER234      0.1889
    115  C         15.3230   14.7210   44.8030 C.2   234  SER234      0.2288
    116  O         15.4450   14.9440   46.0020 O.2   234  SER234     -0.2866
    117  CB        15.9070   16.6700   43.3440 C.3   234  SER234      0.2089
    118  OG        16.2920   17.6210   44.3250 O.3   234  SER234     -0.2183
    119  N         18.4870   11.6070   44.9370 N.3   236  SER236     -0.1217
    120  CA        19.6890   11.0860   44.2890 C.3   236  SER236      0.1889
    121  C         19.5390    9.6850   43.7070 C.2   236  SER236      0.2288
    122  O         18.7620    8.8610   44.2010 O.2   236  SER236     -0.2866
    123  CB        20.8790   11.1330   45.2540 C.3   236  SER236      0.2089
    124  OG        20.6510   10.3230   46.3890 O.3   236  SER236     -0.2183
@<TRIPOS>BOND
     1    14    13    2
     2    13    12    1
     3    34    35    1
     4    34    31    1
     5    30    31    1
     6    37    35   ar
     7    37    39   ar
     8    33    32    2
     9    35    36   ar
    10    22    21    2
    11     4     3    2
    12    31    32    1
    13    15    12    1
    14    15    16    1
    15    12    11    1
    16    39    38   ar
    17     3    11   am
    18     3     2    1
    19    36    38   ar
    20    21    20    1
    21     1     2    1
    22    19    20    1
    23    16    17   ar
    24    16    18   ar
    25    20    23    1
    26     2     5    1
    27    23    24    1
    28    24    25    1
    29     7     6   ar
    30     7     9   ar
    31     5     6    1
    32     6     8   ar
    33     9    10   ar
    34    25    26    1
    35   117   114    1
    36   117   118    1
    37     8    10   ar
    38    43    42    2
    39   121   122    2
    40   121   120    1
    41    26    27    2
    42   114   113    1
    43   114   115    1
    44    28    27    1
    45    27    29    1
    46   120   119    1
    47   120   123    1
    48    40    41    1
    49    42    41    1
    50   115   116    2
    51   123   124    1
    52    41    44    1
    53    44    45    1
    54   111   109   ar
    55   111   112   ar
    56   109   107   ar
    57    45    46    1
    58   104   103    1
    59   104   105    2
    60   112   110   ar
    61   103   106    1
    62   103   102    1
    63    46    47    1
    64   107   106    1
    65   107   108   ar
    66    93    92    2
    67    58    57    1
    68    48    47    1
    69    55    54    1
    70    55    56    1
    71   110   108   ar
    72    94    91    1
    73    94    95    1
    74    53    54    1
    75    53    50    1
    76    97    95   ar
    77    97    99   ar
    78    49    50    1
    79    92    91    1
    80    57    56    2
    81    57    59    1
    82    91    90    1
    83    95    96   ar
    84    88    87   ar
    85    52    51    2
    86    50    51    1
    87    99   100   ar
    88    73    71   ar
    89    73    72   ar
    90    96    98   ar
    91    87    89   ar
    92    87    86    1
    93    71    69   ar
    94   100    98   ar
    95   100   101    1
    96    72    70   ar
    97    86    83    1
    98    69    68   ar
    99    69    67   ar
   100    83    84    1
   101    83    82    1
   102    84    85    2
   103    70    67   ar
   104    68    66   ar
   105    67    65   ar
   106    80    79   ar
   107    66    65   ar
   108    65    64    1
   109    64    61    1
   110    79    81   ar
   111    79    78    1
   112    63    62    2
   113    75    78    1
   114    75    76    1
   115    75    74    1
   116    76    77    2
   117    61    62    1
   118    61    60    1
