@<TRIPOS>MOLECULE
tmp/3ea4A03.pdb
 152 148 0 0 0
SMALL
GASTEIGER

@<TRIPOS>ATOM
      1  N         68.3140   58.4510   44.5600 N.3   398  VAL398     -0.1231
      2  CA        67.0330   58.0840   45.1520 C.3   398  VAL398      0.1692
      3  C         66.9320   56.5690   45.2630 C.2   398  VAL398      0.2593
      4  O         67.2450   55.8430   44.3180 O.2   398  VAL398     -0.2718
      5  CB        65.8560   58.6430   44.3310 C.3   398  VAL398      0.0266
      6  CG1       64.5380   58.0730   44.8050 C.3   398  VAL398      0.0020
      7  CG2       65.8400   60.1500   44.4170 C.3   398  VAL398      0.0020
      8  N         66.5040   56.1040   46.4300 N.am  399  GLY399     -0.1942
      9  CA        66.2610   54.6970   46.6440 C.3   399  GLY399      0.2014
     10  C         66.7490   54.2640   48.0050 C.2   399  GLY399      0.2639
     11  O         66.7700   55.0580   48.9650 O.2   399  GLY399     -0.2714
     12  N         67.1470   52.9970   48.0840 N.am  400  GLN400     -0.1963
     13  CA        67.5890   52.4190   49.3320 C.3   400  GLN400      0.1733
     14  C         68.7940   53.1490   49.8880 C.2   400  GLN400      0.2616
     15  O         68.8370   53.4670   51.0770 O.2   400  GLN400     -0.2715
     16  CB        67.9300   50.9580   49.1300 C.3   400  GLN400      0.0408
     17  CG        66.7320   50.0740   48.9150 C.3   400  GLN400      0.0908
     18  CD        67.1350   48.6290   48.7920 C.2   400  GLN400      0.2608
     19  OE1       68.0690   48.2990   48.0570 O.2   400  GLN400     -0.2717
     20  NE2       66.4410   47.7540   49.5170 N.am  400  GLN400     -0.0878
     21  N         69.7640   53.4280   49.0250 N.am  401  HIS401     -0.1973
     22  CA        70.9980   54.0670   49.4580 C.3   401  HIS401      0.1656
     23  C         70.6970   55.4420   50.0520 C.2   401  HIS401      0.2291
     24  O         71.3770   55.8890   50.9830 O.2   401  HIS401     -0.2864
     25  CB        71.9990   54.1700   48.3040 C.3   401  HIS401      0.0771
     26  CG        71.6250   55.1850   47.2680 C.ar  401  HIS401      0.0820
     27  ND1       70.6820   54.9420   46.2930 N.ar  401  HIS401     -0.2267
     28  CD2       72.0640   56.4480   47.0590 C.ar  401  HIS401      0.1154
     29  CE1       70.5580   56.0110   45.5260 C.ar  401  HIS401      0.1986
     30  NE2       71.3870   56.9380   45.9690 N.ar  401  HIS401     -0.2212
     31  N         69.5120   54.9860   53.5490 N.3   404  TRP404     -0.1241
     32  CA        70.6200   54.6340   54.4230 C.3   404  TRP404      0.1605
     33  C         71.5270   55.8220   54.7110 C.2   404  TRP404      0.2264
     34  O         71.9760   55.9960   55.8440 O.2   404  TRP404     -0.2867
     35  CB        71.4060   53.4380   53.8860 C.3   404  TRP404      0.0550
     36  CG        70.6120   52.1700   53.8980 C.ar  404  TRP404      0.0003
     37  CD1       69.7680   51.7280   54.8890 C.ar  404  TRP404      0.0946
     38  CD2       70.5920   51.1690   52.8820 C.ar  404  TRP404      0.0152
     39  NE1       69.2190   50.5230   54.5410 N.ar  404  TRP404     -0.2442
     40  CE2       69.7090   50.1510   53.3170 C.ar  404  TRP404      0.0810
     41  CE3       71.2300   51.0320   51.6410 C.ar  404  TRP404      0.0012
     42  CZ2       69.4470   49.0120   52.5520 C.ar  404  TRP404      0.0191
     43  CZ3       70.9660   49.9020   50.8790 C.ar  404  TRP404      0.0001
     44  CH2       70.0820   48.9040   51.3400 C.ar  404  TRP404      0.0015
     45  N         59.8940   65.1370   44.8800 N.3   423  LEU423     -0.1231
     46  CA        59.8080   64.4800   43.5820 C.3   423  LEU423      0.1693
     47  C         60.5540   63.1480   43.6000 C.2   423  LEU423      0.2593
     48  O         60.1230   62.1770   42.9780 O.2   423  LEU423     -0.2718
     49  CB        60.3720   65.3850   42.4940 C.3   423  LEU423      0.0284
     50  CG        60.1370   65.0460   41.0200 C.3   423  LEU423      0.0019
     51  CD1       58.6570   65.1090   40.6520 C.3   423  LEU423      0.0001
     52  CD2       60.9480   65.9940   40.1360 C.3   423  LEU423      0.0001
     53  N         61.6690   63.1060   44.3270 N.am  424  GLY424     -0.1942
     54  CA        62.5080   61.9120   44.4010 C.3   424  GLY424      0.2014
     55  C         63.1130   61.5610   43.0600 C.2   424  GLY424      0.2639
     56  O         62.8930   60.4690   42.5460 O.2   424  GLY424     -0.2714
     57  N         63.8810   62.4910   42.4980 N.am  425  ALA425     -0.1963
     58  CA        64.4380   62.3420   41.1570 C.3   425  ALA425      0.1728
     59  C         65.7850   61.6460   41.1610 C.2   425  ALA425      0.2616
     60  O         66.7340   62.1310   41.7740 O.2   425  ALA425     -0.2715
     61  CB        64.5670   63.6930   40.4930 C.3   425  ALA425      0.0334
     62  N         65.8760   60.5170   40.4650 N.am  426  MET426     -0.1977
     63  CA        67.1600   59.8370   40.2820 C.3   426  MET426      0.1605
     64  C         68.1260   60.6670   39.4410 C.2   426  MET426      0.2287
     65  O         67.7020   61.5400   38.6770 O.2   426  MET426     -0.2864
     66  CB        66.9480   58.4810   39.6300 C.3   426  MET426      0.0413
     67  CG        66.4370   57.4290   40.5810 C.3   426  MET426      0.0598
     68  SD        65.9190   55.9750   39.6790 S.3   426  MET426     -0.1393
     69  CE        67.4820   55.2870   39.1420 C.3   426  MET426      0.0692
     70  N         73.5500   55.4220   44.1810 N.3   450  GLY450     -0.1210
     71  CA        73.2110   54.0640   43.7730 C.3   450  GLY450      0.1956
     72  C         73.5510   53.8940   42.3070 C.2   450  GLY450      0.2612
     73  O         73.6690   54.8790   41.5850 O.2   450  GLY450     -0.2717
     74  N         73.7020   52.6500   41.8600 N.am  451  ASP451     -0.1959
     75  CA        74.2070   52.3850   40.5100 C.3   451  ASP451      0.1840
     76  C         73.2040   52.7430   39.4160 C.2   451  ASP451      0.2623
     77  O         73.5940   53.0930   38.3060 O.2   451  ASP451     -0.2715
     78  CB        74.7500   50.9520   40.3640 C.3   451  ASP451      0.1450
     79  CG        73.6910   49.8870   40.5880 C.2   451  ASP451      0.3671
     80  OD1       73.0160   49.9090   41.6410 O.co2 451  ASP451     -0.2456
     81  OD2       73.5490   49.0090   39.7100 O.co2 451  ASP451     -0.2456
     82  N         71.9170   52.6610   39.7390 N.am  452  GLY452     -0.1940
     83  CA        70.8640   53.1030   38.8310 C.3   452  GLY452      0.2014
     84  C         70.8520   54.6090   38.6860 C.2   452  GLY452      0.2639
     85  O         70.7930   55.1280   37.5670 O.2   452  GLY452     -0.2714
     86  N         70.9060   55.3060   39.8220 N.am  453  SER453     -0.1949
     87  CA        70.9170   56.7670   39.8600 C.3   453  SER453      0.1924
     88  C         72.1810   57.3540   39.2510 C.2   453  SER453      0.2314
     89  O         72.1050   58.2570   38.4160 O.2   453  SER453     -0.2863
     90  CB        70.7710   57.2750   41.2910 C.3   453  SER453      0.2116
     91  OG        69.5890   56.7670   41.8790 O.3   453  SER453     -0.2180
     92  N         72.5620   57.6320   35.4220 N.3   456  MET456     -0.1245
     93  CA        71.6200   58.5140   34.7330 C.3   456  MET456      0.1570
     94  C         72.2340   59.8370   34.3020 C.2   456  MET456      0.2261
     95  O         71.9210   60.3530   33.2180 O.2   456  MET456     -0.2867
     96  CB        70.3780   58.7510   35.5810 C.3   456  MET456      0.0387
     97  CG        69.4250   57.5960   35.5410 C.3   456  MET456      0.0595
     98  SD        67.8560   57.9470   36.3390 S.3   456  MET456     -0.1393
     99  CE        67.1720   59.2060   35.2610 C.3   456  MET456      0.0692
    100  N         77.2800   52.9670   46.2350 N.3   476  LEU476     -0.1245
    101  CA        76.7720   51.7220   46.8170 C.3   476  LEU476      0.1561
    102  C         76.1180   50.9120   45.7080 C.2   476  LEU476      0.2260
    103  O         75.0170   51.2370   45.2440 O.2   476  LEU476     -0.2867
    104  CB        75.7880   52.0000   47.9620 C.3   476  LEU476      0.0270
    105  CG        76.2820   52.9180   49.0880 C.3   476  LEU476      0.0019
    106  CD1       75.2260   53.0640   50.1680 C.3   476  LEU476      0.0001
    107  CD2       77.6000   52.4330   49.6880 C.3   476  LEU476      0.0001
    108  N         74.5390   47.7170   44.1850 N.3   478  ASN478     -0.1240
    109  CA        73.8080   46.4660   44.4030 C.3   478  ASN478      0.1653
    110  C         73.2480   45.8270   43.1220 C.2   478  ASN478      0.2266
    111  O         72.4790   44.8660   43.1860 O.2   478  ASN478     -0.2867
    112  CB        72.7080   46.6490   45.4560 C.3   478  ASN478      0.1155
    113  CG        71.6050   47.6040   45.0110 C.2   478  ASN478      0.2627
    114  OD1       71.5930   48.0960   43.8780 O.2   478  ASN478     -0.2716
    115  ND2       70.6700   47.8750   45.9110 N.am  478  ASN478     -0.0877
    116  N         70.9760   46.4370   41.2550 N.3   480  HIS480     -0.1226
    117  CA        69.5300   46.5120   41.0950 C.3   480  HIS480      0.1752
    118  C         69.0010   47.9200   41.3180 C.2   480  HIS480      0.2596
    119  O         69.6890   48.7830   41.8790 O.2   480  HIS480     -0.2718
    120  CB        68.8320   45.5650   42.0780 C.3   480  HIS480      0.0759
    121  CG        69.0130   44.1170   41.7600 C.ar  480  HIS480      0.0818
    122  ND1       70.1870   43.4400   42.0180 N.ar  480  HIS480     -0.2268
    123  CD2       68.1700   43.2120   41.2100 C.ar  480  HIS480      0.1154
    124  CE1       70.0600   42.1800   41.6360 C.ar  480  HIS480      0.1986
    125  NE2       68.8460   42.0160   41.1410 N.ar  480  HIS480     -0.2212
    126  N         67.7710   48.1440   40.8610 N.am  481  LEU481     -0.1966
    127  CA        66.9600   49.2620   41.3280 C.3   481  LEU481      0.1728
    128  C         66.3970   48.8420   42.6840 C.2   481  LEU481      0.2617
    129  O         65.2780   48.3320   42.7800 O.2   481  LEU481     -0.2715
    130  CB        65.8430   49.5870   40.3290 C.3   481  LEU481      0.0311
    131  CG        66.3030   50.0340   38.9370 C.3   481  LEU481      0.0022
    132  CD1       65.1420   50.1370   37.9730 C.3   481  LEU481      0.0001
    133  CD2       67.0510   51.3520   39.0110 C.3   481  LEU481      0.0001
    134  N         67.2050   49.0490   43.7210 N.am  482  GLY482     -0.1940
    135  CA        66.9680   48.4930   45.0550 C.3   482  GLY482      0.2014
    136  C         65.6170   48.7550   45.6920 C.2   482  GLY482      0.2639
    137  O         64.9830   47.8320   46.2180 O.2   482  GLY482     -0.2714
    138  N         65.1790   50.0110   45.6500 N.am  483  MET483     -0.1963
    139  CA        63.9080   50.3950   46.2570 C.3   483  MET483      0.1736
    140  C         62.7270   49.6600   45.6170 C.2   483  MET483      0.2616
    141  O         61.8700   49.1240   46.3220 O.2   483  MET483     -0.2715
    142  CB        63.7130   51.9130   46.1880 C.3   483  MET483      0.0427
    143  CG        62.5570   52.4390   47.0300 C.3   483  MET483      0.0599
    144  SD        62.7380   51.9980   48.7750 S.3   483  MET483     -0.1393
    145  CE        63.5760   53.4680   49.3590 C.3   483  MET483      0.0692
    146  N         62.7020   49.6310   44.2860 N.am  484  VAL484     -0.1977
    147  CA        61.6620   48.9330   43.5370 C.3   484  VAL484      0.1596
    148  C         61.7550   47.4280   43.7990 C.2   484  VAL484      0.2287
    149  O         60.7340   46.7510   43.9650 O.2   484  VAL484     -0.2864
    150  CB        61.7620   49.2300   42.0270 C.3   484  VAL484      0.0276
    151  CG1       60.5580   48.6770   41.2850 C.3   484  VAL484      0.0022
    152  CG2       61.8680   50.7260   41.7950 C.3   484  VAL484      0.0022
@<TRIPOS>BOND
     1    95    94    2
     2    94    93    1
     3    93    92    1
     4    93    96    1
     5    99    98    1
     6    97    96    1
     7    97    98    1
     8    85    84    2
     9   132   131    1
    10    77    76    2
    11    89    88    2
    12    65    64    2
    13    84    83    1
    14    84    86   am
    15    83    82    1
    16   131   133    1
    17   131   130    1
    18    69    68    1
    19    88    87    1
    20    76    82   am
    21    76    75    1
    22    64    63    1
    23    66    63    1
    24    66    67    1
    25    68    67    1
    26    81    79   ar
    27    86    87    1
    28    87    90    1
    29    52    50    1
    30    63    62    1
    31   130   127    1
    32    78    75    1
    33    78    79    1
    34    62    59   am
    35    61    58    1
    36    75    74    1
    37    79    80   ar
    38    51    50    1
    39   126   118   am
    40   126   127    1
    41    50    49    1
    42   117   116    1
    43   117   118    1
    44   117   120    1
    45   125   123   ar
    46   125   124   ar
    47    58    59    1
    48    58    57    1
    49    59    60    2
    50   123   121   ar
    51   151   150    1
    52    90    91    1
    53   118   119    2
    54   127   128    1
    55    73    72    2
    56   124   122   ar
    57   121   122   ar
    58   121   120    1
    59   152   150    1
    60    74    72   am
    61   150   147    1
    62    72    71    1
    63    49    46    1
    64    57    55   am
    65    56    55    2
    66   128   129    2
    67   128   134   am
    68    48    47    2
    69    55    54    1
    70   110   111    2
    71   110   109    1
    72   147   148    1
    73   147   146    1
    74    46    47    1
    75    46    45    1
    76    47    53   am
    77   134   135    1
    78    71    70    1
    79   148   149    2
    80   114   113    2
    81   108   109    1
    82   146   140   am
    83     4     3    2
    84    53    54    1
    85     5     7    1
    86     5     6    1
    87     5     2    1
    88   109   112    1
    89     1     2    1
    90   113   112    1
    91   113   115   am
    92   135   136    1
    93     2     3    1
    94   103   102    2
    95     3     8   am
    96    29    30   ar
    97    29    27   ar
    98   140   139    1
    99   140   141    2
   100   138   136   am
   101   138   139    1
   102   136   137    2
   103   102   101    1
   104    30    28   ar
   105   142   139    1
   106   142   143    1
   107   100   101    1
   108    27    26   ar
   109     8     9    1
   110     9    10    1
   111   101   104    1
   112   143   144    1
   113    28    26   ar
   114    26    25    1
   115   104   105    1
   116    10    12   am
   117    10    11    2
   118    19    18    2
   119    12    13    1
   120    25    22    1
   121   144   145    1
   122    18    17    1
   123    18    20   am
   124    17    16    1
   125    21    22    1
   126    21    14   am
   127   105   107    1
   128   105   106    1
   129    16    13    1
   130    13    14    1
   131    22    23    1
   132    14    15    2
   133    23    24    2
   134    43    44   ar
   135    43    41   ar
   136    44    42   ar
   137    41    38   ar
   138    42    40   ar
   139    38    40   ar
   140    38    36   ar
   141    40    39   ar
   142    31    32    1
   143    35    36    1
   144    35    32    1
   145    36    37   ar
   146    32    33    1
   147    39    37   ar
   148    33    34    2
