@<TRIPOS>MOLECULE
tmp/3eahB04.pdb
 132 132 0 0 0
SMALL
GASTEIGER

@<TRIPOS>ATOM
      1  N         18.6470    2.1480   20.1400 N.3    99  TRP99      -0.1241
      2  CA        18.2930    3.4830   20.6150 C.3    99  TRP99       0.1605
      3  C         17.0900    3.3220   21.5430 C.2    99  TRP99       0.2264
      4  O         17.0710    3.8230   22.6690 O.2    99  TRP99      -0.2867
      5  CB        17.9390    4.3920   19.4350 C.3    99  TRP99       0.0550
      6  CG        17.4820    5.7810   19.8000 C.ar   99  TRP99       0.0003
      7  CD1       17.5350    6.3760   21.0330 C.ar   99  TRP99       0.0946
      8  CD2       16.8870    6.7460   18.9200 C.ar   99  TRP99       0.0152
      9  NE1       17.0080    7.6440   20.9720 N.ar   99  TRP99      -0.2442
     10  CE2       16.6020    7.8940   19.6880 C.ar   99  TRP99       0.0810
     11  CE3       16.5700    6.7510   17.5550 C.ar   99  TRP99       0.0012
     12  CZ2       16.0120    9.0350   19.1370 C.ar   99  TRP99       0.0191
     13  CZ3       15.9840    7.8910   17.0040 C.ar   99  TRP99       0.0001
     14  CH2       15.7130    9.0140   17.7940 C.ar   99  TRP99       0.0015
     15  N         18.3030    7.6520   27.7340 N.3   105  CYS105     -0.1235
     16  CA        17.8510    8.5710   26.6960 C.3   105  CYS105      0.1677
     17  C         16.4170    9.0900   26.8520 C.2   105  CYS105      0.2270
     18  O         15.4540    8.3420   26.7600 O.2   105  CYS105     -0.2867
     19  CB        18.0040    7.9280   25.3170 C.3   105  CYS105      0.0956
     20  SG        17.7130    9.0960   23.9890 S.3   105  CYS105     -0.0801
     21  N         33.1630   12.3880   20.6570 N.3   168  GLN168     -0.1245
     22  CA        32.1260   12.9900   19.8210 C.3   168  GLN168      0.1566
     23  C         32.7650   13.5070   18.5430 C.2   168  GLN168      0.2260
     24  O         33.9590   13.8210   18.5180 O.2   168  GLN168     -0.2867
     25  CB        31.4440   14.1660   20.5320 C.3   168  GLN168      0.0367
     26  CG        30.5500   13.8020   21.7110 C.3   168  GLN168      0.0905
     27  CD        29.9980   15.0310   22.4190 C.2   168  GLN168      0.2608
     28  OE1       29.2600   15.8330   21.8350 O.2   168  GLN168     -0.2717
     29  NE2       30.3570   15.1850   23.6880 N.am  168  GLN168     -0.0878
     30  N         28.2630   24.1330   19.2990 N.3   252  TYR252     -0.1241
     31  CA        27.9630   23.5140   18.0280 C.3   252  TYR252      0.1605
     32  C         26.5460   22.9780   18.0270 C.2   252  TYR252      0.2264
     33  O         25.9300   22.7970   19.0820 O.2   252  TYR252     -0.2867
     34  CB        28.9830   22.4050   17.7630 C.3   252  TYR252      0.0534
     35  CG        29.1590   21.4650   18.9220 C.ar  252  TYR252     -0.0201
     36  CD1       28.3880   20.3090   19.0230 C.ar  252  TYR252     -0.0009
     37  CD2       30.0940   21.7270   19.9260 C.ar  252  TYR252     -0.0009
     38  CE1       28.5440   19.4300   20.0900 C.ar  252  TYR252      0.0417
     39  CE2       30.2590   20.8460   21.0050 C.ar  252  TYR252      0.0417
     40  CZ        29.4830   19.7020   21.0750 C.ar  252  TYR252      0.1957
     41  OH        29.6730   18.8180   22.1110 O.3   252  TYR252     -0.2866
     42  N         25.1240   17.0920   18.1360 N.3   255  PRO255     -0.2102
     43  CA        25.4710   16.2140   19.2560 C.3   255  PRO255      0.1504
     44  C         25.6330   14.8270   18.6390 C.2   255  PRO255      0.2576
     45  O         24.6550   14.2020   18.2160 O.2   255  PRO255     -0.2718
     46  CB        24.2480   16.3200   20.1640 C.3   255  PRO255      0.0282
     47  CG        23.1310   16.4200   19.1800 C.3   255  PRO255      0.0208
     48  CD        23.6770   17.3930   18.1400 C.3   255  PRO255      0.0893
     49  N         26.8690   14.3580   18.5600 N.am  256  ALA256     -0.1966
     50  CA        27.1320   13.0660   17.9530 C.3   256  ALA256      0.1728
     51  C         28.0720   12.2070   18.7800 C.2   256  ALA256      0.2616
     52  O         29.2730   12.4680   18.8420 O.2   256  ALA256     -0.2715
     53  CB        27.7020   13.2710   16.5600 C.3   256  ALA256      0.0334
     54  N         27.5180   11.1840   19.4210 N.am  257  VAL257     -0.1977
     55  CA        28.3240   10.2780   20.2270 C.3   257  VAL257      0.1596
     56  C         29.0530    9.3650   19.2550 C.2   257  VAL257      0.2287
     57  O         28.4370    8.7880   18.3590 O.2   257  VAL257     -0.2864
     58  CB        27.4540    9.4230   21.1650 C.3   257  VAL257      0.0276
     59  CG1       28.3340    8.4480   21.9300 C.3   257  VAL257      0.0022
     60  CG2       26.6930   10.3190   22.1260 C.3   257  VAL257      0.0022
     61  N         26.4860    8.0640   16.2310 N.3   274  PHE274     -0.1227
     62  CA        25.0860    8.4280   16.0750 C.3   274  PHE274      0.1736
     63  C         24.8540    9.8440   16.5890 C.2   274  PHE274      0.2596
     64  O         25.6180   10.3570   17.4130 O.2   274  PHE274     -0.2718
     65  CB        24.1840    7.4300   16.8060 C.3   274  PHE274      0.0547
     66  CG        24.5620    7.2010   18.2300 C.ar  274  PHE274     -0.0202
     67  CD1       24.1270    8.0680   19.2310 C.ar  274  PHE274     -0.0042
     68  CD2       25.3670    6.1240   18.5770 C.ar  274  PHE274     -0.0042
     69  CE1       24.4930    7.8630   20.5710 C.ar  274  PHE274     -0.0003
     70  CE2       25.7440    5.9050   19.9070 C.ar  274  PHE274     -0.0003
     71  CZ        25.3050    6.7760   20.9090 C.ar  274  PHE274     -0.0000
     72  N         23.8030   10.4800   16.0890 N.am  275  SER275     -0.1938
     73  CA        23.5020   11.8380   16.4840 C.3   275  SER275      0.2055
     74  C         22.0280   12.1310   16.3440 C.2   275  SER275      0.2644
     75  O         21.2960   11.4070   15.6780 O.2   275  SER275     -0.2714
     76  CB        24.2910   12.8160   15.6130 C.3   275  SER275      0.2130
     77  OG        23.9120   12.6940   14.2490 O.3   275  SER275     -0.2179
     78  N         21.6050   13.2170   16.9740 N.am  276  GLY276     -0.1939
     79  CA        20.2170   13.6400   16.9220 C.3   276  GLY276      0.2014
     80  C         20.3010   15.1300   17.1310 C.2   276  GLY276      0.2639
     81  O         20.8590   15.8370   16.2950 O.2   276  GLY276     -0.2714
     82  N         19.7460   15.6280   18.2250 N.am  277  TRP277     -0.1959
     83  CA        19.8440   17.0510   18.5070 C.3   277  TRP277      0.1771
     84  C         19.8590   17.1900   20.0270 C.2   277  TRP277      0.2620
     85  O         19.5440   16.2280   20.7090 O.2   277  TRP277     -0.2715
     86  CB        18.6790   17.8270   17.8870 C.3   277  TRP277      0.0590
     87  CG        17.3010   17.3090   18.2350 C.ar  277  TRP277      0.0006
     88  CD1       16.5980   17.5260   19.3920 C.ar  277  TRP277      0.0946
     89  CD2       16.4620   16.4950   17.4090 C.ar  277  TRP277      0.0152
     90  NE1       15.3730   16.8950   19.3320 N.ar  277  TRP277     -0.2442
     91  CE2       15.2670   16.2530   18.1270 C.ar  277  TRP277      0.0810
     92  CE3       16.6070   15.9400   16.1340 C.ar  277  TRP277      0.0012
     93  CZ2       14.2210   15.4850   17.6050 C.ar  277  TRP277      0.0191
     94  CZ3       15.5720   15.1770   15.6200 C.ar  277  TRP277      0.0001
     95  CH2       14.3940   14.9530   16.3550 C.ar  277  TRP277      0.0015
     96  N         20.2200   18.3840   20.5050 N.am  278  TYR278     -0.1960
     97  CA        20.3280   18.7310   21.9320 C.3   278  TYR278      0.1771
     98  C         19.0640   19.0950   22.7240 C.2   278  TYR278      0.2619
     99  O         18.0340   19.4500   22.1720 O.2   278  TYR278     -0.2715
    100  CB        21.2600   19.9330   22.0760 C.3   278  TYR278      0.0574
    101  CG        22.7170   19.6030   22.1570 C.ar  278  TYR278     -0.0198
    102  CD1       23.2350   18.9640   23.2710 C.ar  278  TYR278     -0.0009
    103  CD2       23.5930   20.0010   21.1540 C.ar  278  TYR278     -0.0009
    104  CE1       24.5870   18.7390   23.3950 C.ar  278  TYR278      0.0417
    105  CE2       24.9360   19.7840   21.2650 C.ar  278  TYR278      0.0417
    106  CZ        25.4330   19.1550   22.3930 C.ar  278  TYR278      0.1957
    107  OH        26.7890   18.9820   22.5330 O.3   278  TYR278     -0.2866
    108  N         19.1760   18.9290   24.0350 N.am  279  MET279     -0.1977
    109  CA        18.1140   19.2920   24.9580 C.3   279  MET279      0.1605
    110  C         18.8450   20.4500   25.6280 C.2   279  MET279      0.2287
    111  O         19.9520   20.2600   26.1340 O.2   279  MET279     -0.2864
    112  CB        17.8770   18.1990   25.9710 C.3   279  MET279      0.0413
    113  CG        16.9770   18.6720   27.0700 C.3   279  MET279      0.0598
    114  SD        16.1130   17.4940   28.1180 S.3   279  MET279     -0.1393
    115  CE        17.4620   16.9580   29.1190 C.3   279  MET279      0.0692
    116  N         21.5020   20.5040   28.4500 N.3   282  GLU282     -0.1245
    117  CA        22.8190   19.9200   28.2220 C.3   282  GLU282      0.1567
    118  C         23.9060   20.9640   27.9760 C.2   282  GLU282      0.2260
    119  O         25.0550   20.7970   28.4010 O.2   282  GLU282     -0.2867
    120  CB        22.7780   18.9620   27.0390 C.3   282  GLU282      0.0388
    121  CG        21.8690   17.7690   27.2210 C.3   282  GLU282      0.1160
    122  CD        21.9310   16.8330   26.0300 C.2   282  GLU282      0.3649
    123  OE1       22.9070   16.0460   25.9410 O.co2 282  GLU282     -0.2457
    124  OE2       21.0180   16.9000   25.1790 O.co2 282  GLU282     -0.2457
    125  N         27.2950   21.6930   30.2410 N.3   287  ASN287     -0.1240
    126  CA        28.5360   22.1040   29.5990 C.3   287  ASN287      0.1653
    127  C         29.0410   23.4840   30.0220 C.2   287  ASN287      0.2266
    128  O         30.2420   23.6770   30.1910 O.2   287  ASN287     -0.2867
    129  CB        28.3770   22.0410   28.0800 C.3   287  ASN287      0.1155
    130  CG        27.9560   20.6600   27.6030 C.2   287  ASN287      0.2627
    131  OD1       28.3100   19.6460   28.2160 O.2   287  ASN287     -0.2716
    132  ND2       27.2090   20.6120   26.5020 N.am  287  ASN287     -0.0877
@<TRIPOS>BOND
     1    77    76    1
     2    76    73    1
     3    94    92   ar
     4    94    95   ar
     5    75    74    2
     6    62    61    1
     7    62    63    1
     8    62    65    1
     9    72    73    1
    10    72    63   am
    11    92    89   ar
    12    81    80    2
    13    74    73    1
    14    74    78   am
    15    95    93   ar
    16    53    50    1
    17    63    64    2
    18    65    66    1
    19    79    78    1
    20    79    80    1
    21    13    11   ar
    22    13    14   ar
    23    80    82   am
    24    89    91   ar
    25    89    87   ar
    26    11     8   ar
    27    93    91   ar
    28    34    31    1
    29    34    35    1
    30    14    12   ar
    31    86    87    1
    32    86    83    1
    33    50    49    1
    34    50    51    1
    35    32    31    1
    36    32    33    2
    37    31    30    1
    38    91    90   ar
    39    42    48    1
    40    42    43    1
    41    48    47    1
    42    45    44    2
    43    82    83    1
    44    66    68   ar
    45    66    67   ar
    46    87    88   ar
    47    57    56    2
    48    83    84    1
    49    24    23    2
    50    23    22    1
    51    49    44   am
    52    68    70   ar
    53    44    43    1
    54    51    52    2
    55    51    54   am
    56     8    10   ar
    57     8     6   ar
    58    35    36   ar
    59    35    37   ar
    60    36    38   ar
    61    12    10   ar
    62    47    46    1
    63    67    69   ar
    64    56    55    1
    65    43    46    1
    66    90    88   ar
    67    54    55    1
    68     5     6    1
    69     5     2    1
    70    10     9   ar
    71     6     7   ar
    72    22    25    1
    73    22    21    1
    74    70    71   ar
    75    37    39   ar
    76    84    96   am
    77    84    85    2
    78    38    40   ar
    79     1     2    1
    80    55    58    1
    81    96    97    1
    82    25    26    1
    83    69    71   ar
    84     2     3    1
    85     9     7   ar
    86    39    40   ar
    87    40    41    1
    88   103   105   ar
    89   103   101   ar
    90    58    59    1
    91    58    60    1
    92   105   106   ar
    93     3     4    2
    94    26    27    1
    95    28    27    2
    96    97   100    1
    97    97    98    1
    98   100   101    1
    99   101   102   ar
   100    99    98    2
   101   106   107    1
   102   106   104   ar
   103    27    29   am
   104    98   108   am
   105   102   104   ar
   106    20    19    1
   107   108   109    1
   108   109   110    1
   109   109   112    1
   110   124   122   ar
   111    19    16    1
   112   110   111    2
   113   123   122   ar
   114   112   113    1
   115   122   121    1
   116   132   130   am
   117    16    17    1
   118    16    15    1
   119    18    17    2
   120   120   121    1
   121   120   117    1
   122   113   114    1
   123   130   129    1
   124   130   131    2
   125   118   117    1
   126   118   119    2
   127   129   126    1
   128   114   115    1
   129   117   116    1
   130   126   127    1
   131   126   125    1
   132   127   128    2
