@<TRIPOS>MOLECULE
tmp/3eaiA02.pdb
 184 183 0 0 0
SMALL
GASTEIGER

@<TRIPOS>ATOM
      1  N        119.7840  108.2140   27.5130 N.3   118  CYS118     -0.1235
      2  CA       120.6590  109.3240   27.1400 C.3   118  CYS118      0.1677
      3  C        120.2460  110.0030   25.8370 C.2   118  CYS118      0.2270
      4  O        120.2000  109.3690   24.7800 O.2   118  CYS118     -0.2867
      5  CB       122.0990  108.8600   26.9920 C.3   118  CYS118      0.0956
      6  SG       123.1440  110.1970   26.4070 S.3   118  CYS118     -0.0801
      7  N        127.0150  111.2890   41.7130 N.3   181  GLN181     -0.1245
      8  CA       127.6640  112.0870   40.6710 C.3   181  GLN181      0.1566
      9  C        128.9550  112.6520   41.2630 C.2   181  GLN181      0.2260
     10  O        129.0680  112.7980   42.4810 O.2   181  GLN181     -0.2867
     11  CB       126.7720  113.2570   40.2320 C.3   181  GLN181      0.0367
     12  CG       125.4370  112.8770   39.6100 C.3   181  GLN181      0.0905
     13  CD       124.4290  112.3620   40.6150 C.2   181  GLN181      0.2608
     14  OE1      124.1730  112.9930   41.6400 O.2   181  GLN181     -0.2717
     15  NE2      123.8350  111.2150   40.3160 N.am  181  GLN181     -0.0878
     16  N        128.3190  117.4920   43.3640 N.3   184  ARG184     -0.1245
     17  CA       126.9750  117.5460   43.9040 C.3   184  ARG184      0.1563
     18  C        127.0120  118.4080   45.1700 C.2   184  ARG184      0.2260
     19  O        128.0100  118.4060   45.8910 O.2   184  ARG184     -0.2867
     20  CB       126.5390  116.1100   44.2040 C.3   184  ARG184      0.0307
     21  CG       125.0730  115.9050   44.4180 C.3   184  ARG184      0.0489
     22  CD       124.2170  116.2600   43.1940 C.3   184  ARG184      0.2205
     23  NE       122.8330  116.3840   43.6420 N.pl3 184  ARG184     -0.0865
     24  CZ       122.0460  115.3520   43.9180 C.cat 184  ARG184      0.5346
     25  NH1      122.4890  114.1120   43.7690 N.pl3 184  ARG184      0.1354
     26  NH2      120.8320  115.5640   44.3980 N.pl3 184  ARG184      0.1354
     27  N        118.0090  116.8240   48.4300 N.3   200  ALA200     -0.1245
     28  CA       118.1810  115.5180   47.8110 C.3   200  ALA200      0.1562
     29  C        119.3690  114.7570   48.3730 C.2   200  ALA200      0.2260
     30  O        119.3900  113.5320   48.3470 O.2   200  ALA200     -0.2867
     31  CB       118.3310  115.6720   46.3020 C.3   200  ALA200      0.0290
     32  N        125.3660  127.0040   39.9500 N.3   264  TRP264     -0.1227
     33  CA       125.3550  125.5640   39.7640 C.3   264  TRP264      0.1737
     34  C        126.6580  125.1140   39.1330 C.2   264  TRP264      0.2595
     35  O        127.3090  125.8900   38.4380 O.2   264  TRP264     -0.2718
     36  CB       124.1770  125.1450   38.8830 C.3   264  TRP264      0.0564
     37  CG       123.7910  123.7330   39.1250 C.ar  264  TRP264      0.0003
     38  CD1      124.1340  122.6480   38.3750 C.ar  264  TRP264      0.0946
     39  CD2      123.0510  123.2320   40.2470 C.ar  264  TRP264      0.0152
     40  NE1      123.6550  121.5050   38.9600 N.ar  264  TRP264     -0.2442
     41  CE2      122.9850  121.8330   40.1100 C.ar  264  TRP264      0.0810
     42  CE3      122.4380  123.8350   41.3550 C.ar  264  TRP264      0.0012
     43  CZ2      122.3290  121.0170   41.0380 C.ar  264  TRP264      0.0191
     44  CZ3      121.7810  123.0210   42.2840 C.ar  264  TRP264      0.0001
     45  CH2      121.7350  121.6260   42.1150 C.ar  264  TRP264      0.0015
     46  N        127.0560  123.8700   39.3840 N.am  265  TYR265     -0.1976
     47  CA       128.2920  123.3730   38.7990 C.3   265  TYR265      0.1639
     48  C        128.1190  123.1470   37.3060 C.2   265  TYR265      0.2290
     49  O        127.0080  122.9420   36.8160 O.2   265  TYR265     -0.2864
     50  CB       128.7530  122.0780   39.4790 C.3   265  TYR265      0.0560
     51  CG       127.6590  121.0710   39.7850 C.ar  265  TYR265     -0.0198
     52  CD1      126.8700  121.1910   40.9330 C.ar  265  TYR265     -0.0009
     53  CD2      127.4310  119.9840   38.9410 C.ar  265  TYR265     -0.0009
     54  CE1      125.8850  120.2490   41.2320 C.ar  265  TYR265      0.0417
     55  CE2      126.4470  119.0420   39.2300 C.ar  265  TYR265      0.0417
     56  CZ       125.6770  119.1770   40.3740 C.ar  265  TYR265      0.1957
     57  OH       124.6900  118.2450   40.6470 O.3   265  TYR265     -0.2866
     58  N        128.4530  117.7030   34.5970 N.3   268  PRO268     -0.2102
     59  CA       127.4310  116.6770   34.8230 C.3   268  PRO268      0.1504
     60  C        128.1290  115.3210   34.7080 C.2   268  PRO268      0.2576
     61  O        128.3420  114.8160   33.5990 O.2   268  PRO268     -0.2718
     62  CB       126.4490  116.9320   33.6860 C.3   268  PRO268      0.0282
     63  CG       127.3770  117.2680   32.5490 C.3   268  PRO268      0.0208
     64  CD       128.4350  118.1580   33.1900 C.3   268  PRO268      0.0893
     65  N        128.5030  114.7390   35.8440 N.am  269  ALA269     -0.1966
     66  CA       129.2030  113.4600   35.8250 C.3   269  ALA269      0.1728
     67  C        128.5180  112.3780   36.6370 C.2   269  ALA269      0.2616
     68  O        128.3050  112.5300   37.8430 O.2   269  ALA269     -0.2715
     69  CB       130.6370  113.6420   36.3110 C.3   269  ALA269      0.0334
     70  N        128.1690  111.2870   35.9580 N.am  270  VAL270     -0.1977
     71  CA       127.5210  110.1390   36.5860 C.3   270  VAL270      0.1596
     72  C        128.6480  109.3700   37.2520 C.2   270  VAL270      0.2287
     73  O        129.6130  108.9850   36.5900 O.2   270  VAL270     -0.2864
     74  CB       126.8390  109.2500   35.5220 C.3   270  VAL270      0.0276
     75  CG1      126.2880  107.9780   36.1620 C.3   270  VAL270      0.0022
     76  CG2      125.7270  110.0420   34.8350 C.3   270  VAL270      0.0022
     77  N        131.5940  108.9590   34.3290 N.3   287  PHE287     -0.1227
     78  CA       131.6150  109.5070   32.9830 C.3   287  PHE287      0.1736
     79  C        130.7730  110.7630   32.9210 C.2   287  PHE287      0.2595
     80  O        129.8880  110.9760   33.7550 O.2   287  PHE287     -0.2718
     81  CB       131.1340  108.4640   31.9520 C.3   287  PHE287      0.0547
     82  CG       129.8130  107.8210   32.2850 C.ar  287  PHE287     -0.0202
     83  CD1      128.6180  108.5170   32.1230 C.ar  287  PHE287     -0.0042
     84  CD2      129.7650  106.5120   32.7590 C.ar  287  PHE287     -0.0042
     85  CE1      127.3950  107.9170   32.4300 C.ar  287  PHE287     -0.0003
     86  CE2      128.5450  105.9010   33.0680 C.ar  287  PHE287     -0.0003
     87  CZ       127.3610  106.6040   32.9040 C.ar  287  PHE287     -0.0000
     88  N        131.0500  111.5950   31.9260 N.am  288  ASN288     -0.1960
     89  CA       130.3270  112.8440   31.7890 C.3   288  ASN288      0.1819
     90  C        130.2450  113.3260   30.3510 C.2   288  ASN288      0.2622
     91  O        131.0100  112.9090   29.4810 O.2   288  ASN288     -0.2715
     92  CB       131.0410  113.9440   32.5720 C.3   288  ASN288      0.1195
     93  CG       132.3220  114.3830   31.8860 C.2   288  ASN288      0.2630
     94  OD1      133.3550  113.7270   31.9950 O.2   288  ASN288     -0.2716
     95  ND2      132.2490  115.4780   31.1380 N.am  288  ASN288     -0.0877
     96  N        129.3190  114.2510   30.1460 N.am  289  GLY289     -0.1940
     97  CA       129.1240  114.8940   28.8650 C.3   289  GLY289      0.2014
     98  C        128.9500  116.3210   29.3310 C.2   289  GLY289      0.2639
     99  O        129.6820  116.7530   30.2240 O.2   289  GLY289     -0.2714
    100  N        127.9960  117.0500   28.7590 N.am  290  TRP290     -0.1959
    101  CA       127.7350  118.4250   29.1840 C.3   290  TRP290      0.1771
    102  C        126.2580  118.5750   29.4650 C.2   290  TRP290      0.2620
    103  O        125.4390  117.8170   28.9620 O.2   290  TRP290     -0.2715
    104  CB       128.2010  119.4500   28.1360 C.3   290  TRP290      0.0590
    105  CG       127.7460  119.1910   26.7390 C.ar  290  TRP290      0.0006
    106  CD1      126.4790  119.3150   26.2490 C.ar  290  TRP290      0.0946
    107  CD2      128.5570  118.7390   25.6490 C.ar  290  TRP290      0.0152
    108  NE1      126.4500  118.9690   24.9190 N.ar  290  TRP290     -0.2442
    109  CE2      127.7110  118.6090   24.5250 C.ar  290  TRP290      0.0810
    110  CE3      129.9190  118.4290   25.5130 C.ar  290  TRP290      0.0012
    111  CZ2      128.1790  118.1790   23.2780 C.ar  290  TRP290      0.0191
    112  CZ3      130.3870  118.0020   24.2680 C.ar  290  TRP290      0.0001
    113  CH2      129.5140  117.8810   23.1690 C.ar  290  TRP290      0.0015
    114  N        125.9270  119.5540   30.2880 N.am  291  TYR291     -0.1960
    115  CA       124.5560  119.8040   30.6930 C.3   291  TYR291      0.1771
    116  C        123.5270  120.1860   29.6210 C.2   291  TYR291      0.2619
    117  O        123.8540  120.7520   28.5740 O.2   291  TYR291     -0.2715
    118  CB       124.5520  120.9010   31.7640 C.3   291  TYR291      0.0574
    119  CG       124.4560  120.4040   33.1890 C.ar  291  TYR291     -0.0198
    120  CD1      123.3100  119.7610   33.6460 C.ar  291  TYR291     -0.0009
    121  CD2      125.5040  120.5900   34.0860 C.ar  291  TYR291     -0.0009
    122  CE1      123.2070  119.3150   34.9570 C.ar  291  TYR291      0.0417
    123  CE2      125.4110  120.1470   35.4050 C.ar  291  TYR291      0.0417
    124  CZ       124.2610  119.5110   35.8350 C.ar  291  TYR291      0.1957
    125  OH       124.1530  119.0800   37.1410 O.3   291  TYR291     -0.2866
    126  N        122.2730  119.8460   29.9010 N.am  292  MET292     -0.1977
    127  CA       121.1640  120.2460   29.0540 C.3   292  MET292      0.1605
    128  C        120.4570  121.1890   30.0330 C.2   292  MET292      0.2287
    129  O        120.1360  120.7940   31.1580 O.2   292  MET292     -0.2864
    130  CB       120.2560  119.0660   28.6760 C.3   292  MET292      0.0413
    131  CG       119.0880  119.4840   27.7500 C.3   292  MET292      0.0598
    132  SD       118.1340  118.1300   26.9880 S.3   292  MET292     -0.1393
    133  CE       117.0540  117.6610   28.3810 C.3   292  MET292      0.0692
    134  N        117.8540  120.3830   33.0520 N.3   295  GLU295     -0.1245
    135  CA       118.2200  119.6300   34.2430 C.3   295  GLU295      0.1567
    136  C        118.3720  120.5970   35.4230 C.2   295  GLU295      0.2260
    137  O        117.8880  120.3400   36.5280 O.2   295  GLU295     -0.2867
    138  CB       119.5320  118.8820   34.0190 C.3   295  GLU295      0.0388
    139  CG       119.5460  117.9550   32.8110 C.3   295  GLU295      0.1160
    140  CD       120.7910  117.0890   32.7690 C.2   295  GLU295      0.3649
    141  OE1      120.9060  116.1850   33.6210 O.co2 295  GLU295     -0.2457
    142  OE2      121.6660  117.3130   31.9010 O.co2 295  GLU295     -0.2457
    143  N        116.6260  120.7300   39.0690 N.3   300  ASP300     -0.1239
    144  CA       117.3610  121.2270   40.2280 C.3   300  ASP300      0.1674
    145  C        116.7140  122.4280   40.9070 C.2   300  ASP300      0.2266
    146  O        116.5440  122.4260   42.1350 O.2   300  ASP300     -0.2867
    147  CB       118.7980  121.5740   39.8410 C.3   300  ASP300      0.1410
    148  CG       119.5750  120.3660   39.3790 C.2   300  ASP300      0.3668
    149  OD1      119.2640  119.2430   39.8500 O.co2 300  ASP300     -0.2456
    150  OD2      120.4980  120.5430   38.5540 O.co2 300  ASP300     -0.2456
    151  N        111.0650  119.1140   45.8380 N.3   305  GLN305     -0.1231
    152  CA       111.9350  118.4480   46.8000 C.3   305  GLN305      0.1698
    153  C        113.4150  118.7690   46.5820 C.2   305  GLN305      0.2592
    154  O        114.2970  118.1360   47.1690 O.2   305  GLN305     -0.2718
    155  CB       111.7010  116.9320   46.7680 C.3   305  GLN305      0.0381
    156  CG       112.4310  116.1520   45.6660 C.3   305  GLN305      0.0905
    157  CD       112.0110  116.5220   44.2420 C.2   305  GLN305      0.2608
    158  OE1      110.9220  117.0570   44.0040 O.2   305  GLN305     -0.2717
    159  NE2      112.8760  116.2120   43.2870 N.am  305  GLN305     -0.0878
    160  N        113.6870  119.7510   45.7290 N.am  306  ARG306     -0.1980
    161  CA       115.0580  120.1720   45.4770 C.3   306  ARG306      0.1597
    162  C        115.1730  121.6290   45.9330 C.2   306  ARG306      0.2287
    163  O        114.6910  121.9710   47.0130 O.2   306  ARG306     -0.2864
    164  CB       115.4050  120.0160   43.9950 C.3   306  ARG306      0.0334
    165  CG       115.3810  118.5600   43.5050 C.3   306  ARG306      0.0492
    166  CD       116.5130  117.7070   44.0870 C.3   306  ARG306      0.2205
    167  NE       117.8250  118.3090   43.8580 N.pl3 306  ARG306     -0.0865
    168  CZ       118.3820  118.4880   42.6630 C.cat 306  ARG306      0.5346
    169  NH1      117.7490  118.1000   41.5620 N.pl3 306  ARG306      0.1354
    170  NH2      119.5630  119.0870   42.5630 N.pl3 306  ARG306      0.1354
    171  N        112.3540  109.0660   29.5030 N.3   381  TRP381     -0.1241
    172  CA       113.5280  109.8260   29.9060 C.3   381  TRP381      0.1605
    173  C        114.0000  110.7760   28.8120 C.2   381  TRP381      0.2264
    174  O        114.6080  111.8090   29.0960 O.2   381  TRP381     -0.2867
    175  CB       114.6680  108.8800   30.2880 C.3   381  TRP381      0.0550
    176  CG       114.6730  108.5040   31.7240 C.ar  381  TRP381      0.0003
    177  CD1      113.6900  107.8550   32.4060 C.ar  381  TRP381      0.0946
    178  CD2      115.7130  108.7690   32.6730 C.ar  381  TRP381      0.0152
    179  NE1      114.0500  107.6980   33.7240 N.ar  381  TRP381     -0.2442
    180  CE2      115.2900  108.2500   33.9130 C.ar  381  TRP381      0.0810
    181  CE3      116.9630  109.3950   32.5940 C.ar  381  TRP381      0.0012
    182  CZ2      116.0740  108.3360   35.0690 C.ar  381  TRP381      0.0191
    183  CZ3      117.7430  109.4820   33.7470 C.ar  381  TRP381      0.0001
    184  CH2      117.2940  108.9540   34.9650 C.ar  381  TRP381      0.0015
@<TRIPOS>BOND
     1   113   111   ar
     2   113   112   ar
     3   111   109   ar
     4   112   110   ar
     5   109   108   ar
     6   109   107   ar
     7     4     3    2
     8   108   106   ar
     9   110   107   ar
    10   107   105   ar
    11     3     2    1
    12   106   105   ar
    13     6     5    1
    14   105   104    1
    15   132   131    1
    16   132   133    1
    17     5     2    1
    18     2     1    1
    19   131   130    1
    20   104   101    1
    21   117   116    2
    22   130   127    1
    23   100   101    1
    24   100    98   am
    25   173   174    2
    26   173   172    1
    27    97    98    1
    28    97    96    1
    29   103   102    2
    30   127   126    1
    31   127   128    1
    32   101   102    1
    33    98    99    2
    34   102   114   am
    35    91    90    2
    36   171   172    1
    37   116   126   am
    38   116   115    1
    39   172   175    1
    40   128   129    2
    41    96    90   am
    42   114   115    1
    43   175   176    1
    44    90    89    1
    45   115   118    1
    46    95    93   am
    47   176   177   ar
    48   176   178   ar
    49   118   119    1
    50    89    88    1
    51    89    92    1
    52    93    94    2
    53    93    92    1
    54   142   140   ar
    55    88    79   am
    56    81    82    1
    57    81    78    1
    58    83    82   ar
    59    83    85   ar
    60    82    84   ar
    61   177   179   ar
    62    85    87   ar
    63    63    64    1
    64    63    62    1
    65   181   178   ar
    66   181   183   ar
    67   178   180   ar
    68    84    86   ar
    69   140   139    1
    70   140   141   ar
    71   139   138    1
    72    87    86   ar
    73    79    78    1
    74    79    80    2
    75    78    77    1
    76   134   135    1
    77   119   120   ar
    78   119   121   ar
    79    64    58    1
    80    61    60    2
    81   120   122   ar
    82    62    59    1
    83   179   180   ar
    84   183   184   ar
    85   180   182   ar
    86   138   135    1
    87   121   123   ar
    88   135   136    1
    89    58    59    1
    90    60    59    1
    91    60    65   am
    92    76    74    1
    93   122   124   ar
    94   184   182   ar
    95   123   124   ar
    96   136   137    2
    97    74    75    1
    98    74    71    1
    99    66    65    1
   100    66    69    1
   101    66    67    1
   102   124   125    1
   103    70    71    1
   104    70    67   am
   105    71    72    1
   106    73    72    2
   107    67    68    2
   108    49    48    2
   109    48    47    1
   110    38    40   ar
   111    38    37   ar
   112    35    34    2
   113   150   148   ar
   114    47    46    1
   115    47    50    1
   116    36    37    1
   117    36    33    1
   118    53    55   ar
   119    53    51   ar
   120    40    41   ar
   121   143   144    1
   122    37    39   ar
   123    34    46   am
   124    34    33    1
   125    55    56   ar
   126   148   147    1
   127   148   149   ar
   128    50    51    1
   129    12    11    1
   130    12    13    1
   131    33    32    1
   132    51    52   ar
   133   147   144    1
   134    41    39   ar
   135    41    43   ar
   136   144   145    1
   137    11     8    1
   138    39    42   ar
   139    15    13   am
   140    56    57    1
   141    56    54   ar
   142    13    14    2
   143     8     9    1
   144     8     7    1
   145   145   146    2
   146    52    54   ar
   147    43    45   ar
   148     9    10    2
   149    42    44   ar
   150   169   168    1
   151    45    44   ar
   152   170   168    1
   153   168   167    2
   154    22    23    1
   155    22    21    1
   156   159   157   am
   157    16    17    1
   158   165   164    1
   159   165   166    1
   160    23    24    2
   161    25    24    1
   162   167   166    1
   163    17    20    1
   164    17    18    1
   165    24    26    1
   166   164   161    1
   167   158   157    2
   168    20    21    1
   169   157   156    1
   170    18    19    2
   171   161   160    1
   172   161   162    1
   173   156   155    1
   174   160   153   am
   175   151   152    1
   176   162   163    2
   177    31    28    1
   178   153   152    1
   179   153   154    2
   180   155   152    1
   181    28    29    1
   182    28    27    1
   183    30    29    2
