@<TRIPOS>MOLECULE
tmp/3eamD03.pdb
 83 78 0 0 0
SMALL
GASTEIGER

@<TRIPOS>ATOM
      1  N         69.6620  -43.6260   46.0230 N.3   260  LEU260     -0.1231
      2  CA        70.3790  -44.5980   46.8270 C.3   260  LEU260      0.1693
      3  C         71.4680  -43.9420   47.6610 C.2   260  LEU260      0.2592
      4  O         71.6230  -44.2250   48.8790 O.2   260  LEU260     -0.2718
      5  CB        70.9430  -45.7090   45.9590 C.3   260  LEU260      0.0284
      6  CG        69.8890  -46.6810   45.4050 C.3   260  LEU260      0.0019
      7  CD1       70.4620  -47.6550   44.3830 C.3   260  LEU260      0.0001
      8  CD2       69.1740  -47.4420   46.5370 C.3   260  LEU260      0.0001
      9  N         72.1980  -43.0240   47.0290 N.am  261  PHE261     -0.1976
     10  CA        73.1500  -42.2350   47.8050 C.3   261  PHE261      0.1639
     11  C         72.5390  -41.4500   48.9730 C.2   261  PHE261      0.2290
     12  O         73.1060  -41.4380   50.0530 O.2   261  PHE261     -0.2864
     13  CB        73.9960  -41.3550   46.9140 C.3   261  PHE261      0.0560
     14  CG        75.0540  -42.1080   46.1860 C.ar  261  PHE261     -0.0200
     15  CD1       76.3740  -42.0310   46.5960 C.ar  261  PHE261     -0.0042
     16  CD2       74.7460  -42.8980   45.0520 C.ar  261  PHE261     -0.0042
     17  CE1       77.3850  -42.7340   45.9080 C.ar  261  PHE261     -0.0003
     18  CE2       75.7590  -43.5870   44.3570 C.ar  261  PHE261     -0.0003
     19  CZ        77.0610  -43.5090   44.8160 C.ar  261  PHE261     -0.0000
     20  N         71.5940  -43.9440   51.7650 N.3   264  VAL264     -0.1245
     21  CA        72.7250  -44.3990   52.5660 C.3   264  VAL264      0.1561
     22  C         73.3430  -43.2720   53.4480 C.2   264  VAL264      0.2260
     23  O         73.5420  -43.4720   54.6550 O.2   264  VAL264     -0.2867
     24  CB        73.8080  -45.1390   51.7080 C.3   264  VAL264      0.0252
     25  CG1       74.9930  -45.5190   52.5650 C.3   264  VAL264      0.0019
     26  CG2       73.2490  -46.3830   51.0420 C.3   264  VAL264      0.0019
     27  N         74.0140  -43.1910   57.3830 N.3   268  GLU268     -0.1245
     28  CA        75.2620  -42.8850   58.0390 C.3   268  GLU268      0.1567
     29  C         75.0470  -41.8040   59.0630 C.2   268  GLU268      0.2260
     30  O         75.5880  -41.8560   60.1620 O.2   268  GLU268     -0.2867
     31  CB        76.3210  -42.4460   57.0610 C.3   268  GLU268      0.0388
     32  CG        77.7260  -42.2630   57.6600 C.3   268  GLU268      0.1160
     33  CD        77.9300  -40.8870   58.3070 C.2   268  GLU268      0.3649
     34  OE1       77.0760  -39.9700   58.1330 O.co2 268  GLU268     -0.2457
     35  OE2       78.9610  -40.7100   59.0130 O.co2 268  GLU268     -0.2457
     36  N         85.1670  -42.9230   62.9000 N.3   286  SER286     -0.1202
     37  CA        85.8820  -43.5860   61.8250 C.3   286  SER286      0.2020
     38  C         84.9500  -44.0740   60.7480 C.2   286  SER286      0.2618
     39  O         85.3770  -44.2200   59.5930 O.2   286  SER286     -0.2717
     40  CB        86.8300  -44.6880   62.3070 C.3   286  SER286      0.2103
     41  OG        86.1340  -45.4750   63.1920 O.3   286  SER286     -0.2182
     42  N         83.6810  -44.2910   61.0880 N.am  287  ILE287     -0.1979
     43  CA        82.6670  -44.4370   60.0630 C.3   287  ILE287      0.1595
     44  C         82.5320  -43.1580   59.2230 C.2   287  ILE287      0.2287
     45  O         82.5030  -43.2390   57.9970 O.2   287  ILE287     -0.2864
     46  CB        81.3680  -44.8280   60.6590 C.3   287  ILE287      0.0276
     47  CG1       81.4850  -46.2540   61.1070 C.3   287  ILE287      0.0022
     48  CG2       80.3140  -44.8100   59.6150 C.3   287  ILE287      0.0022
     49  CD1       80.4710  -46.6370   62.0990 C.3   287  ILE287      0.0001
     50  N         85.6280  -42.6000   57.0790 N.3   290  ALA290     -0.1231
     51  CA        85.5870  -43.4460   55.9170 C.3   290  ALA290      0.1694
     52  C         84.6740  -42.8460   54.8110 C.2   290  ALA290      0.2592
     53  O         85.0380  -42.7730   53.6120 O.2   290  ALA290     -0.2718
     54  CB        85.1520  -44.8070   56.3070 C.3   290  ALA290      0.0304
     55  N         83.5170  -42.3490   55.2340 N.am  291  SER291     -0.1952
     56  CA        82.4720  -41.9350   54.3180 C.3   291  SER291      0.1924
     57  C         82.9130  -40.7810   53.4700 C.2   291  SER291      0.2314
     58  O         82.5660  -40.7080   52.2890 O.2   291  SER291     -0.2863
     59  CB        81.2240  -41.6020   55.0960 C.3   291  SER291      0.2116
     60  OG        80.7890  -42.8070   55.7150 O.3   291  SER291     -0.2180
     61  N         84.6700  -42.8440   50.8860 N.3   294  ALA294     -0.1231
     62  CA        83.8270  -43.8250   50.2130 C.3   294  ALA294      0.1694
     63  C         82.7720  -43.1990   49.2850 C.2   294  ALA294      0.2592
     64  O         82.7100  -43.5330   48.0960 O.2   294  ALA294     -0.2718
     65  CB        83.1740  -44.8220   51.2110 C.3   294  ALA294      0.0304
     66  N         81.9540  -42.2880   49.8070 N.am  295  PHE295     -0.1976
     67  CA        80.9050  -41.6940   49.0080 C.3   295  PHE295      0.1639
     68  C         81.3610  -41.1560   47.6320 C.2   295  PHE295      0.2290
     69  O         80.8810  -41.6310   46.6020 O.2   295  PHE295     -0.2864
     70  CB        80.1510  -40.6510   49.8330 C.3   295  PHE295      0.0560
     71  CG        79.1070  -41.2610   50.7580 C.ar  295  PHE295     -0.0200
     72  CD1       77.7470  -41.2130   50.4180 C.ar  295  PHE295     -0.0042
     73  CD2       79.4900  -41.9410   51.9410 C.ar  295  PHE295     -0.0042
     74  CE1       76.7620  -41.7960   51.2290 C.ar  295  PHE295     -0.0003
     75  CE2       78.5170  -42.5390   52.7560 C.ar  295  PHE295     -0.0003
     76  CZ        77.1300  -42.4560   52.4020 C.ar  295  PHE295     -0.0000
     77  N         82.8240  -44.2540   45.4750 N.3   298  VAL298     -0.1245
     78  CA        81.8080  -45.1280   44.9410 C.3   298  VAL298      0.1561
     79  C         80.8610  -44.3830   43.9910 C.2   298  VAL298      0.2260
     80  O         80.3240  -44.9650   43.0490 O.2   298  VAL298     -0.2867
     81  CB        80.9810  -45.8040   46.0470 C.3   298  VAL298      0.0252
     82  CG1       79.9090  -46.7450   45.4590 C.3   298  VAL298      0.0019
     83  CG2       81.8860  -46.5370   47.0180 C.3   298  VAL298      0.0019
@<TRIPOS>BOND
     1    80    79    2
     2    79    78    1
     3    18    19   ar
     4    18    16   ar
     5     7     6    1
     6    19    17   ar
     7    78    77    1
     8    78    81    1
     9    16    14   ar
    10     6     5    1
    11     6     8    1
    12    82    81    1
    13    17    15   ar
    14     5     2    1
    15     1     2    1
    16    81    83    1
    17    14    15   ar
    18    14    13    1
    19    69    68    2
    20     2     3    1
    21    13    10    1
    22     9     3   am
    23     9    10    1
    24    68    67    1
    25     3     4    2
    26    10    11    1
    27    64    63    2
    28    11    12    2
    29    67    66    1
    30    67    70    1
    31    63    66   am
    32    63    62    1
    33    70    71    1
    34    62    61    1
    35    62    65    1
    36    72    71   ar
    37    72    74   ar
    38    71    73   ar
    39    26    24    1
    40    74    76   ar
    41    24    25    1
    42    24    21    1
    43    20    21    1
    44    73    75   ar
    45    58    57    2
    46    76    75   ar
    47    21    22    1
    48    22    23    2
    49    57    56    1
    50    53    52    2
    51    56    59    1
    52    56    55    1
    53    52    55   am
    54    52    51    1
    55    59    60    1
    56    51    54    1
    57    51    50    1
    58    31    32    1
    59    31    28    1
    60    27    28    1
    61    32    33    1
    62    45    44    2
    63    28    29    1
    64    34    33   ar
    65    33    35   ar
    66    29    30    2
    67    44    43    1
    68    39    38    2
    69    48    46    1
    70    43    46    1
    71    43    42    1
    72    46    47    1
    73    38    42   am
    74    38    37    1
    75    47    49    1
    76    37    40    1
    77    37    36    1
    78    40    41    1
