@<TRIPOS>MOLECULE
tmp/3eamE04.pdb
 117 109 0 0 0
SMALL
GASTEIGER

@<TRIPOS>ATOM
      1  N         76.0940  -19.2130   37.6250 N.3   257  MET257     -0.1245
      2  CA        77.0760  -18.6930   38.5060 C.3   257  MET257      0.1570
      3  C         76.5900  -18.7140   39.9690 C.2   257  MET257      0.2261
      4  O         77.3380  -19.1520   40.8900 O.2   257  MET257     -0.2867
      5  CB        77.3970  -17.2910   38.0910 C.3   257  MET257      0.0387
      6  CG        78.7150  -16.8630   38.6600 C.3   257  MET257      0.0595
      7  SD        78.9160  -15.1320   38.2640 S.3   257  MET257     -0.1393
      8  CE        77.4970  -14.3300   39.0340 C.3   257  MET257      0.0692
      9  N         77.2460  -21.4440   42.1450 N.3   260  LEU260     -0.1231
     10  CA        78.6310  -21.6010   42.5960 C.3   260  LEU260      0.1693
     11  C         78.8330  -20.8740   43.9160 C.2   260  LEU260      0.2592
     12  O         79.5380  -21.3470   44.8490 O.2   260  LEU260     -0.2718
     13  CB        79.6230  -21.1350   41.5330 C.3   260  LEU260      0.0284
     14  CG        79.7740  -22.0780   40.3140 C.3   260  LEU260      0.0019
     15  CD1       80.5980  -21.4570   39.1640 C.3   260  LEU260      0.0001
     16  CD2       80.3640  -23.4190   40.7350 C.3   260  LEU260      0.0001
     17  N         78.1560  -19.7420   44.0250 N.am  261  PHE261     -0.1976
     18  CA        78.1880  -18.9980   45.2560 C.3   261  PHE261      0.1639
     19  C         77.5760  -19.7630   46.3840 C.2   261  PHE261      0.2290
     20  O         78.1300  -19.8010   47.4420 O.2   261  PHE261     -0.2864
     21  CB        77.5380  -17.6250   45.0730 C.3   261  PHE261      0.0560
     22  CG        78.4520  -16.6230   44.4170 C.ar  261  PHE261     -0.0200
     23  CD1       79.1030  -15.6500   45.1840 C.ar  261  PHE261     -0.0042
     24  CD2       78.6740  -16.6450   43.0470 C.ar  261  PHE261     -0.0042
     25  CE1       79.9350  -14.7170   44.5930 C.ar  261  PHE261     -0.0003
     26  CE2       79.5310  -15.7020   42.4570 C.ar  261  PHE261     -0.0003
     27  CZ        80.1600  -14.7570   43.2210 C.ar  261  PHE261     -0.0000
     28  N         79.9720  -22.5220   47.4360 N.3   264  VAL264     -0.1245
     29  CA        81.0730  -22.0380   48.2610 C.3   264  VAL264      0.1561
     30  C         80.6560  -21.4950   49.6540 C.2   264  VAL264      0.2260
     31  O         81.3210  -21.7680   50.6450 O.2   264  VAL264     -0.2867
     32  CB        82.0040  -21.0710   47.5270 C.3   264  VAL264      0.0252
     33  CG1       83.1440  -20.6910   48.4510 C.3   264  VAL264      0.0019
     34  CG2       82.5460  -21.7150   46.2630 C.3   264  VAL264      0.0019
     35  N         80.4300  -24.6520   51.8140 N.3   267  ILE267     -0.1231
     36  CA        81.7690  -24.9970   52.2380 C.3   267  ILE267      0.1692
     37  C         82.1590  -24.0860   53.4010 C.2   267  ILE267      0.2591
     38  O         82.5060  -24.5730   54.4740 O.2   267  ILE267     -0.2718
     39  CB        82.7780  -24.8000   51.1150 C.3   267  ILE267      0.0266
     40  CG1       82.3340  -25.5100   49.8490 C.3   267  ILE267      0.0019
     41  CG2       84.0910  -25.3430   51.5100 C.3   267  ILE267      0.0020
     42  CD1       82.4240  -26.9800   49.9660 C.3   267  ILE267      0.0001
     43  N         82.0990  -22.7650   53.2220 N.am  268  GLU268     -0.1979
     44  CA        82.5280  -21.8510   54.3100 C.3   268  GLU268      0.1602
     45  C         81.8200  -22.1230   55.6300 C.2   268  GLU268      0.2287
     46  O         82.4350  -22.2200   56.6780 O.2   268  GLU268     -0.2864
     47  CB        82.3360  -20.3710   53.9390 C.3   268  GLU268      0.0415
     48  CG        82.9520  -19.3840   54.9290 C.3   268  GLU268      0.1163
     49  CD        82.0580  -19.1050   56.0990 C.2   268  GLU268      0.3649
     50  OE1       80.8850  -19.5090   56.0490 O.co2 268  GLU268     -0.2457
     51  OE2       82.5130  -18.4620   57.0790 O.co2 268  GLU268     -0.2457
     52  N         83.3920  -25.1960   56.9570 N.3   271  VAL271     -0.1245
     53  CA        84.7340  -25.0830   57.4600 C.3   271  VAL271      0.1561
     54  C         84.7420  -24.3810   58.8410 C.2   271  VAL271      0.2260
     55  O         85.3360  -24.8640   59.8320 O.2   271  VAL271     -0.2867
     56  CB        85.5300  -24.2960   56.4910 C.3   271  VAL271      0.0252
     57  CG1       86.7730  -23.7340   57.1750 C.3   271  VAL271      0.0019
     58  CG2       85.8760  -25.1960   55.3760 C.3   271  VAL271      0.0019
     59  N         90.8350  -19.0470   63.7360 N.3   283  ARG283     -0.1245
     60  CA        90.9770  -19.2010   62.2650 C.3   283  ARG283      0.1563
     61  C         89.5950  -19.0600   61.6450 C.2   283  ARG283      0.2260
     62  O         89.3870  -18.2940   60.6870 O.2   283  ARG283     -0.2867
     63  CB        91.6170  -20.5250   61.7890 C.3   283  ARG283      0.0307
     64  CG        93.0350  -20.8060   62.3390 C.3   283  ARG283      0.0489
     65  CD        94.0580  -21.4620   61.3590 C.3   283  ARG283      0.2205
     66  NE        93.5190  -22.5260   60.4900 N.pl3 283  ARG283     -0.0865
     67  CZ        93.4900  -22.4780   59.1480 C.cat 283  ARG283      0.5346
     68  NH1       93.9840  -21.3990   58.5090 N.pl3 283  ARG283      0.1354
     69  NH2       92.9580  -23.5060   58.4490 N.pl3 283  ARG283      0.1354
     70  N         88.4100  -15.5750   61.1910 N.3   286  SER286     -0.1202
     71  CA        88.9650  -14.6750   60.2470 C.3   286  SER286      0.2020
     72  C         88.7040  -15.1430   58.8240 C.2   286  SER286      0.2618
     73  O         88.6750  -14.3060   57.8880 O.2   286  SER286     -0.2717
     74  CB        90.4140  -14.4280   60.5430 C.3   286  SER286      0.2103
     75  OG        91.0780  -15.5950   60.2800 O.3   286  SER286     -0.2182
     76  N         88.4140  -16.4440   58.6570 N.am  287  ILE287     -0.1979
     77  CA        87.7710  -16.9020   57.4330 C.3   287  ILE287      0.1595
     78  C         86.3720  -16.2410   57.2400 C.2   287  ILE287      0.2287
     79  O         86.0420  -15.7300   56.1800 O.2   287  ILE287     -0.2864
     80  CB        87.6820  -18.3890   57.3970 C.3   287  ILE287      0.0276
     81  CG1       89.0590  -18.9710   57.1620 C.3   287  ILE287      0.0022
     82  CG2       86.8690  -18.7820   56.2130 C.3   287  ILE287      0.0022
     83  CD1       89.1600  -20.3980   57.5910 C.3   287  ILE287      0.0001
     84  N         86.7530  -12.5200   56.4790 N.3   290  ALA290     -0.1231
     85  CA        87.1420  -12.3560   55.1020 C.3   290  ALA290      0.1694
     86  C         85.9210  -12.4940   54.1760 C.2   290  ALA290      0.2592
     87  O         85.6920  -11.6450   53.2970 O.2   290  ALA290     -0.2718
     88  CB        88.2340  -13.3940   54.7420 C.3   290  ALA290      0.0304
     89  N         85.1220  -13.5420   54.4030 N.am  291  SER291     -0.1952
     90  CA        83.9840  -13.8780   53.5480 C.3   291  SER291      0.1924
     91  C         82.9550  -12.7480   53.4570 C.2   291  SER291      0.2314
     92  O         82.4180  -12.4790   52.3600 O.2   291  SER291     -0.2863
     93  CB        83.3500  -15.1710   54.0320 C.3   291  SER291      0.2116
     94  OG        84.3600  -16.1520   54.0690 O.3   291  SER291     -0.2180
     95  N         84.7410  -10.7050   50.7640 N.3   294  ALA294     -0.1231
     96  CA        85.0280  -11.4510   49.5360 C.3   294  ALA294      0.1694
     97  C         83.7700  -11.7440   48.7310 C.2   294  ALA294      0.2592
     98  O         83.6910  -11.3600   47.5380 O.2   294  ALA294     -0.2718
     99  CB        85.8060  -12.7550   49.8070 C.3   294  ALA294      0.0304
    100  N         82.8100  -12.4320   49.3510 N.am  295  PHE295     -0.1976
    101  CA        81.5800  -12.7700   48.6910 C.3   295  PHE295      0.1639
    102  C         80.9440  -11.6180   47.8930 C.2   295  PHE295      0.2290
    103  O         80.8820  -11.6740   46.6540 O.2   295  PHE295     -0.2864
    104  CB        80.6060  -13.4220   49.6890 C.3   295  PHE295      0.0560
    105  CG        80.8710  -14.9010   49.8880 C.ar  295  PHE295     -0.0200
    106  CD1       80.1260  -15.8610   49.2000 C.ar  295  PHE295     -0.0042
    107  CD2       81.9220  -15.3250   50.7000 C.ar  295  PHE295     -0.0042
    108  CE1       80.4120  -17.2410   49.3290 C.ar  295  PHE295     -0.0003
    109  CE2       82.2200  -16.6730   50.8190 C.ar  295  PHE295     -0.0003
    110  CZ        81.4570  -17.6510   50.1270 C.ar  295  PHE295     -0.0000
    111  N         83.5640  -10.3920   45.1110 N.3   298  VAL298     -0.1245
    112  CA        83.7240  -11.3080   43.9880 C.3   298  VAL298      0.1561
    113  C         82.4470  -11.4300   43.1870 C.2   298  VAL298      0.2260
    114  O         82.4950  -11.7300   41.9960 O.2   298  VAL298     -0.2867
    115  CB        84.1560  -12.6910   44.4130 C.3   298  VAL298      0.0252
    116  CG1       84.3640  -13.5910   43.1630 C.3   298  VAL298      0.0019
    117  CG2       85.4220  -12.5930   45.2360 C.3   298  VAL298      0.0019
@<TRIPOS>BOND
     1     1     2    1
     2     5     2    1
     3     5     6    1
     4     7     6    1
     5     7     8    1
     6     2     3    1
     7    15    14    1
     8     3     4    2
     9    14    16    1
    10    14    13    1
    11    13    10    1
    12   114   113    2
    13     9    10    1
    14    26    24   ar
    15    26    27   ar
    16    10    11    1
    17    24    22   ar
    18   116   115    1
    19   113   112    1
    20    27    25   ar
    21    11    17   am
    22    11    12    2
    23   112   115    1
    24   112   111    1
    25    17    18    1
    26   115   117    1
    27    22    21    1
    28    22    23   ar
    29    25    23   ar
    30    21    18    1
    31    18    19    1
    32    34    32    1
    33    19    20    2
    34   103   102    2
    35    28    29    1
    36    32    29    1
    37    32    33    1
    38    98    97    2
    39   102   101    1
    40    29    30    1
    41   101   100    1
    42   101   104    1
    43    97   100   am
    44    97    96    1
    45   106   108   ar
    46   106   105   ar
    47   108   110   ar
    48    96    99    1
    49    96    95    1
    50    30    31    2
    51   104   105    1
    52    40    42    1
    53    40    39    1
    54   105   107   ar
    55   110   109   ar
    56   107   109   ar
    57    39    41    1
    58    39    36    1
    59    35    36    1
    60    36    37    1
    61    92    91    2
    62    43    37   am
    63    43    44    1
    64    87    86    2
    65    37    38    2
    66    91    90    1
    67    90    93    1
    68    90    89    1
    69    47    44    1
    70    47    48    1
    71    93    94    1
    72    86    89   am
    73    86    85    1
    74    44    45    1
    75    88    85    1
    76    48    49    1
    77    85    84    1
    78    58    56    1
    79    45    46    2
    80    50    49   ar
    81    49    51   ar
    82    79    78    2
    83    82    80    1
    84    56    57    1
    85    56    53    1
    86    52    53    1
    87    81    80    1
    88    81    83    1
    89    78    77    1
    90    80    77    1
    91    77    76    1
    92    53    54    1
    93    73    72    2
    94    69    67    1
    95    68    67    1
    96    76    72   am
    97    72    71    1
    98    54    55    2
    99    67    66    2
   100    71    74    1
   101    71    70    1
   102    75    74    1
   103    66    65    1
   104    62    61    2
   105    65    64    1
   106    61    60    1
   107    63    60    1
   108    63    64    1
   109    60    59    1
