@<TRIPOS>MOLECULE
tmp/3eamE02.pdb
 90 84 0 0 0
SMALL
GASTEIGER

@<TRIPOS>ATOM
      1  N         77.2790  -23.0010   46.7270 N.3   263  PHE263     -0.1241
      2  CA        78.1300  -24.0960   47.0270 C.3   263  PHE263      0.1605
      3  C         79.2970  -23.5950   47.8670 C.2   263  PHE263      0.2264
      4  O         79.5670  -24.1680   48.9540 O.2   263  PHE263     -0.2867
      5  CB        78.6420  -24.7400   45.7550 C.3   263  PHE263      0.0534
      6  CG        79.3810  -26.0010   45.9990 C.ar  263  PHE263     -0.0203
      7  CD1       78.7130  -27.1280   46.3550 C.ar  263  PHE263     -0.0042
      8  CD2       80.7400  -26.0510   45.8930 C.ar  263  PHE263     -0.0042
      9  CE1       79.4080  -28.2930   46.6110 C.ar  263  PHE263     -0.0003
     10  CE2       81.4450  -27.2040   46.1460 C.ar  263  PHE263     -0.0003
     11  CZ        80.7880  -28.3160   46.5060 C.ar  263  PHE263     -0.0000
     12  N         80.4300  -24.6520   51.8140 N.3   267  ILE267     -0.1245
     13  CA        81.7690  -24.9970   52.2380 C.3   267  ILE267      0.1561
     14  C         82.1590  -24.0860   53.4010 C.2   267  ILE267      0.2260
     15  O         82.5060  -24.5730   54.4740 O.2   267  ILE267     -0.2867
     16  CB        82.7780  -24.8000   51.1150 C.3   267  ILE267      0.0252
     17  CG1       82.3340  -25.5100   49.8490 C.3   267  ILE267      0.0019
     18  CG2       84.0910  -25.3430   51.5100 C.3   267  ILE267      0.0019
     19  CD1       82.4240  -26.9800   49.9660 C.3   267  ILE267      0.0001
     20  N         80.6520  -24.7780   56.4950 N.3   270  THR270     -0.1203
     21  CA        81.1160  -26.0740   56.9620 C.3   270  THR270      0.1994
     22  C         82.4960  -25.9070   57.6270 C.2   270  THR270      0.2617
     23  O         82.7580  -26.4170   58.7250 O.2   270  THR270     -0.2717
     24  CB        81.2420  -27.0870   55.7920 C.3   270  THR270      0.1784
     25  OG1       79.9700  -27.2950   55.1550 O.3   270  THR270     -0.2211
     26  CG2       81.7180  -28.4000   56.3070 C.3   270  THR270      0.0376
     27  N         83.3920  -25.1960   56.9570 N.am  271  VAL271     -0.1979
     28  CA        84.7340  -25.0830   57.4600 C.3   271  VAL271      0.1595
     29  C         84.7420  -24.3810   58.8410 C.2   271  VAL271      0.2287
     30  O         85.3360  -24.8640   59.8320 O.2   271  VAL271     -0.2864
     31  CB        85.5300  -24.2960   56.4910 C.3   271  VAL271      0.0276
     32  CG1       86.7730  -23.7340   57.1750 C.3   271  VAL271      0.0022
     33  CG2       85.8760  -25.1960   55.3760 C.3   271  VAL271      0.0022
     34  N         83.5540  -26.7230   61.5120 N.3   274  TYR274     -0.1227
     35  CA        84.6040  -27.6930   61.7490 C.3   274  TYR274      0.1736
     36  C         85.7140  -27.1270   62.6410 C.2   274  TYR274      0.2595
     37  O         86.0890  -27.7490   63.6530 O.2   274  TYR274     -0.2718
     38  CB        85.1900  -28.1140   60.4040 C.3   274  TYR274      0.0548
     39  CG        86.0910  -29.2850   60.4910 C.ar  274  TYR274     -0.0200
     40  CD1       87.4570  -29.1260   60.5790 C.ar  274  TYR274     -0.0009
     41  CD2       85.5810  -30.5450   60.5180 C.ar  274  TYR274     -0.0009
     42  CE1       88.2770  -30.1970   60.6840 C.ar  274  TYR274      0.0417
     43  CE2       86.3790  -31.6180   60.6130 C.ar  274  TYR274      0.0417
     44  CZ        87.7340  -31.4480   60.6980 C.ar  274  TYR274      0.1957
     45  OH        88.5430  -32.5650   60.7880 O.3   274  TYR274     -0.2866
     46  N         86.2490  -25.9550   62.2750 N.am  275  LEU275     -0.1980
     47  CA        87.3290  -25.3480   63.0410 C.3   275  LEU275      0.1596
     48  C         86.8480  -25.0770   64.4290 C.2   275  LEU275      0.2287
     49  O         87.4900  -25.4450   65.3750 O.2   275  LEU275     -0.2864
     50  CB        87.7990  -24.0810   62.4050 C.3   275  LEU275      0.0297
     51  CG        88.5180  -24.3330   61.0780 C.3   275  LEU275      0.0022
     52  CD1       88.6750  -23.0520   60.3660 C.3   275  LEU275      0.0001
     53  CD2       89.9000  -24.9730   61.2080 C.3   275  LEU275      0.0001
     54  N         86.8420  -27.9730   66.6840 N.3   278  GLU278     -0.1245
     55  CA        88.1830  -28.5250   66.7820 C.3   278  GLU278      0.1567
     56  C         88.9830  -27.5370   67.5850 C.2   278  GLU278      0.2260
     57  O         90.2350  -27.4650   67.5470 O.2   278  GLU278     -0.2867
     58  CB        88.7410  -28.5940   65.3930 C.3   278  GLU278      0.0388
     59  CG        89.7890  -29.5560   65.2060 C.3   278  GLU278      0.1160
     60  CD        90.3540  -29.3770   63.8300 C.2   278  GLU278      0.3649
     61  OE1       90.5800  -28.1960   63.4100 O.co2 278  GLU278     -0.2457
     62  OE2       90.5510  -30.4330   63.1640 O.co2 278  GLU278     -0.2457
     63  N         89.4680  -24.3460   67.3280 N.3   280  GLN280     -0.1245
     64  CA        90.1980  -23.1760   66.8710 C.3   280  GLN280      0.1566
     65  C         89.3530  -22.0650   66.1920 C.2   280  GLN280      0.2260
     66  O         89.4030  -21.8800   64.9840 O.2   280  GLN280     -0.2867
     67  CB        91.4380  -23.5480   66.0790 C.3   280  GLN280      0.0367
     68  CG        91.1900  -24.5390   65.0240 C.3   280  GLN280      0.0905
     69  CD        92.4650  -25.2980   64.6990 C.2   280  GLN280      0.2608
     70  OE1       92.9090  -26.1360   65.5170 O.2   280  GLN280     -0.2717
     71  NE2       93.0680  -25.0330   63.5040 N.am  280  GLN280     -0.0878
     72  N         90.8350  -19.0470   63.7360 N.3   283  ARG283     -0.1245
     73  CA        90.9770  -19.2010   62.2650 C.3   283  ARG283      0.1563
     74  C         89.5950  -19.0600   61.6450 C.2   283  ARG283      0.2260
     75  O         89.3870  -18.2940   60.6870 O.2   283  ARG283     -0.2867
     76  CB        91.6170  -20.5250   61.7890 C.3   283  ARG283      0.0307
     77  CG        93.0350  -20.8060   62.3390 C.3   283  ARG283      0.0489
     78  CD        94.0580  -21.4620   61.3590 C.3   283  ARG283      0.2205
     79  NE        93.5190  -22.5260   60.4900 N.pl3 283  ARG283     -0.0865
     80  CZ        93.4900  -22.4780   59.1480 C.cat 283  ARG283      0.5346
     81  NH1       93.9840  -21.3990   58.5090 N.pl3 283  ARG283      0.1354
     82  NH2       92.9580  -23.5060   58.4490 N.pl3 283  ARG283      0.1354
     83  N         88.4140  -16.4440   58.6570 N.3   287  ILE287     -0.1245
     84  CA        87.7710  -16.9020   57.4330 C.3   287  ILE287      0.1561
     85  C         86.3720  -16.2410   57.2400 C.2   287  ILE287      0.2260
     86  O         86.0420  -15.7300   56.1800 O.2   287  ILE287     -0.2867
     87  CB        87.6820  -18.3890   57.3970 C.3   287  ILE287      0.0252
     88  CG1       89.0590  -18.9710   57.1620 C.3   287  ILE287      0.0019
     89  CG2       86.8690  -18.7820   56.2130 C.3   287  ILE287      0.0019
     90  CD1       89.1600  -20.3980   57.5910 C.3   287  ILE287      0.0001
@<TRIPOS>BOND
     1     5     6    1
     2     5     2    1
     3     8     6   ar
     4     8    10   ar
     5     6     7   ar
     6    10    11   ar
     7     7     9   ar
     8    11     9   ar
     9     1     2    1
    10     2     3    1
    11     3     4    2
    12    17    19    1
    13    17    16    1
    14    16    18    1
    15    16    13    1
    16    12    13    1
    17    13    14    1
    18    14    15    2
    19    25    24    1
    20    33    31    1
    21    24    26    1
    22    24    21    1
    23    86    85    2
    24    89    87    1
    25    31    32    1
    26    31    28    1
    27    20    21    1
    28    27    28    1
    29    27    22   am
    30    21    22    1
    31    88    87    1
    32    88    90    1
    33    85    84    1
    34    87    84    1
    35    84    83    1
    36    28    29    1
    37    22    23    2
    38    82    80    1
    39    81    80    1
    40    29    30    2
    41    80    79    2
    42    52    51    1
    43    38    39    1
    44    38    35    1
    45    79    78    1
    46    39    41   ar
    47    39    40   ar
    48    41    43   ar
    49    40    42   ar
    50    43    44   ar
    51    42    44   ar
    52    75    74    2
    53    44    45    1
    54    51    53    1
    55    51    50    1
    56    78    77    1
    57    34    35    1
    58    74    73    1
    59    35    36    1
    60    76    73    1
    61    76    77    1
    62    73    72    1
    63    46    36   am
    64    46    47    1
    65    50    47    1
    66    36    37    2
    67    47    48    1
    68    62    60   ar
    69    61    60   ar
    70    71    69   am
    71    60    59    1
    72    48    49    2
    73    69    68    1
    74    69    70    2
    75    66    65    2
    76    68    67    1
    77    59    58    1
    78    58    55    1
    79    67    64    1
    80    65    64    1
    81    54    55    1
    82    55    56    1
    83    64    63    1
    84    57    56    2
