@<TRIPOS>MOLECULE
tmp/3eamE00.pdb
 110 108 0 0 0
SMALL
GASTEIGER

@<TRIPOS>ATOM
      1  N         68.1770  -11.8810   43.8020 N.3   202  LEU202     -0.1245
      2  CA        69.2780  -11.2380   44.5560 C.3   202  LEU202      0.1561
      3  C         68.9820  -11.1850   46.0600 C.2   202  LEU202      0.2260
      4  O         69.8640  -11.4900   46.9100 O.2   202  LEU202     -0.2867
      5  CB        69.5560   -9.8140   44.0730 C.3   202  LEU202      0.0270
      6  CG        70.1770   -9.6830   42.6880 C.3   202  LEU202      0.0019
      7  CD1       70.4560   -8.2260   42.4620 C.3   202  LEU202      0.0001
      8  CD2       71.4210  -10.5700   42.4880 C.3   202  LEU202      0.0001
      9  N         71.4470  -12.5250   48.9930 N.3   206  PHE206     -0.1241
     10  CA        71.9610  -11.6710   50.0730 C.3   206  PHE206      0.1605
     11  C         71.5690  -12.2100   51.4380 C.2   206  PHE206      0.2264
     12  O         72.4300  -12.3330   52.3280 O.2   206  PHE206     -0.2867
     13  CB        71.5320  -10.2130   49.9120 C.3   206  PHE206      0.0534
     14  CG        71.9880   -9.5890   48.6040 C.ar  206  PHE206     -0.0203
     15  CD1       73.0600  -10.1400   47.8900 C.ar  206  PHE206     -0.0042
     16  CD2       71.3590   -8.4390   48.0830 C.ar  206  PHE206     -0.0042
     17  CE1       73.4820   -9.5550   46.6680 C.ar  206  PHE206     -0.0003
     18  CE2       71.7890   -7.8540   46.8730 C.ar  206  PHE206     -0.0003
     19  CZ        72.8310   -8.4310   46.1610 C.ar  206  PHE206     -0.0000
     20  N         73.9180  -14.5470   52.7660 N.3   209  TRP209     -0.1227
     21  CA        75.2280  -14.1310   53.1980 C.3   209  TRP209      0.1737
     22  C         75.1980  -13.6540   54.6500 C.2   209  TRP209      0.2596
     23  O         76.2370  -13.3660   55.2450 O.2   209  TRP209     -0.2718
     24  CB        75.7380  -13.0470   52.2690 C.3   209  TRP209      0.0564
     25  CG        76.0320  -13.5320   50.9030 C.ar  209  TRP209      0.0003
     26  CD1       76.1860  -14.8140   50.5260 C.ar  209  TRP209      0.0946
     27  CD2       76.2810  -12.7290   49.7200 C.ar  209  TRP209      0.0152
     28  NE1       76.4820  -14.8880   49.1670 N.ar  209  TRP209     -0.2442
     29  CE2       76.5650  -13.6180   48.6600 C.ar  209  TRP209      0.0810
     30  CE3       76.2600  -11.3440   49.4500 C.ar  209  TRP209      0.0012
     31  CZ2       76.8140  -13.1730   47.3600 C.ar  209  TRP209      0.0191
     32  CZ3       76.5140  -10.9050   48.1630 C.ar  209  TRP209      0.0001
     33  CH2       76.7780  -11.8130   47.1370 C.ar  209  TRP209      0.0015
     34  N         74.0020  -13.5990   55.2300 N.am  210  THR210     -0.1953
     35  CA        73.9110  -13.2580   56.6300 C.3   210  THR210      0.1897
     36  C         74.5630  -14.3760   57.4120 C.2   210  THR210      0.2313
     37  O         74.9900  -14.1650   58.5220 O.2   210  THR210     -0.2863
     38  CB        72.4520  -13.0440   57.1500 C.3   210  THR210      0.1794
     39  OG1       71.7200  -14.2820   57.1070 O.3   210  THR210     -0.2208
     40  CG2       71.7290  -12.0000   56.3510 C.3   210  THR210      0.0378
     41  N         77.6560  -13.6130   59.4630 N.3   213  TRP213     -0.1241
     42  CA        77.6340  -12.8550   60.6930 C.3   213  TRP213      0.1605
     43  C         77.0450  -13.7500   61.8010 C.2   213  TRP213      0.2264
     44  O         76.5650  -13.2580   62.8400 O.2   213  TRP213     -0.2867
     45  CB        76.8110  -11.5860   60.5170 C.3   213  TRP213      0.0550
     46  CG        77.5720  -10.4650   59.8520 C.ar  213  TRP213      0.0003
     47  CD1       78.2660   -9.4630   60.4750 C.ar  213  TRP213      0.0946
     48  CD2       77.7030  -10.2100   58.4430 C.ar  213  TRP213      0.0152
     49  NE1       78.8380   -8.6210   59.5510 N.ar  213  TRP213     -0.2442
     50  CE2       78.4990   -9.0490   58.2980 C.ar  213  TRP213      0.0810
     51  CE3       77.2390  -10.8600   57.2900 C.ar  213  TRP213      0.0012
     52  CZ2       78.8530   -8.5240   57.0420 C.ar  213  TRP213      0.0191
     53  CZ3       77.5740  -10.3250   56.0140 C.ar  213  TRP213      0.0001
     54  CH2       78.3840   -9.1750   55.9040 C.ar  213  TRP213      0.0015
     55  N         85.2990  -13.4540   58.5810 N.3   289  ARG289     -0.1245
     56  CA        85.4440  -12.0020   58.4370 C.3   289  ARG289      0.1563
     57  C         85.8750  -11.6950   57.0140 C.2   289  ARG289      0.2260
     58  O         85.3900  -10.7650   56.3880 O.2   289  ARG289     -0.2867
     59  CB        86.3640  -11.3940   59.5130 C.3   289  ARG289      0.0307
     60  CG        85.5720  -10.9830   60.8600 C.3   289  ARG289      0.0489
     61  CD        86.3840  -10.2690   62.0440 C.3   289  ARG289      0.2205
     62  NE        87.2800  -11.1910   62.7930 N.pl3 289  ARG289     -0.0865
     63  CZ        88.5750  -11.4460   62.4990 C.cat 289  ARG289      0.5346
     64  NH1       89.1810  -10.8680   61.4620 N.pl3 289  ARG289      0.1354
     65  NH2       89.2740  -12.2960   63.2400 N.pl3 289  ARG289      0.1354
     66  N         82.7180  -12.0620   54.5780 N.3   292  ARG292     -0.1245
     67  CA        81.8750  -10.8640   54.5280 C.3   292  ARG292      0.1563
     68  C         82.2260   -9.8670   53.4140 C.2   292  ARG292      0.2260
     69  O         81.3490   -9.2170   52.8640 O.2   292  ARG292     -0.2867
     70  CB        81.8830  -10.1200   55.8600 C.3   292  ARG292      0.0307
     71  CG        81.5610  -10.9800   57.0470 C.3   292  ARG292      0.0489
     72  CD        81.8240  -10.2430   58.3050 C.3   292  ARG292      0.2205
     73  NE        81.4960  -11.0830   59.4450 N.pl3 292  ARG292     -0.0865
     74  CZ        81.6580  -10.7190   60.7100 C.cat 292  ARG292      0.5346
     75  NH1       82.1390   -9.5410   60.9920 N.pl3 292  ARG292      0.1354
     76  NH2       81.3180  -11.5210   61.6870 N.pl3 292  ARG292      0.1354
     77  N         80.4620  -10.5670   48.5700 N.3   296  PRO296     -0.2116
     78  CA        79.8990   -9.4360   47.7880 C.3   296  PRO296      0.1372
     79  C         80.8800   -8.8670   46.7410 C.2   296  PRO296      0.2244
     80  O         80.4810   -8.6410   45.6160 O.2   296  PRO296     -0.2868
     81  CB        79.5790   -8.3810   48.8350 C.3   296  PRO296      0.0268
     82  CG        79.7760   -9.0090   50.1290 C.3   296  PRO296      0.0207
     83  CD        80.5060  -10.3050   50.0090 C.3   296  PRO296      0.0892
     84  N         81.3050  -11.1900   43.8300 N.3   299  PHE299     -0.1227
     85  CA        80.0140  -11.3320   43.1450 C.3   299  PHE299      0.1736
     86  C         79.8390  -10.1970   42.1680 C.2   299  PHE299      0.2595
     87  O         79.4160  -10.3850   41.0330 O.2   299  PHE299     -0.2718
     88  CB        78.8200  -11.4200   44.1210 C.3   299  PHE299      0.0547
     89  CG        77.5030  -11.6360   43.4260 C.ar  299  PHE299     -0.0202
     90  CD1       76.5890  -10.5960   43.3160 C.ar  299  PHE299     -0.0042
     91  CD2       77.2080  -12.8730   42.8300 C.ar  299  PHE299     -0.0042
     92  CE1       75.3710  -10.7690   42.6650 C.ar  299  PHE299     -0.0003
     93  CE2       75.9990  -13.0600   42.1570 C.ar  299  PHE299     -0.0003
     94  CZ        75.0680  -11.9960   42.0800 C.ar  299  PHE299     -0.0000
     95  N         80.2070   -9.0140   42.6400 N.am  300  LEU300     -0.1980
     96  CA        80.1850   -7.7730   41.8660 C.3   300  LEU300      0.1596
     97  C         81.1760   -7.8440   40.7030 C.2   300  LEU300      0.2287
     98  O         80.8000   -7.6170   39.5660 O.2   300  LEU300     -0.2864
     99  CB        80.5320   -6.6300   42.7980 C.3   300  LEU300      0.0297
    100  CG        80.2470   -5.1550   42.4740 C.3   300  LEU300      0.0022
    101  CD1       81.5170   -4.2610   42.3720 C.3   300  LEU300      0.0001
    102  CD2       79.3290   -4.9940   41.2760 C.3   300  LEU300      0.0001
    103  N         80.0050  -10.2490   38.0300 N.3   303  ASN303     -0.1240
    104  CA        78.9040   -9.7400   37.2530 C.3   303  ASN303      0.1653
    105  C         79.3310   -8.7440   36.1950 C.2   303  ASN303      0.2266
    106  O         78.8530   -8.8010   35.0610 O.2   303  ASN303     -0.2867
    107  CB        77.7680   -9.2360   38.1390 C.3   303  ASN303      0.1155
    108  CG        76.7470  -10.3010   38.3950 C.2   303  ASN303      0.2627
    109  OD1       76.7570  -10.9750   39.4270 O.2   303  ASN303     -0.2716
    110  ND2       75.8970  -10.5000   37.4310 N.am  303  ASN303     -0.0877
@<TRIPOS>BOND
     1   106   105    2
     2   105   104    1
     3   104   103    1
     4   104   107    1
     5   110   108   am
     6   107   108    1
     7   108   109    2
     8    98    97    2
     9    97    96    1
    10    87    86    2
    11   102   100    1
    12    96    95    1
    13    96    99    1
    14    94    93   ar
    15    94    92   ar
    16    93    91   ar
    17    86    95   am
    18    86    85    1
    19   101   100    1
    20     7     6    1
    21   100    99    1
    22     8     6    1
    23    92    90   ar
    24     6     5    1
    25    91    89   ar
    26    85    84    1
    27    85    88    1
    28    90    89   ar
    29    89    88    1
    30     1     2    1
    31     5     2    1
    32     2     3    1
    33    80    79    2
    34     3     4    2
    35    19    17   ar
    36    19    18   ar
    37    17    15   ar
    38    79    78    1
    39    18    16   ar
    40    33    31   ar
    41    33    32   ar
    42    31    29   ar
    43    78    77    1
    44    78    81    1
    45    15    14   ar
    46    16    14   ar
    47    32    30   ar
    48    77    83    1
    49    14    13    1
    50    29    28   ar
    51    29    27   ar
    52    81    82    1
    53     9    10    1
    54    28    26   ar
    55    30    27   ar
    56    27    25   ar
    57    13    10    1
    58    83    82    1
    59    10    11    1
    60    26    25   ar
    61    25    24    1
    62    11    12    2
    63    24    21    1
    64    20    21    1
    65    69    68    2
    66    21    22    1
    67    68    67    1
    68    67    66    1
    69    67    70    1
    70    22    34   am
    71    22    23    2
    72    34    35    1
    73    70    71    1
    74    54    53   ar
    75    54    52   ar
    76    53    51   ar
    77    40    38    1
    78    58    57    2
    79    35    38    1
    80    35    36    1
    81    57    56    1
    82    52    50   ar
    83    71    72    1
    84    39    38    1
    85    51    48   ar
    86    36    37    2
    87    50    48   ar
    88    50    49   ar
    89    72    73    1
    90    56    55    1
    91    56    59    1
    92    48    46   ar
    93    73    74    2
    94    41    42    1
    95    59    60    1
    96    49    47   ar
    97    46    47   ar
    98    46    45    1
    99    45    42    1
   100    42    43    1
   101    74    75    1
   102    74    76    1
   103    60    61    1
   104    64    63    1
   105    43    44    2
   106    61    62    1
   107    63    62    2
   108    63    65    1
