@<TRIPOS>MOLECULE
tmp/3eaoE01.pdb
 187 180 0 0 0
SMALL
GASTEIGER

@<TRIPOS>ATOM
      1  N         29.8910   21.9590   37.4840 N.3   154  GLU154     -0.1245
      2  CA        29.4480   23.1470   36.7560 C.3   154  GLU154      0.1567
      3  C         27.9290   23.2370   36.6780 C.2   154  GLU154      0.2260
      4  O         27.2390   22.3690   37.1680 O.2   154  GLU154     -0.2867
      5  CB        30.0270   23.1140   35.3410 C.3   154  GLU154      0.0388
      6  CG        31.4870   22.7340   35.2560 C.3   154  GLU154      0.1160
      7  CD        31.9570   22.5160   33.8500 C.2   154  GLU154      0.3649
      8  OE1       31.3180   21.7170   33.1170 O.co2 154  GLU154     -0.2457
      9  OE2       32.9830   23.1400   33.4850 O.co2 154  GLU154     -0.2457
     10  N         25.1240   27.4370   31.4250 N.3   157  ARG157     -0.1245
     11  CA        25.2700   28.8550   31.1570 C.3   157  ARG157      0.1563
     12  C         24.1030   29.3310   30.3260 C.2   157  ARG157      0.2260
     13  O         23.6160   28.6130   29.4680 O.2   157  ARG157     -0.2867
     14  CB        26.5710   29.1670   30.4080 C.3   157  ARG157      0.0307
     15  CG        26.8430   30.6990   30.2720 C.3   157  ARG157      0.0489
     16  CD        27.9360   31.0900   29.2600 C.3   157  ARG157      0.2205
     17  NE        29.1990   30.4630   29.6250 N.pl3 157  ARG157     -0.0865
     18  CZ        29.6620   29.3450   29.0780 C.cat 157  ARG157      0.5346
     19  NH1       28.9910   28.7500   28.1070 N.pl3 157  ARG157      0.1354
     20  NH2       30.8050   28.8250   29.4970 N.pl3 157  ARG157      0.1354
     21  N         22.5520   32.6950   27.8240 N.3   159  LEU159     -0.1245
     22  CA        23.0210   33.7230   26.9060 C.3   159  LEU159      0.1561
     23  C         22.8930   35.0480   27.6070 C.2   159  LEU159      0.2260
     24  O         22.0030   35.2310   28.4310 O.2   159  LEU159     -0.2867
     25  CB        22.1330   33.7710   25.6800 C.3   159  LEU159      0.0270
     26  CG        21.9340   32.4630   24.9440 C.3   159  LEU159      0.0019
     27  CD1       20.8860   32.6160   23.8960 C.3   159  LEU159      0.0001
     28  CD2       23.2330   32.0920   24.3230 C.3   159  LEU159      0.0001
     29  N         18.8500   25.6060   21.3790 N.3   187  VAL187     -0.1231
     30  CA        19.8700   26.5620   21.0120 C.3   187  VAL187      0.1692
     31  C         21.1810   25.9820   21.4720 C.2   187  VAL187      0.2593
     32  O         21.3280   25.6900   22.6520 O.2   187  VAL187     -0.2718
     33  CB        19.5850   27.9230   21.6920 C.3   187  VAL187      0.0266
     34  CG1       20.7190   28.8830   21.5190 C.3   187  VAL187      0.0020
     35  CG2       18.3190   28.5160   21.1420 C.3   187  VAL187      0.0020
     36  N         22.1180   25.8090   20.5400 N.am  188  GLY188     -0.1942
     37  CA        23.4410   25.2020   20.7790 C.3   188  GLY188      0.2014
     38  C         23.6510   23.9700   19.9060 C.2   188  GLY188      0.2639
     39  O         22.7080   23.4670   19.3190 O.2   188  GLY188     -0.2714
     40  N         24.8750   23.4590   19.8160 N.am  189  ALA189     -0.1963
     41  CA        25.1320   22.2970   18.9620 C.3   189  ALA189      0.1728
     42  C         26.2830   21.4040   19.4280 C.2   189  ALA189      0.2617
     43  O         27.0710   20.9340   18.6140 O.2   189  ALA189     -0.2715
     44  CB        25.3330   22.7280   17.5200 C.3   189  ALA189      0.0334
     45  N         26.3790   21.1550   20.7350 N.am  190  SER190     -0.1936
     46  CA        27.3260   20.1350   21.2200 C.3   190  SER190      0.2055
     47  C         26.6030   18.9320   21.8230 C.2   190  SER190      0.2643
     48  O         25.4320   18.7400   21.5470 O.2   190  SER190     -0.2714
     49  CB        28.3550   20.7200   22.1780 C.3   190  SER190      0.2130
     50  OG        29.5860   20.0530   21.9620 O.3   190  SER190     -0.2179
     51  N         27.2730   18.1190   22.6350 N.am  191  TYR191     -0.1959
     52  CA        26.6410   16.8790   23.0520 C.3   191  TYR191      0.1771
     53  C         25.2730   17.1460   23.6240 C.2   191  TYR191      0.2619
     54  O         24.3010   16.6140   23.1120 O.2   191  TYR191     -0.2715
     55  CB        27.5340   15.8770   23.8450 C.3   191  TYR191      0.0574
     56  CG        28.1500   16.3030   25.1720 C.ar  191  TYR191     -0.0198
     57  CD1       29.4360   16.9040   25.2280 C.ar  191  TYR191     -0.0009
     58  CD2       27.4980   16.0380   26.3900 C.ar  191  TYR191     -0.0009
     59  CE1       30.0450   17.2880   26.4730 C.ar  191  TYR191      0.0417
     60  CE2       28.0860   16.4220   27.6450 C.ar  191  TYR191      0.0417
     61  CZ        29.3580   17.0450   27.6760 C.ar  191  TYR191      0.1957
     62  OH        29.9200   17.4360   28.8840 O.3   191  TYR191     -0.2866
     63  N         25.1650   18.0530   24.5890 N.am  192  VAL192     -0.1963
     64  CA        23.8600   18.3190   25.2350 C.3   192  VAL192      0.1727
     65  C         22.7820   18.8180   24.2570 C.2   192  VAL192      0.2616
     66  O         21.6600   18.3510   24.2710 O.2   192  VAL192     -0.2715
     67  CB        23.9720   19.2700   26.4510 C.3   192  VAL192      0.0290
     68  CG1       22.6450   19.4190   27.1200 C.3   192  VAL192      0.0023
     69  CG2       24.9650   18.7470   27.4450 C.3   192  VAL192      0.0023
     70  N         23.1390   19.7520   23.3970 N.am  193  ALA193     -0.1977
     71  CA        22.1860   20.3150   22.4570 C.3   193  ALA193      0.1597
     72  C         21.6170   19.2700   21.5040 C.2   193  ALA193      0.2287
     73  O         20.4060   19.1090   21.4250 O.2   193  ALA193     -0.2864
     74  CB        22.8150   21.4470   21.6920 C.3   193  ALA193      0.0319
     75  N         19.1870   25.5600   16.5480 N.3   210  MET210     -0.1245
     76  CA        19.8010   26.8100   16.1000 C.3   210  MET210      0.1570
     77  C         21.3060   26.7940   16.3390 C.2   210  MET210      0.2261
     78  O         21.7690   26.9310   17.4730 O.2   210  MET210     -0.2867
     79  CB        19.1740   27.9990   16.8110 C.3   210  MET210      0.0387
     80  CG        19.6050   29.3240   16.2310 C.3   210  MET210      0.0595
     81  SD        18.6860   30.7860   16.7740 S.3   210  MET210     -0.1393
     82  CE        17.1000   30.5050   16.0270 C.3   210  MET210      0.0692
     83  N         25.0570   28.2210   16.0680 N.3   212  ARG212     -0.1231
     84  CA        25.8750   29.4310   15.8490 C.3   212  ARG212      0.1694
     85  C         26.9530   29.2230   14.7750 C.2   212  ARG212      0.2593
     86  O         26.9330   29.8820   13.7440 O.2   212  ARG212     -0.2718
     87  CB        26.5070   29.9620   17.1410 C.3   212  ARG212      0.0321
     88  CG        27.5930   31.0320   16.8920 C.3   212  ARG212      0.0489
     89  CD        28.0100   31.8240   18.1210 C.3   212  ARG212      0.2205
     90  NE        28.8950   31.0940   19.0130 N.pl3 212  ARG212     -0.0865
     91  CZ        29.1860   31.4230   20.2730 C.cat 212  ARG212      0.5346
     92  NH1       28.6650   32.4940   20.8630 N.pl3 212  ARG212      0.1354
     93  NH2       30.0120   30.6570   20.9580 N.pl3 212  ARG212      0.1354
     94  N         27.8920   28.3230   15.0050 N.am  213  SER213     -0.1938
     95  CA        28.8850   28.0700   13.9900 C.3   213  SER213      0.2055
     96  C         28.8360   26.6310   13.4550 C.2   213  SER213      0.2642
     97  O         27.9910   26.3190   12.6350 O.2   213  SER213     -0.2714
     98  CB        30.2500   28.4500   14.5220 C.3   213  SER213      0.2130
     99  OG        30.5600   27.6530   15.6450 O.3   213  SER213     -0.2179
    100  N         29.7330   25.7740   13.9260 N.am  214  ILE214     -0.1977
    101  CA        29.8260   24.3810   13.5060 C.3   214  ILE214      0.1596
    102  C         29.1450   23.4440   14.5200 C.2   214  ILE214      0.2287
    103  O         28.9180   23.8400   15.6590 O.2   214  ILE214     -0.2864
    104  CB        31.3200   23.9450   13.4010 C.3   214  ILE214      0.0276
    105  CG1       32.1190   24.4460   14.6240 C.3   214  ILE214      0.0022
    106  CG2       31.9500   24.3820   12.0610 C.3   214  ILE214      0.0022
    107  CD1       33.2610   23.5360   15.0180 C.3   214  ILE214      0.0001
    108  N         29.2070   20.2460   17.0960 N.3   216  LEU216     -0.1231
    109  CA        30.1380   19.5060   17.9400 C.3   216  LEU216      0.1693
    110  C         31.6080   19.9620   17.8500 C.2   216  LEU216      0.2591
    111  O         32.5080   19.1450   17.6410 O.2   216  LEU216     -0.2718
    112  CB        30.0170   17.9990   17.6660 C.3   216  LEU216      0.0284
    113  CG        28.7200   17.2880   18.0520 C.3   216  LEU216      0.0019
    114  CD1       28.4990   16.1260   17.1150 C.3   216  LEU216      0.0001
    115  CD2       28.7120   16.8220   19.4920 C.3   216  LEU216      0.0001
    116  N         31.8440   21.2620   18.0280 N.am  217  ARG217     -0.1980
    117  CA        33.2040   21.7990   18.1020 C.3   217  ARG217      0.1597
    118  C         34.0070   20.9070   19.0120 C.2   217  ARG217      0.2287
    119  O         33.5790   20.6140   20.1250 O.2   217  ARG217     -0.2864
    120  CB        33.2090   23.2250   18.6460 C.3   217  ARG217      0.0334
    121  CG        34.5760   23.8390   18.8140 C.3   217  ARG217      0.0492
    122  CD        34.4920   25.3380   19.1200 C.3   217  ARG217      0.2205
    123  NE        33.7080   26.0380   18.1140 N.pl3 217  ARG217     -0.0865
    124  CZ        34.1940   26.5240   16.9710 C.cat 217  ARG217      0.5346
    125  NH1       35.4810   26.4160   16.6830 N.pl3 217  ARG217      0.1354
    126  NH2       33.3860   27.1330   16.1030 N.pl3 217  ARG217      0.1354
    127  N         22.9570   31.4070   13.1650 N.3   242  PHE242     -0.1227
    128  CA        22.0500   32.3550   13.8200 C.3   242  PHE242      0.1736
    129  C         22.2100   32.2580   15.3600 C.2   242  PHE242      0.2595
    130  O         22.4410   31.1720   15.9150 O.2   242  PHE242     -0.2718
    131  CB        20.5860   32.0580   13.4540 C.3   242  PHE242      0.0547
    132  CG        20.0980   32.6870   12.1540 C.ar  242  PHE242     -0.0202
    133  CD1       20.3140   32.0670   10.9250 C.ar  242  PHE242     -0.0042
    134  CD2       19.3450   33.8590   12.1730 C.ar  242  PHE242     -0.0042
    135  CE1       19.8430   32.6410    9.7340 C.ar  242  PHE242     -0.0003
    136  CE2       18.8630   34.4140   10.9890 C.ar  242  PHE242     -0.0003
    137  CZ        19.1150   33.7990    9.7710 C.ar  242  PHE242     -0.0000
    138  N         22.0990   33.3950   16.0440 N.am  243  VAL243     -0.1966
    139  CA        22.0900   33.4200   17.5040 C.3   243  VAL243      0.1712
    140  C         20.8590   34.1760   17.9460 C.2   243  VAL243      0.2458
    141  O         20.5330   35.1880   17.3560 O.2   243  VAL243     -0.2730
    142  CB        23.3700   34.0520   18.0940 C.3   243  VAL243      0.0289
    143  CG1       23.1780   34.4940   19.5620 C.3   243  VAL243      0.0023
    144  CG2       24.5030   33.0560   17.9990 C.3   243  VAL243      0.0023
    145  N         20.1450   33.6700   18.9620 N.am  244  PRO244     -0.2727
    146  CA        18.9760   34.4150   19.3940 C.3   244  PRO244      0.1402
    147  C         19.3820   35.7220   20.0680 C.2   244  PRO244      0.2269
    148  O         20.4620   35.8080   20.6790 O.2   244  PRO244     -0.2865
    149  CB        18.2770   33.4520   20.3830 C.3   244  PRO244      0.0296
    150  CG        19.3270   32.5560   20.8600 C.3   244  PRO244      0.0237
    151  CD        20.3360   32.4370   19.7470 C.3   244  PRO244      0.0939
    152  N         21.2460   25.1210   25.5160 N.3   281  ALA281     -0.1231
    153  CA        22.3010   24.2030   25.8420 C.3   281  ALA281      0.1694
    154  C         23.5450   24.7920   25.2570 C.2   281  ALA281      0.2592
    155  O         24.0010   24.3880   24.1990 O.2   281  ALA281     -0.2718
    156  CB        22.0310   22.8740   25.2450 C.3   281  ALA281      0.0304
    157  N         24.0960   25.7660   25.9560 N.am  282  VAL282     -0.1966
    158  CA        25.1250   26.6280   25.3980 C.3   282  VAL282      0.1727
    159  C         26.2840   26.7540   26.3690 C.2   282  VAL282      0.2617
    160  O         26.6890   27.8590   26.7290 O.2   282  VAL282     -0.2715
    161  CB        24.5540   28.0530   25.0650 C.3   282  VAL282      0.0290
    162  CG1       23.7330   28.0240   23.7970 C.3   282  VAL282      0.0023
    163  CG2       23.7150   28.6090   26.2140 C.3   282  VAL282      0.0023
    164  N         26.8100   25.6150   26.8040 N.am  283  GLY283     -0.1940
    165  CA        27.9550   25.5890   27.7290 C.3   283  GLY283      0.2014
    166  C         27.6030   25.5580   29.2040 C.2   283  GLY283      0.2638
    167  O         26.4390   25.7040   29.5790 O.2   283  GLY283     -0.2714
    168  N         28.6160   25.3440   30.0430 N.am  284  ARG284     -0.1977
    169  CA        28.4230   25.3530   31.4890 C.3   284  ARG284      0.1597
    170  C         29.6310   25.9660   32.1550 C.2   284  ARG284      0.2287
    171  O         30.7490   25.6810   31.7500 O.2   284  ARG284     -0.2864
    172  CB        28.1900   23.9480   32.0290 C.3   284  ARG284      0.0334
    173  CG        27.8880   22.8960   30.9820 C.3   284  ARG284      0.0492
    174  CD        26.7860   21.9380   31.4050 C.3   284  ARG284      0.2205
    175  NE        27.0350   21.3220   32.6970 N.pl3 284  ARG284     -0.0865
    176  CZ        26.0670   20.9570   33.5140 C.cat 284  ARG284      0.5346
    177  NH1       24.8120   21.1520   33.1510 N.pl3 284  ARG284      0.1354
    178  NH2       26.3470   20.4120   34.6760 N.pl3 284  ARG284      0.1354
    179  N         35.4290   16.4430   30.7540 N.3   332  GLU332     -0.1245
    180  CA        34.3080   16.6230   31.6560 C.3   332  GLU332      0.1567
    181  C         33.3040   15.4910   31.4720 C.2   332  GLU332      0.2260
    182  O         32.2140   15.6860   30.9780 O.2   332  GLU332     -0.2867
    183  CB        33.6770   17.9800   31.4120 C.3   332  GLU332      0.0388
    184  CG        34.6720   19.0270   30.9250 C.3   332  GLU332      0.1160
    185  CD        33.9890   20.2440   30.3540 C.2   332  GLU332      0.3649
    186  OE1       32.8940   20.1220   29.7530 O.co2 332  GLU332     -0.2457
    187  OE2       34.5480   21.3390   30.5050 O.co2 332  GLU332     -0.2457
@<TRIPOS>BOND
     1   135   137   ar
     2   135   133   ar
     3   137   136   ar
     4   133   132   ar
     5   136   134   ar
     6   106   104    1
     7   132   134   ar
     8   132   131    1
     9    97    96    2
    10   127   128    1
    11   104   101    1
    12   104   105    1
    13   131   128    1
    14    96   100   am
    15    96    95    1
    16   101   100    1
    17   101   102    1
    18    86    85    2
    19   128   129    1
    20    95    98    1
    21    95    94    1
    22   102   103    2
    23    98    99    1
    24   105   107    1
    25    85    94   am
    26    85    84    1
    27   129   130    2
    28   129   138   am
    29    84    83    1
    30    84    87    1
    31    82    81    1
    32   138   139    1
    33    76    77    1
    34    76    75    1
    35    76    79    1
    36   126   124    1
    37    80    81    1
    38    80    79    1
    39    77    78    2
    40   125   124    1
    41    88    87    1
    42    88    89    1
    43   124   123    2
    44   108   109    1
    45   114   113    1
    46   141   140    2
    47   139   140    1
    48   139   142    1
    49    44    41    1
    50   111   110    2
    51   112   109    1
    52   112   113    1
    53   110   109    1
    54   110   116   am
    55   140   145   am
    56   144   142    1
    57   116   117    1
    58   113   115    1
    59   142   143    1
    60   117   120    1
    61   117   118    1
    62   123   122    1
    63    89    90    1
    64    43    42    2
    65   120   121    1
    66   121   122    1
    67    41    42    1
    68    41    40    1
    69   145   146    1
    70   145   151    1
    71   118   119    2
    72    90    91    2
    73    39    38    2
    74   146   147    1
    75   146   149    1
    76    42    45   am
    77   151   150    1
    78    40    38   am
    79    38    37    1
    80   147   148    2
    81    91    92    1
    82    91    93    1
    83   149   150    1
    84    36    37    1
    85    36    31   am
    86    45    46    1
    87    30    29    1
    88    30    31    1
    89    30    33    1
    90    35    33    1
    91    46    47    1
    92    46    49    1
    93    73    72    2
    94    31    32    2
    95    72    71    1
    96    34    33    1
    97    48    47    2
    98    74    71    1
    99    47    51   am
   100    50    49    1
   101    71    70    1
   102    51    52    1
   103    52    53    1
   104    52    55    1
   105    54    53    2
   106    70    65   am
   107    53    63   am
   108   162   161    1
   109    55    56    1
   110    27    26    1
   111   155   154    2
   112    65    66    2
   113    65    64    1
   114    28    26    1
   115    63    64    1
   116    26    25    1
   117   161   158    1
   118   161   163    1
   119    56    57   ar
   120    56    58   ar
   121    57    59   ar
   122    64    67    1
   123   156   153    1
   124   154   153    1
   125   154   157   am
   126   158   157    1
   127   158   159    1
   128   152   153    1
   129    25    22    1
   130   159   160    2
   131   159   164   am
   132    58    60   ar
   133    67    68    1
   134    67    69    1
   135    59    61   ar
   136   164   165    1
   137    22    23    1
   138    22    21    1
   139    23    24    2
   140    60    61   ar
   141    61    62    1
   142   165   166    1
   143    19    18    1
   144    18    20    1
   145    18    17    2
   146   166   167    2
   147   166   168   am
   148    16    17    1
   149    16    15    1
   150    13    12    2
   151   186   185   ar
   152   168   169    1
   153    15    14    1
   154    12    11    1
   155   185   187   ar
   156   185   184    1
   157    14    11    1
   158   179   180    1
   159   184   183    1
   160   182   181    2
   161   173   174    1
   162   173   172    1
   163    11    10    1
   164   174   175    1
   165   183   180    1
   166   181   180    1
   167   169   172    1
   168   169   170    1
   169   171   170    2
   170   175   176    2
   171     8     7   ar
   172   177   176    1
   173     9     7   ar
   174   176   178    1
   175     7     6    1
   176     6     5    1
   177     5     2    1
   178     3     2    1
   179     3     4    2
   180     2     1    1
