@<TRIPOS>MOLECULE
tmp/3eauA02.pdb
 121 118 0 0 0
SMALL
GASTEIGER

@<TRIPOS>ATOM
      1  N         37.7670   42.3170    9.1790 N.3    10  LYS10      -0.1231
      2  CA        38.9130   41.4870    8.8450 C.3    10  LYS10       0.1693
      3  C         40.0060   41.5510    9.9050 C.2    10  LYS10       0.2593
      4  O         41.0280   40.8800    9.7790 O.2    10  LYS10      -0.2718
      5  CB        39.4740   41.8710    7.4700 C.3    10  LYS10       0.0285
      6  CG        38.5160   41.5110    6.3380 C.3    10  LYS10       0.0035
      7  CD        39.1580   41.5860    4.9640 C.3    10  LYS10       0.0206
      8  CE        38.1660   41.1320    3.8960 C.3    10  LYS10       0.1093
      9  NZ        38.7630   41.1500    2.5320 N.3    10  LYS10      -0.1314
     10  N         39.7860   42.3370   10.9560 N.am   11  SER11      -0.1938
     11  CA        40.7790   42.4600   12.0220 C.3    11  SER11       0.2055
     12  C         40.9030   41.1470   12.7950 C.2    11  SER11       0.2643
     13  O         40.0830   40.2420   12.6360 O.2    11  SER11      -0.2714
     14  CB        40.3940   43.5760   12.9980 C.3    11  SER11       0.2130
     15  OG        39.3800   43.1440   13.8920 O.3    11  SER11      -0.2179
     16  N         41.9220   41.0600   13.6440 N.am   12  GLY12      -0.1954
     17  CA        42.1340   39.8550   14.4280 C.3    12  GLY12       0.1869
     18  C         41.3510   39.8330   15.7290 C.2    12  GLY12       0.2309
     19  O         41.4220   38.8610   16.4840 O.2    12  GLY12      -0.2863
     20  N         46.3430   54.8500   19.7410 N.3   143  ILE143     -0.1245
     21  CA        46.6150   53.4240   19.6080 C.3   143  ILE143      0.1561
     22  C         48.1130   53.1970   19.8430 C.2   143  ILE143      0.2260
     23  O         48.5070   52.2700   20.5540 O.2   143  ILE143     -0.2867
     24  CB        46.2170   52.9030   18.2060 C.3   143  ILE143      0.0252
     25  CG1       44.6840   52.8700   18.0940 C.3   143  ILE143      0.0019
     26  CG2       46.8180   51.5230   17.9630 C.3   143  ILE143      0.0019
     27  CD1       44.1610   52.5450   16.6920 C.3   143  ILE143      0.0001
     28  N         43.4240   49.5370   21.3850 N.3   149  MET149     -0.1230
     29  CA        44.0400   48.5310   20.5280 C.3   149  MET149      0.1702
     30  C         43.7160   48.8240   19.0680 C.2   149  MET149      0.2592
     31  O         44.5610   48.6520   18.1840 O.2   149  MET149     -0.2718
     32  CB        43.5310   47.1330   20.8900 C.3   149  MET149      0.0401
     33  CG        43.9930   46.6400   22.2530 C.3   149  MET149      0.0596
     34  SD        45.7810   46.3530   22.2710 S.3   149  MET149     -0.1393
     35  CE        46.0220   45.8080   23.9970 C.3   149  MET149      0.0692
     36  N         42.4820   49.2630   18.8270 N.am  150  TYR150     -0.1976
     37  CA        41.9980   49.5740   17.4820 C.3   150  TYR150      0.1639
     38  C         41.0250   50.7430   17.5480 C.2   150  TYR150      0.2290
     39  O         40.6500   51.1920   18.6290 O.2   150  TYR150     -0.2864
     40  CB        41.2200   48.3890   16.8950 C.3   150  TYR150      0.0560
     41  CG        41.8560   47.0240   17.0550 C.ar  150  TYR150     -0.0198
     42  CD1       41.6410   46.2600   18.2040 C.ar  150  TYR150     -0.0009
     43  CD2       42.6420   46.4830   16.0420 C.ar  150  TYR150     -0.0009
     44  CE1       42.1910   44.9830   18.3340 C.ar  150  TYR150      0.0417
     45  CE2       43.1970   45.2100   16.1610 C.ar  150  TYR150      0.0417
     46  CZ        42.9660   44.4650   17.3100 C.ar  150  TYR150      0.1957
     47  OH        43.5020   43.2020   17.4210 O.3   150  TYR150     -0.2866
     48  N         40.0130   55.5330    5.3290 N.3   165  TYR165     -0.1241
     49  CA        40.9370   54.5330    4.8000 C.3   165  TYR165      0.1605
     50  C         41.9210   55.2090    3.8390 C.2   165  TYR165      0.2264
     51  O         43.1190   54.9240    3.8500 O.2   165  TYR165     -0.2867
     52  CB        40.1740   53.4320    4.0560 C.3   165  TYR165      0.0534
     53  CG        41.0530   52.2830    3.6220 C.ar  165  TYR165     -0.0201
     54  CD1       41.3680   51.2460    4.5050 C.ar  165  TYR165     -0.0009
     55  CD2       41.5920   52.2430    2.3360 C.ar  165  TYR165     -0.0009
     56  CE1       42.2000   50.1960    4.1120 C.ar  165  TYR165      0.0417
     57  CE2       42.4240   51.2030    1.9370 C.ar  165  TYR165      0.0417
     58  CZ        42.7240   50.1850    2.8260 C.ar  165  TYR165      0.1957
     59  OH        43.5530   49.1600    2.4280 O.3   165  TYR165     -0.2866
     60  N         45.9850   55.1650    4.2960 N.3   169  ARG169     -0.1245
     61  CA        46.9450   54.6380    3.3280 C.3   169  ARG169      0.1563
     62  C         47.8540   55.7070    2.7210 C.2   169  ARG169      0.2260
     63  O         49.0080   55.4190    2.3760 O.2   169  ARG169     -0.2867
     64  CB        46.2300   53.8670    2.2110 C.3   169  ARG169      0.0307
     65  CG        45.4980   52.6060    2.6810 C.3   169  ARG169      0.0489
     66  CD        46.3660   51.7690    3.6340 C.3   169  ARG169      0.2205
     67  NE        45.8510   50.4080    3.7810 N.pl3 169  ARG169     -0.0865
     68  CZ        46.1950   49.5730    4.7580 C.cat 169  ARG169      0.5346
     69  NH1       47.0520   49.9560    5.6930 N.pl3 169  ARG169      0.1354
     70  NH2       45.6920   48.3440    4.7870 N.pl3 169  ARG169      0.1354
     71  N         46.8290   54.2470   10.7460 N.3   174  ILE174     -0.1231
     72  CA        46.0180   53.0600   10.9880 C.3   174  ILE174      0.1678
     73  C         44.5680   53.2500   10.5460 C.2   174  ILE174      0.2434
     74  O         43.9130   54.1950   10.9610 O.2   174  ILE174     -0.2733
     75  CB        46.0260   52.6950   12.4870 C.3   174  ILE174      0.0265
     76  CG1       47.4620   52.4690   12.9600 C.3   174  ILE174      0.0019
     77  CG2       45.1930   51.4450   12.7260 C.3   174  ILE174      0.0020
     78  CD1       47.5730   52.2120   14.4590 C.3   174  ILE174      0.0001
     79  N         44.0550   52.3470    9.6940 N.am  175  PRO175     -0.2718
     80  CA        42.6710   52.4270    9.2070 C.3   175  PRO175      0.1520
     81  C         41.7010   51.9070   10.2750 C.2   175  PRO175      0.2440
     82  O         42.1090   51.1990   11.1980 O.2   175  PRO175     -0.2731
     83  CB        42.6690   51.5120    7.9770 C.3   175  PRO175      0.0310
     84  CG        44.1320   51.2860    7.6560 C.3   175  PRO175      0.0237
     85  CD        44.7900   51.2780    9.0000 C.3   175  PRO175      0.0939
     86  N         40.4060   52.2450   10.1580 N.am  176  PRO176     -0.2716
     87  CA        39.3960   51.7910   11.1260 C.3   176  PRO176      0.1536
     88  C         39.0450   50.3200   10.8790 C.2   176  PRO176      0.2598
     89  O         39.1300   49.8460    9.7450 O.2   176  PRO176     -0.2715
     90  CB        38.2220   52.7240   10.8500 C.3   176  PRO176      0.0310
     91  CG        38.3220   52.9280    9.3620 C.3   176  PRO176      0.0237
     92  CD        39.8080   53.1490    9.1580 C.3   176  PRO176      0.0939
     93  N         38.6560   49.5950   11.9270 N.am  177  ILE177     -0.1978
     94  CA        38.3220   48.1800   11.7610 C.3   177  ILE177      0.1596
     95  C         36.8300   47.8920   11.7750 C.2   177  ILE177      0.2287
     96  O         36.4010   46.8080   11.3810 O.2   177  ILE177     -0.2864
     97  CB        38.9290   47.2900   12.8800 C.3   177  ILE177      0.0276
     98  CG1       38.3250   47.6620   14.2400 C.3   177  ILE177      0.0022
     99  CG2       40.4270   47.4400   12.9240 C.3   177  ILE177      0.0022
    100  CD1       38.6000   46.6220   15.3330 C.3   177  ILE177      0.0001
    101  N         36.0010   45.4820    0.4160 N.3   201  LYS201     -0.1231
    102  CA        36.9810   46.4390   -0.0880 C.3   201  LYS201      0.1693
    103  C         38.0630   46.8210    0.9180 C.2   201  LYS201      0.2592
    104  O         39.2530   46.7910    0.5950 O.2   201  LYS201     -0.2718
    105  CB        36.2770   47.7140   -0.5700 C.3   201  LYS201      0.0285
    106  CG        35.4030   47.5470   -1.8150 C.3   201  LYS201      0.0035
    107  CD        34.5700   48.8070   -2.0550 C.3   201  LYS201      0.0206
    108  CE        33.6590   48.6870   -3.2760 C.3   201  LYS201      0.1093
    109  NZ        34.4340   48.5520   -4.5470 N.3   201  LYS201     -0.1314
    110  N         37.6580   47.1790    2.1360 N.am  202  ILE202     -0.1966
    111  CA        38.6230   47.6040    3.1410 C.3   202  ILE202      0.1727
    112  C         38.5410   46.9080    4.5030 C.2   202  ILE202      0.2616
    113  O         39.0060   47.4480    5.5100 O.2   202  ILE202     -0.2715
    114  CB        38.5520   49.1400    3.3480 C.3   202  ILE202      0.0290
    115  CG1       37.1210   49.5630    3.6840 C.3   202  ILE202      0.0022
    116  CG2       39.0300   49.8540    2.0810 C.3   202  ILE202      0.0023
    117  CD1       36.9940   51.0280    4.0490 C.3   202  ILE202      0.0001
    118  N         37.9390   45.7210    4.5190 N.am  203  GLY203     -0.1955
    119  CA        37.8430   44.9200    5.7290 C.3   203  GLY203      0.1869
    120  C         37.0580   45.4350    6.9190 C.2   203  GLY203      0.2309
    121  O         37.1310   44.8480    7.9990 O.2   203  GLY203     -0.2863
@<TRIPOS>BOND
     1   109   108    1
     2   108   107    1
     3   107   106    1
     4   106   105    1
     5   105   102    1
     6   102   101    1
     7   102   103    1
     8   104   103    2
     9   103   110   am
    10    57    55   ar
    11    57    58   ar
    12   116   114    1
    13   110   111    1
    14    64    65    1
    15    64    61    1
    16    55    53   ar
    17    63    62    2
    18    59    58    1
    19     9     8    1
    20    65    66    1
    21    62    61    1
    22    58    56   ar
    23   111   114    1
    24   111   112    1
    25    61    60    1
    26   114   115    1
    27    53    52    1
    28    53    54   ar
    29    66    67    1
    30   115   117    1
    31    67    68    2
    32    50    51    2
    33    50    49    1
    34     8     7    1
    35    52    49    1
    36    56    54   ar
    37   112   118   am
    38   112   113    2
    39   118   119    1
    40    68    70    1
    41    68    69    1
    42    49    48    1
    43     7     6    1
    44   119   120    1
    45     6     5    1
    46   120   121    2
    47     5     2    1
    48    84    83    1
    49    84    85    1
    50    83    80    1
    51     2     1    1
    52     2     3    1
    53    85    79    1
    54    92    91    1
    55    92    86    1
    56    80    79    1
    57    80    81    1
    58    91    90    1
    59    79    73   am
    60    89    88    2
    61     4     3    2
    62     3    10   am
    63    86    81   am
    64    86    87    1
    65    81    82    2
    66    73    74    2
    67    73    72    1
    68    71    72    1
    69    90    87    1
    70    88    87    1
    71    88    93   am
    72    10    11    1
    73    72    75    1
    74    96    95    2
    75    94    95    1
    76    94    93    1
    77    94    97    1
    78    11    12    1
    79    11    14    1
    80    75    77    1
    81    75    76    1
    82    13    12    2
    83    12    16   am
    84    97    99    1
    85    97    98    1
    86    76    78    1
    87    14    15    1
    88    16    17    1
    89    98   100    1
    90    17    18    1
    91    18    19    2
    92    43    45   ar
    93    43    41   ar
    94    45    46   ar
    95    27    25    1
    96    40    41    1
    97    40    37    1
    98    41    42   ar
    99    46    47    1
   100    46    44   ar
   101    37    38    1
   102    37    36    1
   103    38    39    2
   104    26    24    1
   105    25    24    1
   106    31    30    2
   107    42    44   ar
   108    24    21    1
   109    36    30   am
   110    30    29    1
   111    21    20    1
   112    21    22    1
   113    22    23    2
   114    29    32    1
   115    29    28    1
   116    32    33    1
   117    33    34    1
   118    34    35    1
