@<TRIPOS>MOLECULE
tmp/3eaxA00.pdb
 147 141 0 0 0
SMALL
GASTEIGER

@<TRIPOS>ATOM
      1  N         49.3430    8.9990   67.3990 N.3    45  TYR45      -0.1241
      2  CA        48.2110    8.4800   68.1680 C.3    45  TYR45       0.1605
      3  C         48.0440    6.9710   67.9860 C.2    45  TYR45       0.2264
      4  O         48.0580    6.4680   66.8610 O.2    45  TYR45      -0.2867
      5  CB        46.9150    9.1810   67.7500 C.3    45  TYR45       0.0534
      6  CG        46.9520   10.6780   67.9110 C.ar   45  TYR45      -0.0201
      7  CD1       47.2310   11.2590   69.1480 C.ar   45  TYR45      -0.0009
      8  CD2       46.7170   11.5200   66.8240 C.ar   45  TYR45      -0.0009
      9  CE1       47.2750   12.6450   69.2970 C.ar   45  TYR45       0.0417
     10  CE2       46.7590   12.9090   66.9610 C.ar   45  TYR45       0.0417
     11  CZ        47.0360   13.4650   68.1970 C.ar   45  TYR45       0.1957
     12  OH        47.0620   14.8380   68.3390 O.3    45  TYR45      -0.2866
     13  N         45.4080    5.2790   68.4720 N.3    47  ASP47      -0.1225
     14  CA        44.1040    5.0190   67.8720 C.3    47  ASP47       0.1805
     15  C         43.9770    5.5970   66.4610 C.2    47  ASP47       0.2597
     16  O         42.8700    5.6810   65.9230 O.2    47  ASP47      -0.2718
     17  CB        43.0080    5.6040   68.7680 C.3    47  ASP47       0.1424
     18  CG        43.1550    7.1050   68.9590 C.2    47  ASP47       0.3668
     19  OD1       44.2880    7.5600   69.2230 O.co2  47  ASP47      -0.2456
     20  OD2       42.1400    7.8300   68.8520 O.co2  47  ASP47      -0.2456
     21  N         45.1040    5.9960   65.8690 N.am   48  VAL48      -0.1980
     22  CA        45.1140    6.5710   64.5180 C.3    48  VAL48       0.1595
     23  C         46.2060    5.9380   63.6640 C.2    48  VAL48       0.2287
     24  O         47.2810    6.5080   63.4840 O.2    48  VAL48      -0.2864
     25  CB        45.3660    8.0860   64.5570 C.3    48  VAL48       0.0276
     26  CG1       45.2720    8.6570   63.1570 C.3    48  VAL48       0.0022
     27  CG2       44.3600    8.7580   65.4700 C.3    48  VAL48       0.0022
     28  N         45.4570   24.7270   72.0220 N.3   115  LYS115     -0.1245
     29  CA        45.1000   24.3410   73.3760 C.3   115  LYS115      0.1561
     30  C         46.3270   24.2210   74.2850 C.2   115  LYS115      0.2260
     31  O         46.3640   23.3820   75.1910 O.2   115  LYS115     -0.2867
     32  CB        44.3380   23.0130   73.3480 C.3   115  LYS115      0.0271
     33  CG        42.9800   23.1050   72.6760 C.3   115  LYS115      0.0035
     34  CD        42.2660   21.7640   72.6760 C.3   115  LYS115      0.0206
     35  CE        40.8580   21.9080   72.1170 C.3   115  LYS115      0.1093
     36  NZ        40.1120   20.6190   72.0840 N.3   115  LYS115     -0.1314
     37  N         50.9930   20.2880   68.7590 N.3   119  LYS119     -0.1245
     38  CA        50.2340   19.3130   67.9900 C.3   119  LYS119      0.1561
     39  C         51.0130   18.8520   66.7740 C.2   119  LYS119      0.2260
     40  O         50.5320   18.0320   65.9980 O.2   119  LYS119     -0.2867
     41  CB        48.9280   19.9450   67.5130 C.3   119  LYS119      0.0271
     42  CG        48.0370   20.4450   68.6240 C.3   119  LYS119      0.0035
     43  CD        47.5260   19.2940   69.4680 C.3   119  LYS119      0.0206
     44  CE        46.6750   19.7950   70.6210 C.3   119  LYS119      0.1093
     45  NZ        46.0780   18.6610   71.3760 N.3   119  LYS119     -0.1314
     46  N         41.2660   27.4400   62.2580 N.3   178  TRP178     -0.1241
     47  CA        40.3040   26.4430   62.7010 C.3   178  TRP178      0.1605
     48  C         40.2850   26.5720   64.2220 C.2   178  TRP178      0.2264
     49  O         41.3240   26.4690   64.8650 O.2   178  TRP178     -0.2867
     50  CB        40.7470   25.0410   62.2880 C.3   178  TRP178      0.0550
     51  CG        39.6710   24.0240   62.4690 C.ar  178  TRP178      0.0003
     52  CD1       39.1120   23.6200   63.6490 C.ar  178  TRP178      0.0946
     53  CD2       38.9870   23.3110   61.4370 C.ar  178  TRP178      0.0152
     54  NE1       38.1180   22.7040   63.4140 N.ar  178  TRP178     -0.2442
     55  CE2       38.0190   22.4950   62.0630 C.ar  178  TRP178      0.0810
     56  CE3       39.0960   23.2810   60.0410 C.ar  178  TRP178      0.0012
     57  CZ2       37.1620   21.6580   61.3410 C.ar  178  TRP178      0.0191
     58  CZ3       38.2410   22.4460   59.3200 C.ar  178  TRP178      0.0001
     59  CH2       37.2870   21.6480   59.9750 C.ar  178  TRP178      0.0015
     60  N         40.0180   26.0990   68.2800 N.3   180  ASP180     -0.1225
     61  CA        40.5420   25.0790   69.1770 C.3   180  ASP180      0.1805
     62  C         39.4730   24.0490   69.5130 C.2   180  ASP180      0.2598
     63  O         39.7650   22.8600   69.6360 O.2   180  ASP180     -0.2718
     64  CB        41.0700   25.7200   70.4630 C.3   180  ASP180      0.1424
     65  CG        42.5230   26.1520   70.3440 C.2   180  ASP180      0.3668
     66  OD1       43.0790   26.6510   71.3430 O.co2 180  ASP180     -0.2456
     67  OD2       43.1120   25.9850   69.2540 O.co2 180  ASP180     -0.2456
     68  N         38.2350   24.5140   69.6560 N.am  181  PHE181     -0.1962
     69  CA        37.1110   23.6400   69.9730 C.3   181  PHE181      0.1771
     70  C         36.0200   23.7220   68.9060 C.2   181  PHE181      0.2620
     71  O         35.6910   24.8030   68.4170 O.2   181  PHE181     -0.2715
     72  CB        36.5100   24.0250   71.3310 C.3   181  PHE181      0.0574
     73  CG        37.3930   23.7040   72.5030 C.ar  181  PHE181     -0.0200
     74  CD1       37.4950   22.3990   72.9780 C.ar  181  PHE181     -0.0042
     75  CD2       38.1250   24.7050   73.1340 C.ar  181  PHE181     -0.0042
     76  CE1       38.3130   22.0960   74.0690 C.ar  181  PHE181     -0.0003
     77  CE2       38.9440   24.4110   74.2210 C.ar  181  PHE181     -0.0003
     78  CZ        39.0370   23.1030   74.6900 C.ar  181  PHE181     -0.0000
     79  N         35.4580   22.5700   68.5520 N.am  182  GLY182     -0.1954
     80  CA        34.3970   22.5370   67.5610 C.3   182  GLY182      0.1869
     81  C         34.8450   22.8510   66.1470 C.2   182  GLY182      0.2309
     82  O         36.0120   22.6760   65.7980 O.2   182  GLY182     -0.2863
     83  N         46.5780   17.3760   59.8920 N.3   214  CYS214     -0.1221
     84  CA        46.1700   18.2860   60.9430 C.3   214  CYS214      0.1808
     85  C         46.9780   17.7130   62.0920 C.2   214  CYS214      0.2602
     86  O         48.1920   17.5550   61.9700 O.2   214  CYS214     -0.2717
     87  CB        44.6580   18.2160   61.2110 C.3   214  CYS214      0.0970
     88  SG        43.8720   16.6030   60.9660 S.3   214  CYS214     -0.0800
     89  N         46.3380   17.3820   63.1970 N.am  215  SER215     -0.1938
     90  CA        47.0840   16.7940   64.2880 C.3   215  SER215      0.2055
     91  C         47.1300   15.2820   64.0430 C.2   215  SER215      0.2642
     92  O         48.2080   14.6920   63.8950 O.2   215  SER215     -0.2714
     93  CB        46.4050   17.1290   65.6100 C.3   215  SER215      0.2130
     94  OG        46.2160   18.5360   65.6990 O.3   215  SER215     -0.2179
     95  N         45.9530   14.6660   63.9610 N.am  216  ALA216     -0.1977
     96  CA        45.8510   13.2280   63.7150 C.3   216  ALA216      0.1597
     97  C         45.7440   12.9120   62.2160 C.2   216  ALA216      0.2287
     98  O         45.8760   11.7530   61.8030 O.2   216  ALA216     -0.2864
     99  CB        44.6360   12.6610   64.4530 C.3   216  ALA216      0.0319
    100  N         42.9950   13.2980   60.2660 N.3   218  ILE218     -0.1231
    101  CA        41.7270   12.6200   59.9940 C.3   218  ILE218      0.1692
    102  C         40.4950   13.5110   60.1480 C.2   218  ILE218      0.2593
    103  O         39.6090   13.5080   59.2900 O.2   218  ILE218     -0.2718
    104  CB        41.5280   11.3940   60.9280 C.3   218  ILE218      0.0266
    105  CG1       41.6520   11.8370   62.3940 C.3   218  ILE218      0.0019
    106  CG2       42.5390   10.2990   60.5790 C.3   218  ILE218      0.0020
    107  CD1       41.4910   10.7260   63.3930 C.3   218  ILE218      0.0001
    108  N         40.4310   14.2570   61.2470 N.am  219  GLY219     -0.1942
    109  CA        39.2830   15.1120   61.4860 C.3   219  GLY219      0.2014
    110  C         39.1570   16.2300   60.4730 C.2   219  GLY219      0.2638
    111  O         38.2690   16.2280   59.6080 O.2   219  GLY219     -0.2714
    112  N         40.0510   17.1990   60.5850 N.am  220  ARG220     -0.1977
    113  CA        40.0510   18.3290   59.6760 C.3   220  ARG220      0.1597
    114  C         40.4970   17.8740   58.2920 C.2   220  ARG220      0.2287
    115  O         39.9830   18.3400   57.2780 O.2   220  ARG220     -0.2864
    116  CB        40.9890   19.4100   60.2070 C.3   220  ARG220      0.0334
    117  CG        40.6370   19.8490   61.6120 C.3   220  ARG220      0.0492
    118  CD        41.6350   20.8440   62.1350 C.3   220  ARG220      0.2205
    119  NE        41.4090   21.1100   63.5470 N.pl3 220  ARG220     -0.0865
    120  CZ        42.2200   21.8320   64.3130 C.cat 220  ARG220      0.5346
    121  NH1       43.3240   22.3680   63.8010 N.pl3 220  ARG220      0.1354
    122  NH2       41.9280   22.0080   65.5960 N.pl3 220  ARG220      0.1354
    123  N         35.9460   13.2720   62.6960 N.3   261  GLN261     -0.1231
    124  CA        35.9680   12.7640   64.0660 C.3   261  GLN261      0.1698
    125  C         34.7110   12.9800   64.8890 C.2   261  GLN261      0.2592
    126  O         34.4730   12.2480   65.8490 O.2   261  GLN261     -0.2718
    127  CB        37.1620   13.3590   64.8210 C.3   261  GLN261      0.0381
    128  CG        38.5020   12.7890   64.4020 C.3   261  GLN261      0.0905
    129  CD        38.6880   11.3530   64.8580 C.2   261  GLN261      0.2608
    130  OE1       38.8250   11.0830   66.0520 O.2   261  GLN261     -0.2717
    131  NE2       38.6850   10.4230   63.9090 N.am  261  GLN261     -0.0878
    132  N         33.9110   13.9800   64.5350 N.am  262  THR262     -0.1953
    133  CA        32.6940   14.2460   65.2920 C.3   262  THR262      0.1897
    134  C         31.4810   14.4880   64.4090 C.2   262  THR262      0.2313
    135  O         31.6070   14.7270   63.2040 O.2   262  THR262     -0.2863
    136  CB        32.8580   15.4760   66.2060 C.3   262  THR262      0.1794
    137  OG1       32.9480   16.6610   65.4040 O.3   262  THR262     -0.2208
    138  CG2       34.1170   15.3470   67.0560 C.3   262  THR262      0.0378
    139  N         31.5860   17.7740   62.8690 N.3   265  GLN265     -0.1245
    140  CA        32.4560   17.8690   61.7100 C.3   265  GLN265      0.1566
    141  C         31.6710   17.4370   60.4780 C.2   265  GLN265      0.2260
    142  O         31.8200   18.0120   59.3980 O.2   265  GLN265     -0.2867
    143  CB        33.6800   16.9780   61.9150 C.3   265  GLN265      0.0367
    144  CG        34.9960   17.7110   61.7650 C.3   265  GLN265      0.0905
    145  CD        36.1480   16.9730   62.4160 C.2   265  GLN265      0.2608
    146  OE1       36.3350   15.7720   62.2020 O.2   265  GLN265     -0.2717
    147  NE2       36.9340   17.6910   63.2100 N.am  265  GLN265     -0.0878
@<TRIPOS>BOND
     1   115   114    2
     2   114   113    1
     3   103   102    2
     4    58    59   ar
     5    58    56   ar
     6   142   141    2
     7   111   110    2
     8   113   116    1
     9   113   112    1
    10    83    84    1
    11    59    57   ar
    12   101   102    1
    13   101   100    1
    14   101   104    1
    15    56    53   ar
    16   102   108   am
    17   116   117    1
    18   110   112   am
    19   110   109    1
    20   141   140    1
    21   106   104    1
    22   104   105    1
    23    84    87    1
    24    84    85    1
    25    88    87    1
    26   108   109    1
    27    57    55   ar
    28    53    55   ar
    29    53    51   ar
    30   117   118    1
    31   140   143    1
    32   140   139    1
    33   144   143    1
    34   144   145    1
    35    98    97    2
    36    86    85    2
    37    55    54   ar
    38    85    89   am
    39   118   119    1
    40   146   145    2
    41    97    96    1
    42    46    47    1
    43    50    51    1
    44    50    47    1
    45   105   107    1
    46   145   147   am
    47    51    52   ar
    48   123   124    1
    49    47    48    1
    50    26    25    1
    51    89    90    1
    52   135   134    2
    53    54    52   ar
    54    24    23    2
    55   119   120    2
    56    23    22    1
    57    96    95    1
    58    96    99    1
    59   121   120    1
    60    92    91    2
    61   131   129   am
    62    95    91   am
    63    91    90    1
    64   124   127    1
    65   124   125    1
    66    48    49    2
    67    90    93    1
    68   120   122    1
    69   128   127    1
    70   128   129    1
    71   134   133    1
    72    22    25    1
    73    22    21    1
    74   132   125   am
    75   132   133    1
    76    25    27    1
    77   129   130    2
    78   125   126    2
    79   133   136    1
    80   137   136    1
    81    93    94    1
    82    82    81    2
    83    21    15   am
    84    16    15    2
    85    40    39    2
    86    81    80    1
    87   136   138    1
    88    15    14    1
    89    39    38    1
    90     8    10   ar
    91     8     6   ar
    92     4     3    2
    93    10    11   ar
    94     1     2    1
    95    41    38    1
    96    41    42    1
    97    80    79    1
    98     5     6    1
    99     5     2    1
   100    14    13    1
   101    14    17    1
   102     6     7   ar
   103     3     2    1
   104    38    37    1
   105    11    12    1
   106    11     9   ar
   107    60    61    1
   108    71    70    2
   109    79    70   am
   110    42    43    1
   111    17    18    1
   112    20    18   ar
   113    70    69    1
   114    18    19   ar
   115     7     9   ar
   116    61    62    1
   117    61    64    1
   118    67    65   ar
   119    43    44    1
   120    62    63    2
   121    62    68   am
   122    68    69    1
   123    69    72    1
   124    65    64    1
   125    65    66   ar
   126    44    45    1
   127    72    73    1
   128    28    29    1
   129    36    35    1
   130    35    34    1
   131    73    74   ar
   132    73    75   ar
   133    33    34    1
   134    33    32    1
   135    74    76   ar
   136    75    77   ar
   137    32    29    1
   138    29    30    1
   139    76    78   ar
   140    77    78   ar
   141    30    31    2
