@<TRIPOS>MOLECULE
tmp/3eb0A00.pdb
 184 174 0 0 0
SMALL
GASTEIGER

@<TRIPOS>ATOM
      1  N         46.6960    1.4090   -2.4420 N.3    10  LEU10      -0.1231
      2  CA        47.5580    2.5370   -2.1590 C.3    10  LEU10       0.1693
      3  C         48.9080    2.1190   -1.5200 C.2    10  LEU10       0.2592
      4  O         49.9030    2.8410   -1.6240 O.2    10  LEU10      -0.2718
      5  CB        46.8230    3.5560   -1.2840 C.3    10  LEU10       0.0284
      6  CG        45.5520    4.2140   -1.8220 C.3    10  LEU10       0.0019
      7  CD1       45.1690    5.4400   -0.9700 C.3    10  LEU10       0.0001
      8  CD2       45.7000    4.6160   -3.2780 C.3    10  LEU10       0.0001
      9  N         48.9320    0.9570   -0.8720 N.am   11  GLY11      -0.1957
     10  CA        50.1440    0.4270   -0.2590 C.3    11  GLY11       0.1869
     11  C         49.8610   -0.7360    0.6730 C.2    11  GLY11       0.2309
     12  O         49.0560   -0.6140    1.5830 O.2    11  GLY11      -0.2863
     13  N         46.3340   -0.6890    2.3040 N.3    17  VAL17      -0.1245
     14  CA        45.6820    0.6140    2.2540 C.3    17  VAL17       0.1561
     15  C         45.1370    0.8570    0.8400 C.2    17  VAL17       0.2260
     16  O         45.8760    0.8130   -0.1280 O.2    17  VAL17      -0.2867
     17  CB        46.6270    1.7460    2.6890 C.3    17  VAL17       0.0252
     18  CG1       45.8470    3.0140    2.9910 C.3    17  VAL17       0.0019
     19  CG2       47.4260    1.3440    3.9090 C.3    17  VAL17       0.0019
     20  N         41.8390    2.8370   -1.8350 N.3    19  GLU19      -0.1245
     21  CA        40.8340    3.8520   -2.0720 C.3    19  GLU19       0.1567
     22  C         39.4830    3.1660   -2.0390 C.2    19  GLU19       0.2260
     23  O         39.3480    2.0610   -2.5300 O.2    19  GLU19      -0.2867
     24  CB        41.0640    4.5420   -3.4160 C.3    19  GLU19       0.0388
     25  CG        41.9790    5.7400   -3.2750 C.3    19  GLU19       0.1160
     26  CD        42.3840    6.3760   -4.5900 C.2    19  GLU19       0.3649
     27  OE1       41.5740    6.3710   -5.5380 O.co2  19  GLU19      -0.2457
     28  OE2       43.5140    6.9070   -4.6570 O.co2  19  GLU19      -0.2457
     29  N         39.9000    6.8060    2.2220 N.3    30  ALA30      -0.1245
     30  CA        40.9650    5.8050    2.3000 C.3    30  ALA30       0.1562
     31  C         40.6260    4.7100    3.3020 C.2    30  ALA30       0.2260
     32  O         40.1900    4.9800    4.4170 O.2    30  ALA30      -0.2867
     33  CB        42.2990    6.4410    2.6190 C.3    30  ALA30       0.0290
     34  N         42.1180    1.6220    5.4750 N.3    32  LYS32      -0.1245
     35  CA        43.2180    0.8150    6.0050 C.3    32  LYS32       0.1561
     36  C         42.6540   -0.4380    6.6500 C.2    32  LYS32       0.2260
     37  O         41.9870   -0.3570    7.6770 O.2    32  LYS32      -0.2867
     38  CB        44.0190    1.5770    7.0360 C.3    32  LYS32       0.0271
     39  CG        45.3180    0.8740    7.4350 C.3    32  LYS32       0.0035
     40  CD        46.1180    1.7330    8.4070 C.3    32  LYS32       0.0206
     41  CE        47.5290    1.1990    8.5850 C.3    32  LYS32       0.1093
     42  NZ        48.3900    2.2180    9.2290 N.3    32  LYS32      -0.1314
     43  N         46.3710    2.2610   17.0230 N.3    44  GLU44      -0.1245
     44  CA        46.1760    3.2190   15.9290 C.3    44  GLU44       0.1567
     45  C         44.7500    3.8210   15.8380 C.2    44  GLU44       0.2260
     46  O         44.5940    5.0380   15.6470 O.2    44  GLU44      -0.2867
     47  CB        46.5810    2.5890   14.5900 C.3    44  GLU44       0.0388
     48  CG        46.5740    3.5620   13.4350 C.3    44  GLU44       0.1160
     49  CD        46.9060    2.9190   12.1040 C.2    44  GLU44       0.3649
     50  OE1       47.2690    1.7160   12.0810 O.co2  44  GLU44      -0.2457
     51  OE2       46.8190    3.6330   11.0690 O.co2  44  GLU44      -0.2457
     52  N         44.7910   14.0290    9.0210 N.3    57  ILE57      -0.1245
     53  CA        43.7810   13.2260    8.3390 C.3    57  ILE57       0.1561
     54  C         42.7390   12.7180    9.3560 C.2    57  ILE57       0.2260
     55  O         43.1030   12.0710   10.3500 O.2    57  ILE57      -0.2867
     56  CB        44.4910   12.0760    7.5510 C.3    57  ILE57       0.0252
     57  CG1       43.9850   11.9790    6.1210 C.3    57  ILE57       0.0019
     58  CG2       44.4560   10.7290    8.2830 C.3    57  ILE57       0.0019
     59  CD1       44.7150   12.8800    5.1980 C.3    57  ILE57       0.0001
     60  N         39.1480    6.6020    6.3820 N.3    74  MET74      -0.1230
     61  CA        39.7110    7.9340    6.6620 C.3    74  MET74       0.1702
     62  C         39.5680    8.9610    5.5310 C.2    74  MET74       0.2592
     63  O         39.3910    8.5920    4.3620 O.2    74  MET74      -0.2718
     64  CB        41.1930    7.8150    7.0560 C.3    74  MET74       0.0401
     65  CG        41.4150    7.0810    8.3780 C.3    74  MET74       0.0596
     66  SD        43.0820    6.4140    8.6730 S.3    74  MET74      -0.1393
     67  CE        43.2070    5.1410    7.4080 C.3    74  MET74       0.0692
     68  N         39.6730   10.2440    5.9030 N.am   75  GLU75      -0.1966
     69  CA        39.8070   11.3800    4.9640 C.3    75  GLU75       0.1733
     70  C         40.8710   11.1190    3.8830 C.2    75  GLU75       0.2616
     71  O         41.9420   10.5850    4.1720 O.2    75  GLU75      -0.2715
     72  CB        40.1550   12.6700    5.7290 C.3    75  GLU75       0.0429
     73  CG        40.1160   13.9690    4.8930 C.3    75  GLU75       0.1163
     74  CD        40.6110   15.2270    5.6450 C.2    75  GLU75       0.3649
     75  OE1       41.0530   15.1400    6.8100 O.co2  75  GLU75      -0.2457
     76  OE2       40.5560   16.3250    5.0580 O.co2  75  GLU75      -0.2457
     77  N         40.5710   11.5020    2.6450 N.am   76  TYR76      -0.1960
     78  CA        41.4270   11.1860    1.5220 C.3    76  TYR76       0.1771
     79  C         41.9990   12.4370    0.8880 C.2    76  TYR76       0.2619
     80  O         41.2940   13.4210    0.6800 O.2    76  TYR76      -0.2715
     81  CB        40.6590   10.3580    0.4810 C.3    76  TYR76       0.0574
     82  CG        41.4060   10.1410   -0.8170 C.ar   76  TYR76      -0.0198
     83  CD1       41.0830   10.8760   -1.9450 C.ar   76  TYR76      -0.0009
     84  CD2       42.4620    9.2140   -0.9050 C.ar   76  TYR76      -0.0009
     85  CE1       41.7530   10.6950   -3.1320 C.ar   76  TYR76       0.0417
     86  CE2       43.1520    9.0270   -2.1030 C.ar   76  TYR76       0.0417
     87  CZ        42.7720    9.7740   -3.2160 C.ar   76  TYR76       0.1957
     88  OH        43.4160    9.6310   -4.4170 O.3    76  TYR76      -0.2866
     89  N         43.2900   12.3780    0.5800 N.am   77  VAL77      -0.1964
     90  CA        43.9910   13.4420   -0.1310 C.3    77  VAL77       0.1712
     91  C         44.7300   12.8030   -1.3390 C.2    77  VAL77       0.2458
     92  O         45.3950   11.7710   -1.1800 O.2    77  VAL77      -0.2730
     93  CB        44.9460   14.2010    0.8500 C.3    77  VAL77       0.0289
     94  CG1       45.7380   15.2910    0.1520 C.3    77  VAL77       0.0023
     95  CG2       44.1590   14.8050    1.9950 C.3    77  VAL77       0.0023
     96  N         44.5970   13.3950   -2.5510 N.am   78  PRO78      -0.2716
     97  CA        45.0170   12.6980   -3.7900 C.3    78  PRO78       0.1536
     98  C         46.5050   12.6010   -4.1050 C.2    78  PRO78       0.2599
     99  O         46.8430   12.0140   -5.1340 O.2    78  PRO78      -0.2715
    100  CB        44.3180   13.4910   -4.8980 C.3    78  PRO78       0.0310
    101  CG        44.2060   14.8810   -4.3450 C.3    78  PRO78       0.0237
    102  CD        44.0090   14.7220   -2.8400 C.3    78  PRO78       0.0939
    103  N         47.3860   13.1570   -3.2690 N.am   79  ASP79      -0.1958
    104  CA        48.8270   13.1040   -3.5630 C.3    79  ASP79       0.1840
    105  C         49.7570   13.1170   -2.3320 C.2    79  ASP79       0.2622
    106  O         49.3700   13.5450   -1.2480 O.2    79  ASP79      -0.2715
    107  CB        49.2170   14.2340   -4.5330 C.3    79  ASP79       0.1450
    108  CG        50.2050   13.7790   -5.6240 C.2    79  ASP79       0.3671
    109  OD1       50.6940   12.6160   -5.5920 O.co2  79  ASP79      -0.2456
    110  OD2       50.4890   14.5950   -6.5320 O.co2  79  ASP79      -0.2456
    111  N         50.9850   12.6330   -2.5090 N.am   80  THR80      -0.1951
    112  CA        51.9850   12.6740   -1.4480 C.3    80  THR80       0.1897
    113  C         53.0790   13.6750   -1.8020 C.2    80  THR80       0.2313
    114  O         53.3680   13.9100   -2.9860 O.2    80  THR80      -0.2863
    115  CB        52.5890   11.2590   -1.1130 C.3    80  THR80       0.1794
    116  OG1       53.5840   10.8710   -2.0770 O.3    80  THR80      -0.2208
    117  CG2       51.4850   10.2200   -1.0650 C.3    80  THR80       0.0378
    118  N         56.0050   13.0760   -1.4140 N.3    82  HIS82      -0.1226
    119  CA        57.0200   12.2250   -1.9950 C.3    82  HIS82       0.1752
    120  C         56.8730   12.2520   -3.5110 C.2    82  HIS82       0.2595
    121  O         57.8490   12.4630   -4.2260 O.2    82  HIS82      -0.2718
    122  CB        56.9250   10.8160   -1.3920 C.3    82  HIS82       0.0759
    123  CG        57.3370    9.7160   -2.3230 C.ar   82  HIS82       0.0818
    124  ND1       58.6450    9.2840   -2.4390 N.ar   82  HIS82      -0.2268
    125  CD2       56.6090    8.9530   -3.1800 C.ar   82  HIS82       0.1154
    126  CE1       58.7050    8.3110   -3.3350 C.ar   82  HIS82       0.1986
    127  NE2       57.4870    8.0960   -3.8050 N.ar   82  HIS82      -0.2212
    128  N         55.6480   12.0810   -4.0060 N.am   83  LYS83      -0.1980
    129  CA        55.4170   12.1510   -5.4670 C.3    83  LYS83       0.1596
    130  C         55.7120   13.5440   -6.0670 C.2    83  LYS83       0.2287
    131  O         56.1680   13.6450   -7.2140 O.2    83  LYS83      -0.2864
    132  CB        54.0150   11.6920   -5.8530 C.3    83  LYS83       0.0298
    133  CG        53.7440   10.2070   -5.7390 C.3    83  LYS83       0.0038
    134  CD        52.4850    9.8650   -6.5660 C.3    83  LYS83       0.0206
    135  CE        51.7420    8.6140   -6.0820 C.3    83  LYS83       0.1093
    136  NZ        52.5990    7.4000   -5.7770 N.3    83  LYS83      -0.1314
    137  N         57.7460   11.3630    7.1890 N.3   125  LYS125     -0.1245
    138  CA        58.4920   11.2130    5.9340 C.3   125  LYS125      0.1561
    139  C         57.6030   11.6740    4.7590 C.2   125  LYS125      0.2260
    140  O         56.3750   11.6780    4.9000 O.2   125  LYS125     -0.2867
    141  CB        58.9270    9.7580    5.7390 C.3   125  LYS125      0.0271
    142  CG        57.7990    8.7700    5.5290 C.3   125  LYS125      0.0035
    143  CD        58.2770    7.3600    5.8380 C.3   125  LYS125      0.0206
    144  CE        57.1910    6.3320    5.5410 C.3   125  LYS125      0.1093
    145  NZ        57.5640    4.9600    6.0060 N.3   125  LYS125     -0.1314
    146  N         56.4990   10.3500    2.2020 N.3   127  GLN127     -0.1231
    147  CA        55.4320    9.3770    1.8890 C.3   127  GLN127      0.1698
    148  C         54.1460    9.5250    2.7670 C.2   127  GLN127      0.2592
    149  O         53.0450    9.1310    2.3450 O.2   127  GLN127     -0.2718
    150  CB        55.9600    7.9330    1.9360 C.3   127  GLN127      0.0381
    151  CG        57.0880    7.5820    0.9390 C.3   127  GLN127      0.0905
    152  CD        58.4890    7.8450    1.4910 C.2   127  GLN127      0.2608
    153  OE1       58.7090    8.7630    2.2960 O.2   127  GLN127     -0.2717
    154  NE2       59.4480    7.0420    1.0520 N.am  127  GLN127     -0.0878
    155  N         54.3080   10.0850    3.9710 N.am  128  ASN128     -0.1974
    156  CA        53.2390   10.2920    4.9650 C.3   128  ASN128      0.1688
    157  C         52.6590   11.6790    4.9090 C.2   128  ASN128      0.2292
    158  O         51.8830   12.0680    5.7670 O.2   128  ASN128     -0.2864
    159  CB        53.8080   10.1420    6.3830 C.3   128  ASN128      0.1181
    160  CG        53.8760    8.7350    6.8090 C.2   128  ASN128      0.2629
    161  OD1       53.1760    7.8830    6.2450 O.2   128  ASN128     -0.2716
    162  ND2       54.7250    8.4460    7.7920 N.am  128  ASN128     -0.0877
    163  N         50.5580   14.0840    2.9090 N.3   130  LEU130     -0.1245
    164  CA        49.6360   14.2260    1.8060 C.3   130  LEU130      0.1561
    165  C         49.4880   15.6740    1.3900 C.2   130  LEU130      0.2260
    166  O         49.4030   16.5540    2.2300 O.2   130  LEU130     -0.2867
    167  CB        48.2880   13.6000    2.1660 C.3   130  LEU130      0.0270
    168  CG        48.3980   12.1360    2.6190 C.3   130  LEU130      0.0019
    169  CD1       47.0200   11.5770    2.7810 C.3   130  LEU130      0.0001
    170  CD2       49.2160   11.2910    1.6420 C.3   130  LEU130      0.0001
    171  N         49.3550   11.8830    7.6560 N.3   141  CYS141     -0.1221
    172  CA        48.5650   10.6760    7.7920 C.3   141  CYS141      0.1808
    173  C         49.3520    9.5170    8.3810 C.2   141  CYS141      0.2601
    174  O         50.5460    9.6220    8.6860 O.2   141  CYS141     -0.2717
    175  CB        48.0050   10.2600    6.4380 C.3   141  CYS141      0.0970
    176  SG        49.2310    9.4660    5.3700 S.3   141  CYS141     -0.0800
    177  N         48.6380    8.4080    8.5200 N.am  142  ASP142     -0.1973
    178  CA        49.1730    7.1090    8.8760 C.3   142  ASP142      0.1709
    179  C         49.8370    7.0640   10.2420 C.2   142  ASP142      0.2293
    180  O         51.0690    7.1080   10.3590 O.2   142  ASP142     -0.2864
    181  CB        50.0950    6.5710    7.7870 C.3   142  ASP142      0.1436
    182  CG        50.4160    5.1010    7.9770 C.2   142  ASP142      0.3671
    183  OD1       49.8650    4.4430    8.9020 O.co2 142  ASP142     -0.2456
    184  OD2       51.2270    4.6040    7.1840 O.co2 142  ASP142     -0.2456
@<TRIPOS>BOND
     1   131   130    2
     2   134   135    1
     3   134   133    1
     4   110   108   ar
     5   135   136    1
     6   130   129    1
     7   132   133    1
     8   132   129    1
     9   108   109   ar
    10   108   107    1
    11    27    26   ar
    12   129   128    1
    13    99    98    2
    14   100   101    1
    15   100    97    1
    16    28    26   ar
    17    26    25    1
    18   107   104    1
    19    88    87    1
    20   101   102    1
    21   121   120    2
    22    98    97    1
    23    98   103   am
    24   128   120   am
    25   127   126   ar
    26   127   125   ar
    27    97    96    1
    28   104   103    1
    29   104   105    1
    30   120   119    1
    31    24    25    1
    32    24    21    1
    33   126   124   ar
    34     8     6    1
    35    87    85   ar
    36    87    86   ar
    37   125   123   ar
    38    85    83   ar
    39   114   113    2
    40   102    96    1
    41    96    91   am
    42    23    22    2
    43   111   105   am
    44   111   112    1
    45     1     2    1
    46   124   123   ar
    47   105   106    2
    48   123   122    1
    49     2     3    1
    50     2     5    1
    51    86    84   ar
    52   116   115    1
    53    21    22    1
    54    21    20    1
    55   119   118    1
    56   119   122    1
    57    83    82   ar
    58     6     5    1
    59     6     7    1
    60   113   112    1
    61     4     3    2
    62     3     9   am
    63   112   115    1
    64    91    92    2
    65    91    90    1
    66   115   117    1
    67    84    82   ar
    68     9    10    1
    69    82    81    1
    70    10    11    1
    71    90    89    1
    72    90    93    1
    73    16    15    2
    74    94    93    1
    75    81    78    1
    76    89    79   am
    77    11    12    2
    78    80    79    2
    79    15    14    1
    80    93    95    1
    81    79    78    1
    82   151   152    1
    83   151   150    1
    84   154   152   am
    85   165   164    1
    86   165   166    2
    87   152   153    2
    88    78    77    1
    89   170   168    1
    90   164   167    1
    91   164   163    1
    92   147   150    1
    93   147   146    1
    94   147   148    1
    95   167   168    1
    96    29    30    1
    97    14    13    1
    98    14    17    1
    99    30    33    1
   100    30    31    1
   101   149   148    2
   102   168   169    1
   103    77    70   am
   104    17    18    1
   105    17    19    1
   106   148   155   am
   107    31    32    2
   108    70    71    2
   109    70    69    1
   110   155   156    1
   111    63    62    2
   112   139   140    2
   113   139   138    1
   114    73    74    1
   115    73    72    1
   116   157   156    1
   117   157   158    2
   118    69    72    1
   119    69    68    1
   120   156   159    1
   121    76    74   ar
   122    59    57    1
   123   176   175    1
   124    34    35    1
   125   142   141    1
   126   142   143    1
   127    62    68   am
   128    62    61    1
   129   144   143    1
   130   144   145    1
   131    74    75   ar
   132   141   138    1
   133   138   137    1
   134    35    36    1
   135    35    38    1
   136    57    56    1
   137   161   160    2
   138    60    61    1
   139   159   160    1
   140   175   172    1
   141    36    37    2
   142    61    64    1
   143   160   162   am
   144    38    39    1
   145    64    65    1
   146   184   182   ar
   147    67    66    1
   148    39    40    1
   149    56    58    1
   150    56    53    1
   151   171   172    1
   152   181   182    1
   153   181   178    1
   154   172   173    1
   155   182   183   ar
   156    53    52    1
   157    53    54    1
   158    65    66    1
   159   173   177   am
   160   173   174    2
   161    40    41    1
   162   177   178    1
   163    41    42    1
   164   178   179    1
   165    54    55    2
   166   179   180    2
   167    51    49   ar
   168    50    49   ar
   169    49    48    1
   170    48    47    1
   171    47    44    1
   172    46    45    2
   173    45    44    1
   174    44    43    1
