@<TRIPOS>MOLECULE
tmp/3eb1A00.pdb
 103 99 0 0 0
SMALL
GASTEIGER

@<TRIPOS>ATOM
      1  N         39.3390    8.8040    1.7490 N.3    45  TYR45      -0.1227
      2  CA        40.4200    8.3340    0.8760 C.3    45  TYR45       0.1736
      3  C         40.5040    6.8110    0.9030 C.2    45  TYR45       0.2595
      4  O         40.0030    6.1600    1.8260 O.2    45  TYR45      -0.2718
      5  CB        41.7810    8.8770    1.3130 C.3    45  TYR45       0.0548
      6  CG        41.8230   10.3520    1.5730 C.ar   45  TYR45      -0.0200
      7  CD1       41.4290   10.8730    2.8040 C.ar   45  TYR45      -0.0009
      8  CD2       42.2690   11.2330    0.5920 C.ar   45  TYR45      -0.0009
      9  CE1       41.4810   12.2450    3.0530 C.ar   45  TYR45       0.0417
     10  CE2       42.3250   12.6080    0.8310 C.ar   45  TYR45       0.0417
     11  CZ        41.9310   13.1060    2.0630 C.ar   45  TYR45       0.1957
     12  OH        41.9950   14.4590    2.2980 O.3    45  TYR45      -0.2866
     13  N         41.1610    6.2470   -0.1040 N.am   46  ARG46      -0.1966
     14  CA        41.3150    4.8050   -0.1820 C.3    46  ARG46       0.1729
     15  C         42.5060    4.3660    0.6680 C.2    46  ARG46       0.2616
     16  O         42.5560    3.2280    1.1440 O.2    46  ARG46      -0.2715
     17  CB        41.4550    4.3600   -1.6380 C.3    46  ARG46       0.0348
     18  CG        40.2660    4.7150   -2.5130 C.3    46  ARG46       0.0492
     19  CD        40.3570    4.0380   -3.8700 C.3    46  ARG46       0.2205
     20  NE        39.2200    4.3700   -4.7240 N.pl3  46  ARG46      -0.0865
     21  CZ        39.0550    3.9110   -5.9590 C.cat  46  ARG46       0.5346
     22  NH1       39.9570    3.0970   -6.4890 N.pl3  46  ARG46       0.1354
     23  NH2       37.9890    4.2670   -6.6610 N.pl3  46  ARG46       0.1354
     24  N         43.4520    5.2790    0.8770 N.am   47  ASP47      -0.1957
     25  CA        44.6480    4.9630    1.6510 C.3    47  ASP47       0.1840
     26  C         44.7210    5.5350    3.0720 C.2    47  ASP47       0.2621
     27  O         45.7790    5.4730    3.7070 O.2    47  ASP47      -0.2715
     28  CB        45.9010    5.3760    0.8620 C.3    47  ASP47       0.1450
     29  CG        45.9640    6.8760    0.5870 C.2    47  ASP47       0.3671
     30  OD1       44.9900    7.4300    0.0220 O.co2  47  ASP47      -0.2456
     31  OD2       46.9990    7.4970    0.9280 O.co2  47  ASP47      -0.2456
     32  N         43.6140    6.0850    3.5710 N.am   48  VAL48      -0.1977
     33  CA        43.5840    6.6340    4.9290 C.3    48  VAL48       0.1596
     34  C         42.5390    5.8770    5.7360 C.2    48  VAL48       0.2287
     35  O         41.3850    6.2870    5.8060 O.2    48  VAL48      -0.2864
     36  CB        43.1980    8.1210    4.9390 C.3    48  VAL48       0.0276
     37  CG1       43.5910    8.7410    6.2630 C.3    48  VAL48       0.0022
     38  CG2       43.8640    8.8360    3.8060 C.3    48  VAL48       0.0022
     39  N         41.8840   17.1530    9.6420 N.3   214  CYS214     -0.1221
     40  CA        42.4610   17.9900    8.5970 C.3   214  CYS214      0.1808
     41  C         41.7080   17.5970    7.3430 C.2   214  CYS214      0.2602
     42  O         40.4830   17.6420    7.2910 O.2   214  CYS214     -0.2717
     43  CB        43.9540   17.6630    8.4350 C.3   214  CYS214      0.0970
     44  SG        44.7140   18.1870    6.8800 S.3   214  CYS214     -0.0800
     45  N         42.4550   17.1970    6.3340 N.am  215  SER215     -0.1938
     46  CA        41.8700   16.7450    5.1010 C.3   215  SER215      0.2055
     47  C         41.6690   15.2470    5.3430 C.2   215  SER215      0.2642
     48  O         40.5420   14.7440    5.3220 O.2   215  SER215     -0.2714
     49  CB        42.8410   17.0180    3.9600 C.3   215  SER215      0.2130
     50  OG        43.1860   18.3970    3.9400 O.3   215  SER215     -0.2179
     51  N         42.7650   14.5460    5.6240 N.am  216  ALA216     -0.1977
     52  CA        42.7080   13.1100    5.9080 C.3   216  ALA216      0.1597
     53  C         42.8420   12.8350    7.4100 C.2   216  ALA216      0.2287
     54  O         42.8060   11.6760    7.8440 O.2   216  ALA216     -0.2864
     55  CB        43.8100   12.3770    5.1560 C.3   216  ALA216      0.0319
     56  N         45.5000   13.2700    9.3130 N.3   218  ILE218     -0.1231
     57  CA        46.7730   12.5800    9.5270 C.3   218  ILE218      0.1692
     58  C         47.9570   13.4820    9.1870 C.2   218  ILE218      0.2593
     59  O         48.9920   13.4410    9.8620 O.2   218  ILE218     -0.2718
     60  CB        46.8910   11.2800    8.6650 C.3   218  ILE218      0.0266
     61  CG1       46.6840   11.5990    7.1780 C.3   218  ILE218      0.0019
     62  CG2       45.8910   10.2410    9.1400 C.3   218  ILE218      0.0020
     63  CD1       47.9560   11.9550    6.4310 C.3   218  ILE218      0.0001
     64  N         47.7920   14.2960    8.1420 N.am  219  GLY219     -0.1942
     65  CA        48.8570   15.1840    7.7130 C.3   219  GLY219      0.2014
     66  C         49.2340   16.2370    8.7330 C.2   219  GLY219      0.2638
     67  O         50.2860   16.1570    9.3760 O.2   219  GLY219     -0.2714
     68  N         48.3700   17.2330    8.8820 N.am  220  ARG220     -0.1977
     69  CA        48.6140   18.3080    9.8270 C.3   220  ARG220      0.1597
     70  C         48.1970   17.8560   11.2220 C.2   220  ARG220      0.2287
     71  O         48.7290   18.3260   12.2320 O.2   220  ARG220     -0.2864
     72  CB        47.8170   19.5400    9.4050 C.3   220  ARG220      0.0334
     73  CG        47.9750   19.8550    7.9300 C.3   220  ARG220      0.0492
     74  CD        47.1800   21.0670    7.5240 C.3   220  ARG220      0.2205
     75  NE        47.2000   21.2730    6.0790 N.pl3 220  ARG220     -0.0865
     76  CZ        46.4040   22.1250    5.4430 C.cat 220  ARG220      0.5346
     77  NH1       45.5250   22.8490    6.1220 N.pl3 220  ARG220      0.1354
     78  NH2       46.4800   22.2490    4.1270 N.pl3 220  ARG220      0.1354
     79  N         52.7150   13.2270    6.7940 N.3   261  GLN261     -0.1231
     80  CA        52.7290   12.6710    5.4430 C.3   261  GLN261      0.1698
     81  C         53.9070   13.1000    4.5580 C.2   261  GLN261      0.2592
     82  O         54.0490   12.5950    3.4460 O.2   261  GLN261     -0.2718
     83  CB        51.4580   13.0630    4.6900 C.3   261  GLN261      0.0381
     84  CG        50.4500   11.9360    4.5450 C.3   261  GLN261      0.0905
     85  CD        51.0110   10.7460    3.7920 C.2   261  GLN261      0.2608
     86  OE1       51.6590   10.9030    2.7580 O.2   261  GLN261     -0.2717
     87  NE2       50.8840    9.4690    4.1300 N.am  261  GLN261     -0.0878
     88  N         54.7430   14.0250    5.0300 N.am  262  THR262     -0.1953
     89  CA        55.8990   14.4670    4.2440 C.3   262  THR262      0.1897
     90  C         57.1100   14.8090    5.1010 C.2   262  THR262      0.2313
     91  O         56.9900   15.0240    6.3030 O.2   262  THR262     -0.2863
     92  CB        55.5800   15.7060    3.3860 C.3   262  THR262      0.1794
     93  OG1       55.3030   16.8270    4.2360 O.3   262  THR262     -0.2208
     94  CG2       54.3890   15.4380    2.4910 C.3   262  THR262      0.0378
     95  N         57.0280   18.1800    6.5800 N.3   265  GLN265     -0.1245
     96  CA        56.1590   18.1420    7.7420 C.3   265  GLN265      0.1566
     97  C         56.9870   17.7270    8.9530 C.2   265  GLN265      0.2260
     98  O         56.9060   18.3390   10.0170 O.2   265  GLN265     -0.2867
     99  CB        55.0180   17.1520    7.5070 C.3   265  GLN265      0.0367
    100  CG        53.6380   17.7520    7.7040 C.3   265  GLN265      0.0905
    101  CD        52.5460   16.9480    7.0160 C.2   265  GLN265      0.2608
    102  OE1       52.3170   15.7780    7.3360 O.2   265  GLN265     -0.2717
    103  NE2       51.8670   17.5760    6.0610 N.am  265  GLN265     -0.0878
@<TRIPOS>BOND
     1    23    21    1
     2    22    21    1
     3    21    20    2
     4    20    19    1
     5    19    18    1
     6    18    17    1
     7    17    14    1
     8    14    13    1
     9    14    15    1
    10    13     3   am
    11    30    29   ar
    12    29    28    1
    13    29    31   ar
    14     8    10   ar
    15     8     6   ar
    16    15    24   am
    17    15    16    2
    18    10    11   ar
    19    28    25    1
    20     2     3    1
    21     2     5    1
    22     2     1    1
    23    24    25    1
    24     3     4    2
    25     5     6    1
    26     6     7   ar
    27    25    26    1
    28    11    12    1
    29    11     9   ar
    30    94    92    1
    31    86    85    2
    32     7     9   ar
    33    26    32   am
    34    26    27    2
    35    92    93    1
    36    92    89    1
    37    82    81    2
    38    32    33    1
    39    85    87   am
    40    85    84    1
    41    38    36    1
    42    50    49    1
    43    49    46    1
    44    78    76    1
    45    89    88    1
    46    89    90    1
    47    84    83    1
    48    81    88   am
    49    81    80    1
    50    83    80    1
    51    33    36    1
    52    33    34    1
    53    36    37    1
    54    46    47    1
    55    46    45    1
    56    90    91    2
    57    55    52    1
    58    48    47    2
    59    47    51   am
    60    76    75    2
    61    76    77    1
    62    80    79    1
    63    51    52    1
    64    34    35    2
    65    52    53    1
    66   103   101   am
    67    75    74    1
    68    45    41   am
    69    63    61    1
    70    95    96    1
    71    44    43    1
    72   101   102    2
    73   101   100    1
    74    61    60    1
    75    42    41    2
    76    41    40    1
    77    53    54    2
    78    99   100    1
    79    99    96    1
    80    74    73    1
    81    65    64    1
    82    65    66    1
    83    96    97    1
    84    73    72    1
    85    64    58   am
    86    43    40    1
    87    40    39    1
    88    60    62    1
    89    60    57    1
    90    66    68   am
    91    66    67    2
    92    68    69    1
    93    97    98    2
    94    58    57    1
    95    58    59    2
    96    56    57    1
    97    72    69    1
    98    69    70    1
    99    70    71    2
