@<TRIPOS>MOLECULE
tmp/3eb9A00.pdb
 124 117 0 0 0
SMALL
GASTEIGER

@<TRIPOS>ATOM
      1  N         -6.6070   -8.1480   33.4230 N.3    42  ALA42      -0.1231
      2  CA        -6.4750   -9.4190   34.1260 C.3    42  ALA42       0.1694
      3  C         -5.3640   -9.2690   35.1690 C.2    42  ALA42       0.2593
      4  O         -4.5120   -8.3720   35.0640 O.2    42  ALA42      -0.2718
      5  CB        -6.1390  -10.5500   33.1420 C.3    42  ALA42       0.0304
      6  N         -5.3760  -10.1500   36.1760 N.am   43  GLY43      -0.1942
      7  CA        -4.3180  -10.2380   37.1680 C.3    43  GLY43       0.2014
      8  C         -3.3650  -11.3200   36.6530 C.2    43  GLY43       0.2639
      9  O         -3.5780  -11.8690   35.5820 O.2    43  GLY43      -0.2714
     10  N         -2.3170  -11.6460   37.4130 N.am   44  GLY44      -0.1954
     11  CA        -1.3230  -12.6180   36.9860 C.3    44  GLY44       0.1869
     12  C          0.0020  -12.0140   36.4980 C.2    44  GLY44       0.2309
     13  O          0.0700  -10.8730   35.9660 O.2    44  GLY44      -0.2863
     14  N        -11.8260   -9.1420   36.5440 N.3    74  ASP74      -0.1239
     15  CA       -12.1490   -9.9680   37.7150 C.3    74  ASP74       0.1674
     16  C        -11.3550   -9.4780   38.9180 C.2    74  ASP74       0.2266
     17  O        -10.3160   -8.7960   38.7670 O.2    74  ASP74      -0.2867
     18  CB       -11.9620  -11.4620   37.4640 C.3    74  ASP74       0.1410
     19  CG       -10.5000  -11.9160   37.5980 C.2    74  ASP74       0.3668
     20  OD1       -9.6350  -11.3690   36.8940 O.co2  74  ASP74      -0.2456
     21  OD2      -10.2500  -12.9170   38.2870 O.co2  74  ASP74      -0.2456
     22  N        -10.3830  -10.1210   43.4230 N.3    76  ARG76      -0.1245
     23  CA       -10.4620  -10.8620   44.6800 C.3    76  ARG76       0.1563
     24  C        -11.0900   -9.9490   45.7370 C.2    76  ARG76       0.2260
     25  O        -10.8020   -8.7260   45.8130 O.2    76  ARG76      -0.2867
     26  CB        -9.0830  -11.3260   45.1270 C.3    76  ARG76       0.0307
     27  CG        -8.5190  -12.4350   44.2950 C.3    76  ARG76       0.0489
     28  CD        -7.9540  -11.9190   42.9620 C.3    76  ARG76       0.2205
     29  NE        -7.2520  -12.9800   42.2530 N.pl3  76  ARG76      -0.0865
     30  CZ        -5.9900  -13.3300   42.5140 C.cat  76  ARG76       0.5346
     31  NH1       -5.3030  -12.6740   43.4420 N.pl3  76  ARG76       0.1354
     32  NH2       -5.4080  -14.3180   41.8410 N.pl3  76  ARG76       0.1354
     33  N         -6.4550  -14.4700   31.2180 N.3   158  GLY158     -0.1210
     34  CA        -5.5110  -15.5090   31.5630 C.3   158  GLY158      0.1956
     35  C         -6.2800  -16.8270   31.5470 C.2   158  GLY158      0.2612
     36  O         -7.5080  -16.8490   31.3850 O.2   158  GLY158     -0.2717
     37  N         -5.5610  -17.9250   31.7700 N.am  159  LEU159     -0.1965
     38  CA        -6.1570  -19.2650   31.8000 C.3   159  LEU159      0.1728
     39  C         -5.5610  -19.9730   33.0050 C.2   159  LEU159      0.2616
     40  O         -4.3920  -19.7720   33.3140 O.2   159  LEU159     -0.2715
     41  CB        -5.7040  -20.0650   30.5780 C.3   159  LEU159      0.0311
     42  CG        -6.4790  -20.1660   29.2680 C.3   159  LEU159      0.0022
     43  CD1       -7.7530  -19.4120   29.0760 C.3   159  LEU159      0.0001
     44  CD2       -5.6550  -20.4350   27.9930 C.3   159  LEU159      0.0001
     45  N         -6.3380  -20.8410   33.6420 N.am  160  GLY160     -0.1955
     46  CA        -5.8570  -21.6130   34.7780 C.3   160  GLY160      0.1869
     47  C         -5.7570  -23.0530   34.2990 C.2   160  GLY160      0.2309
     48  O         -6.3450  -23.4100   33.2690 O.2   160  GLY160     -0.2863
     49  N        -10.3420  -22.6220   33.7540 N.3   164  HIS164     -0.1226
     50  CA       -11.0800  -21.3730   34.0220 C.3   164  HIS164      0.1752
     51  C        -10.4230  -20.1530   33.3720 C.2   164  HIS164      0.2597
     52  O         -9.3090  -20.2060   32.9100 O.2   164  HIS164     -0.2718
     53  CB       -11.2610  -21.1410   35.5410 C.3   164  HIS164      0.0759
     54  CG       -10.2190  -20.2440   36.1590 C.ar  164  HIS164      0.0818
     55  ND1       -9.0340  -20.7230   36.6950 N.ar  164  HIS164     -0.2268
     56  CD2      -10.2010  -18.9010   36.3460 C.ar  164  HIS164      0.1154
     57  CE1       -8.3270  -19.7060   37.1590 C.ar  164  HIS164      0.1986
     58  NE2       -9.0000  -18.5880   36.9310 N.ar  164  HIS164     -0.2212
     59  N        -11.1760  -19.0680   33.2860 N.am  165  THR165     -0.1939
     60  CA       -10.6560  -17.8020   32.8080 C.3   165  THR165      0.2028
     61  C        -11.3210  -16.7720   33.7030 C.2   165  THR165      0.2642
     62  O        -12.2950  -17.0970   34.3800 O.2   165  THR165     -0.2714
     63  CB       -10.8500  -17.5940   31.2790 C.3   165  THR165      0.1808
     64  OG1      -10.0610  -16.4800   30.8450 O.3   165  THR165     -0.2208
     65  CG2      -12.2920  -17.4160   30.8900 C.3   165  THR165      0.0379
     66  N        -10.7720  -15.5660   33.7370 N.am  166  ALA166     -0.1963
     67  CA       -11.2510  -14.5360   34.6730 C.3   166  ALA166      0.1728
     68  C        -11.4440  -15.2180   36.0350 C.2   166  ALA166      0.2616
     69  O        -10.5850  -15.9470   36.4740 O.2   166  ALA166     -0.2715
     70  CB       -12.5630  -13.8760   34.1480 C.3   166  ALA166      0.0334
     71  N        -12.5680  -15.0110   36.7040 N.am  167  SER167     -0.1950
     72  CA       -12.8210  -15.7920   37.9110 C.3   167  SER167      0.1924
     73  C        -14.0720  -16.6140   37.6590 C.2   167  SER167      0.2314
     74  O        -14.8840  -16.8290   38.5520 O.2   167  SER167     -0.2863
     75  CB       -12.9270  -14.9630   39.1890 C.3   167  SER167      0.2116
     76  OG       -11.6430  -14.6880   39.7250 O.3   167  SER167     -0.2180
     77  N        -15.1890  -20.0190   37.4110 N.3   169  PHE169     -0.1241
     78  CA       -14.7380  -21.3560   37.7860 C.3   169  PHE169      0.1605
     79  C        -15.6140  -22.5180   37.3520 C.2   169  PHE169      0.2264
     80  O        -16.8140  -22.3560   37.0100 O.2   169  PHE169     -0.2867
     81  CB       -14.3180  -21.4290   39.2810 C.3   169  PHE169      0.0534
     82  CG       -13.0980  -20.5760   39.6130 C.ar  169  PHE169     -0.0203
     83  CD1      -13.2440  -19.3050   40.1450 C.ar  169  PHE169     -0.0042
     84  CD2      -11.8090  -21.0260   39.3150 C.ar  169  PHE169     -0.0042
     85  CE1      -12.1200  -18.5140   40.4240 C.ar  169  PHE169     -0.0003
     86  CE2      -10.6950  -20.2500   39.6000 C.ar  169  PHE169     -0.0003
     87  CZ       -10.8630  -18.9520   40.0840 C.ar  169  PHE169     -0.0000
     88  N         -6.8870  -23.9790   42.7070 N.3   193  MET193     -0.1230
     89  CA        -6.5790  -22.5500   42.5270 C.3   193  MET193      0.1702
     90  C         -6.6120  -21.7070   43.8020 C.2   193  MET193      0.2592
     91  O         -7.4560  -21.9250   44.6600 O.2   193  MET193     -0.2718
     92  CB        -7.4880  -21.9340   41.4530 C.3   193  MET193      0.0401
     93  CG        -7.4230  -22.6790   40.1420 C.3   193  MET193      0.0596
     94  SD        -5.9670  -22.3070   39.1310 S.3   193  MET193     -0.1393
     95  CE        -5.3710  -23.9520   38.8400 C.3   193  MET193      0.0692
     96  N         -5.7210  -20.7130   43.8830 N.am  194  LYS194     -0.1980
     97  CA        -5.6030  -19.8140   45.0540 C.3   194  LYS194      0.1596
     98  C         -5.4520  -18.3550   44.5650 C.2   194  LYS194      0.2287
     99  O         -5.1110  -18.1250   43.4290 O.2   194  LYS194     -0.2864
    100  CB        -4.3300  -20.1730   45.8240 C.3   194  LYS194      0.0298
    101  CG        -4.4490  -21.3730   46.7370 C.3   194  LYS194      0.0038
    102  CD        -3.3810  -21.3140   47.8210 C.3   194  LYS194      0.0206
    103  CE        -2.7970  -22.6880   48.0950 C.3   194  LYS194      0.1093
    104  NZ        -2.6910  -23.5050   46.8570 N.3   194  LYS194     -0.1314
    105  N        -14.5780  -14.1210   44.6110 N.3   199  ARG199     -0.1245
    106  CA       -14.2480  -13.2720   43.4530 C.3   199  ARG199      0.1563
    107  C        -15.4810  -12.6220   42.8450 C.2   199  ARG199      0.2260
    108  O        -16.5920  -13.1110   42.9750 O.2   199  ARG199     -0.2867
    109  CB       -13.5740  -14.1200   42.3170 C.3   199  ARG199      0.0307
    110  CG       -12.6050  -15.2160   42.7770 C.3   199  ARG199      0.0489
    111  CD       -11.3920  -14.5770   43.4390 C.3   199  ARG199      0.2205
    112  NE       -10.3720  -15.5390   43.8180 N.pl3 199  ARG199     -0.0865
    113  CZ        -9.5200  -16.0840   42.9690 C.cat 199  ARG199      0.5346
    114  NH1       -9.5860  -15.7790   41.6680 N.pl3 199  ARG199      0.1354
    115  NH2       -8.6080  -16.9190   43.4220 N.pl3 199  ARG199      0.1354
    116  N         -1.2350  -26.0610   31.0330 N.3   222  LYS222     -0.1245
    117  CA        -2.4190  -25.3680   30.5700 C.3   222  LYS222      0.1561
    118  C         -2.6900  -25.7450   29.1280 C.2   222  LYS222      0.2260
    119  O         -3.6320  -25.2470   28.5030 O.2   222  LYS222     -0.2867
    120  CB        -2.2810  -23.8390   30.7430 C.3   222  LYS222      0.0271
    121  CG        -1.9060  -23.3780   32.1830 C.3   222  LYS222      0.0035
    122  CD        -1.7290  -21.8560   32.2290 C.3   222  LYS222      0.0206
    123  CE        -1.4940  -21.3290   33.6100 C.3   222  LYS222      0.1093
    124  NZ        -1.5070  -19.8290   33.5850 N.3   222  LYS222     -0.1314
@<TRIPOS>BOND
     1    44    42    1
     2   119   118    2
     3    43    42    1
     4   118   117    1
     5    42    41    1
     6   117   120    1
     7   117   116    1
     8    41    38    1
     9   120   121    1
    10    64    63    1
    11    65    63    1
    12    33    34    1
    13    63    60    1
    14    36    35    2
    15    35    34    1
    16    35    37   am
    17    37    38    1
    18    38    39    1
    19   121   122    1
    20   122   123    1
    21    60    59    1
    22    60    61    1
    23    52    51    2
    24    39    40    2
    25    39    45   am
    26     5     2    1
    27    48    47    2
    28    59    51   am
    29    51    50    1
    30     1     2    1
    31   124   123    1
    32    45    46    1
    33    61    66   am
    34    61    62    2
    35    66    67    1
    36    49    50    1
    37    50    53    1
    38     2     3    1
    39    70    67    1
    40    47    46    1
    41    67    68    1
    42     4     3    2
    43     3     6   am
    44    53    54    1
    45     9     8    2
    46    13    12    2
    47    68    69    2
    48    68    71   am
    49    54    56   ar
    50    54    55   ar
    51     6     7    1
    52    56    58   ar
    53    12    11    1
    54    14    15    1
    55     8     7    1
    56     8    10   am
    57    55    57   ar
    58    71    72    1
    59    20    19   ar
    60    58    57   ar
    61    11    10    1
    62    80    79    2
    63    79    78    1
    64    77    78    1
    65    18    19    1
    66    18    15    1
    67    19    21   ar
    68    73    72    1
    69    73    74    2
    70    15    16    1
    71    78    81    1
    72    72    75    1
    73    17    16    2
    74    95    94    1
    75    94    93    1
    76    75    76    1
    77    81    82    1
    78    84    86   ar
    79    84    82   ar
    80    86    87   ar
    81    82    83   ar
    82    87    85   ar
    83    93    92    1
    84    83    85   ar
    85    92    89    1
    86   114   113    1
    87    32    30    1
    88    29    30    2
    89    29    28    1
    90   109   110    1
    91   109   106    1
    92    30    31    1
    93    89    88    1
    94    89    90    1
    95   110   111    1
    96   107   108    2
    97   107   106    1
    98    28    27    1
    99   113   115    1
   100   113   112    2
   101    22    23    1
   102    99    98    2
   103   111   112    1
   104   106   105    1
   105    90    96   am
   106    90    91    2
   107    96    97    1
   108    27    26    1
   109    98    97    1
   110    23    26    1
   111    23    24    1
   112    97   100    1
   113    24    25    2
   114   100   101    1
   115   101   102    1
   116   104   103    1
   117   102   103    1
