@<TRIPOS>MOLECULE
tmp/3ebdA02.pdb
 106 107 0 0 0
SMALL
GASTEIGER

@<TRIPOS>ATOM
      1  N        119.8870  108.4310   27.4000 N.3   118  CYS118     -0.1235
      2  CA       120.7510  109.5540   27.0460 C.3   118  CYS118      0.1677
      3  C        120.3460  110.2230   25.7320 C.2   118  CYS118      0.2270
      4  O        120.3440  109.5940   24.6730 O.2   118  CYS118     -0.2867
      5  CB       122.2000  109.1040   26.9450 C.3   118  CYS118      0.0956
      6  SG       123.2510  110.4110   26.3220 S.3   118  CYS118     -0.0801
      7  N        127.2130  111.8120   41.6280 N.3   181  GLN181     -0.1245
      8  CA       127.9500  112.5030   40.5770 C.3   181  GLN181      0.1566
      9  C        129.2730  112.9670   41.1730 C.2   181  GLN181      0.2260
     10  O        129.3900  113.1460   42.3920 O.2   181  GLN181     -0.2867
     11  CB       127.1660  113.7360   40.0960 C.3   181  GLN181      0.0367
     12  CG       125.6700  113.5100   39.9170 C.3   181  GLN181      0.0905
     13  CD       124.8880  114.7960   39.7010 C.2   181  GLN181      0.2608
     14  OE1      123.6640  114.8060   39.8060 O.2   181  GLN181     -0.2717
     15  NE2      125.5890  115.8830   39.3990 N.am  181  GLN181     -0.0878
     16  N        128.7210  117.9000   34.5880 N.3   268  PRO268     -0.2102
     17  CA       127.7760  116.8510   34.9580 C.3   268  PRO268      0.1504
     18  C        128.5160  115.5250   34.7580 C.2   268  PRO268      0.2576
     19  O        128.9530  115.2060   33.6460 O.2   268  PRO268     -0.2718
     20  CB       126.6420  117.0630   33.9680 C.3   268  PRO268      0.0282
     21  CG       127.3780  117.4320   32.7150 C.3   268  PRO268      0.0208
     22  CD       128.4970  118.3460   33.1960 C.3   268  PRO268      0.0893
     23  N        128.6820  114.7700   35.8380 N.am  269  ALA269     -0.1966
     24  CA       129.3890  113.5080   35.7550 C.3   269  ALA269      0.1728
     25  C        128.7300  112.4400   36.6070 C.2   269  ALA269      0.2616
     26  O        128.5170  112.6280   37.8040 O.2   269  ALA269     -0.2715
     27  CB       130.8330  113.7020   36.1870 C.3   269  ALA269      0.0334
     28  N        128.4000  111.3190   35.9780 N.am  270  VAL270     -0.1977
     29  CA       127.7820  110.1990   36.6750 C.3   270  VAL270      0.1596
     30  C        128.9210  109.4590   37.3680 C.2   270  VAL270      0.2287
     31  O        129.9050  109.0820   36.7260 O.2   270  VAL270     -0.2864
     32  CB       127.0700  109.2730   35.6700 C.3   270  VAL270      0.0276
     33  CG1      126.5740  108.0060   36.3600 C.3   270  VAL270      0.0022
     34  CG2      125.9080  110.0250   35.0370 C.3   270  VAL270      0.0022
     35  N        131.8570  109.0140   34.3620 N.3   287  PHE287     -0.1227
     36  CA       131.9180  109.6020   33.0370 C.3   287  PHE287      0.1736
     37  C        131.1650  110.9170   33.0130 C.2   287  PHE287      0.2595
     38  O        130.3250  111.1930   33.8820 O.2   287  PHE287     -0.2718
     39  CB       131.3350  108.6300   32.0020 C.3   287  PHE287      0.0547
     40  CG       129.9040  108.2390   32.2700 C.ar  287  PHE287     -0.0202
     41  CD1      128.8610  109.1210   31.9960 C.ar  287  PHE287     -0.0042
     42  CD2      129.6020  106.9940   32.8210 C.ar  287  PHE287     -0.0042
     43  CE1      127.5450  108.7680   32.2680 C.ar  287  PHE287     -0.0003
     44  CE2      128.2820  106.6300   33.0970 C.ar  287  PHE287     -0.0003
     45  CZ       127.2540  107.5200   32.8200 C.ar  287  PHE287     -0.0000
     46  N        131.4580  111.7330   32.0090 N.am  288  ASN288     -0.1960
     47  CA       130.7900  113.0240   31.9020 C.3   288  ASN288      0.1819
     48  C        130.6000  113.4600   30.4530 C.2   288  ASN288      0.2622
     49  O        131.3160  113.0220   29.5500 O.2   288  ASN288     -0.2715
     50  CB       131.6230  114.1120   32.5830 C.3   288  ASN288      0.1195
     51  CG       132.8310  114.4830   31.7560 C.2   288  ASN288      0.2630
     52  OD1      133.8630  113.8280   31.8250 O.2   288  ASN288     -0.2716
     53  ND2      132.6920  115.5110   30.9270 N.am  288  ASN288     -0.0877
     54  N        129.6440  114.3620   30.2710 N.am  289  GLY289     -0.1940
     55  CA       129.3720  114.9570   28.9770 C.3   289  GLY289      0.2014
     56  C        129.1580  116.3970   29.3890 C.2   289  GLY289      0.2639
     57  O        129.8690  116.8790   30.2710 O.2   289  GLY289     -0.2714
     58  N        128.2050  117.0930   28.7750 N.am  290  TRP290     -0.1959
     59  CA       127.9160  118.4560   29.1930 C.3   290  TRP290      0.1771
     60  C        126.4400  118.5600   29.4950 C.2   290  TRP290      0.2619
     61  O        125.6770  117.6420   29.2170 O.2   290  TRP290     -0.2715
     62  CB       128.3590  119.4910   28.1540 C.3   290  TRP290      0.0590
     63  CG       127.9130  119.2500   26.7620 C.ar  290  TRP290      0.0006
     64  CD1      126.6680  119.4710   26.2470 C.ar  290  TRP290      0.0946
     65  CD2      128.7180  118.7730   25.6830 C.ar  290  TRP290      0.0152
     66  NE1      126.6530  119.1670   24.9110 N.ar  290  TRP290     -0.2442
     67  CE2      127.8980  118.7310   24.5390 C.ar  290  TRP290      0.0810
     68  CE3      130.0550  118.3760   25.5710 C.ar  290  TRP290      0.0012
     69  CZ2      128.3720  118.3030   23.2890 C.ar  290  TRP290      0.0191
     70  CZ3      130.5280  117.9530   24.3280 C.ar  290  TRP290      0.0001
     71  CH2      129.6860  117.9190   23.2050 C.ar  290  TRP290      0.0015
     72  N        126.0490  119.6720   30.0960 N.am  291  TYR291     -0.1974
     73  CA       124.6720  119.9050   30.5040 C.3   291  TYR291      0.1639
     74  C        123.6570  120.2990   29.4270 C.2   291  TYR291      0.2290
     75  O        124.0010  120.8840   28.3980 O.2   291  TYR291     -0.2864
     76  CB       124.6620  120.9940   31.5820 C.3   291  TYR291      0.0560
     77  CG       124.6580  120.4920   33.0020 C.ar  291  TYR291     -0.0198
     78  CD1      123.5900  119.7440   33.4890 C.ar  291  TYR291     -0.0009
     79  CD2      125.7140  120.7820   33.8740 C.ar  291  TYR291     -0.0009
     80  CE1      123.5670  119.2930   34.8110 C.ar  291  TYR291      0.0417
     81  CE2      125.6980  120.3350   35.2060 C.ar  291  TYR291      0.0417
     82  CZ       124.6220  119.5910   35.6660 C.ar  291  TYR291      0.1957
     83  OH       124.5870  119.1450   36.9750 O.3   291  TYR291     -0.2866
     84  N        118.0100  120.4700   32.8090 N.3   295  GLU295     -0.1245
     85  CA       118.4310  119.6570   33.9540 C.3   295  GLU295      0.1567
     86  C        118.5690  120.5810   35.1630 C.2   295  GLU295      0.2260
     87  O        118.1060  120.2790   36.2720 O.2   295  GLU295     -0.2867
     88  CB       119.7930  118.9970   33.7010 C.3   295  GLU295      0.0388
     89  CG       119.8820  118.1430   32.4560 C.3   295  GLU295      0.1160
     90  CD       121.2010  117.3930   32.3520 C.2   295  GLU295      0.3649
     91  OE1      121.4630  116.5380   33.2180 O.co2 295  GLU295     -0.2457
     92  OE2      121.9810  117.6540   31.4100 O.co2 295  GLU295     -0.2457
     93  N        112.6020  109.2810   29.4390 N.3   381  TRP381     -0.1241
     94  CA       113.7720  110.0340   29.8380 C.3   381  TRP381      0.1605
     95  C        114.2230  110.9970   28.7400 C.2   381  TRP381      0.2264
     96  O        114.7640  112.0630   29.0210 O.2   381  TRP381     -0.2867
     97  CB       114.9110  109.0720   30.2010 C.3   381  TRP381      0.0550
     98  CG       114.9410  108.7330   31.6660 C.ar  381  TRP381      0.0003
     99  CD1      113.9700  108.1020   32.3840 C.ar  381  TRP381      0.0946
    100  CD2      115.9660  109.0860   32.6000 C.ar  381  TRP381      0.0152
    101  NE1      114.3220  108.0450   33.7100 N.ar  381  TRP381     -0.2442
    102  CE2      115.5440  108.6410   33.8700 C.ar  381  TRP381      0.0810
    103  CE3      117.2030  109.7350   32.4860 C.ar  381  TRP381      0.0012
    104  CZ2      116.3160  108.8230   35.0200 C.ar  381  TRP381      0.0191
    105  CZ3      117.9730  109.9150   33.6320 C.ar  381  TRP381      0.0001
    106  CH2      117.5240  109.4590   34.8810 C.ar  381  TRP381      0.0015
@<TRIPOS>BOND
     1    71    69   ar
     2    71    70   ar
     3    69    67   ar
     4    70    68   ar
     5    67    66   ar
     6    67    65   ar
     7     4     3    2
     8    66    64   ar
     9    68    65   ar
    10    65    63   ar
    11     3     2    1
    12    64    63   ar
    13     6     5    1
    14    63    62    1
    15     5     2    1
    16     2     1    1
    17    62    59    1
    18    75    74    2
    19    95    96    2
    20    95    94    1
    21    58    59    1
    22    58    56   am
    23    55    56    1
    24    55    54    1
    25    59    60    1
    26    61    60    2
    27    56    57    2
    28    74    73    1
    29    93    94    1
    30    60    72   am
    31    49    48    2
    32    94    97    1
    33    72    73    1
    34    97    98    1
    35    54    48   am
    36    48    47    1
    37    73    76    1
    38    53    51   am
    39    92    90   ar
    40    76    77    1
    41    98    99   ar
    42    98   100   ar
    43    51    52    2
    44    51    50    1
    45    47    46    1
    46    47    50    1
    47    41    43   ar
    48    41    40   ar
    49    39    40    1
    50    39    36    1
    51    46    37   am
    52    43    45   ar
    53    40    42   ar
    54    90    89    1
    55    90    91   ar
    56    99   101   ar
    57    89    88    1
    58   103   100   ar
    59   103   105   ar
    60   100   102   ar
    61    21    22    1
    62    21    20    1
    63    84    85    1
    64    45    44   ar
    65    42    44   ar
    66    77    78   ar
    67    77    79   ar
    68    37    36    1
    69    37    38    2
    70    36    35    1
    71    22    16    1
    72    78    80   ar
    73   105   106   ar
    74    19    18    2
    75    88    85    1
    76   101   102   ar
    77   102   104   ar
    78    79    81   ar
    79    85    86    1
    80    20    17    1
    81    16    17    1
    82    18    17    1
    83    18    23   am
    84    80    82   ar
    85   106   104   ar
    86    34    32    1
    87    86    87    2
    88    81    82   ar
    89    82    83    1
    90    32    33    1
    91    32    29    1
    92    24    23    1
    93    24    27    1
    94    24    25    1
    95    28    25   am
    96    28    29    1
    97    25    26    2
    98    29    30    1
    99    31    30    2
   100    15    13   am
   101    13    14    2
   102    13    12    1
   103    12    11    1
   104    11     8    1
   105     8     9    1
   106     8     7    1
   107     9    10    2
