@<TRIPOS>MOLECULE
tmp/3ebfB02.pdb
 195 196 0 0 0
SMALL
GASTEIGER

@<TRIPOS>ATOM
      1  N        128.7180  103.8760  100.2960 N.3   112  TRP112     -0.1241
      2  CA       128.5950  105.3230  100.3480 C.3   112  TRP112      0.1605
      3  C        129.5130  105.7900  101.4760 C.2   112  TRP112      0.2264
      4  O        130.3220  106.7120  101.3100 O.2   112  TRP112     -0.2867
      5  CB       127.1360  105.6950  100.6160 C.3   112  TRP112      0.0550
      6  CG       126.8590  107.1500  100.7720 C.ar  112  TRP112      0.0003
      7  CD1      127.7190  108.1920  100.5420 C.ar  112  TRP112      0.0946
      8  CD2      125.6280  107.7360  101.2130 C.ar  112  TRP112      0.0152
      9  NE1      127.0960  109.3880  100.8180 N.ar  112  TRP112     -0.2442
     10  CE2      125.8150  109.1380  101.2340 C.ar  112  TRP112      0.0810
     11  CE3      124.3850  107.2130  101.5930 C.ar  112  TRP112      0.0012
     12  CZ2      124.8010  110.0240  101.6230 C.ar  112  TRP112      0.0191
     13  CZ3      123.3760  108.0960  101.9760 C.ar  112  TRP112      0.0001
     14  CH2      123.5920  109.4850  101.9880 C.ar  112  TRP112      0.0015
     15  N        133.2460  111.7030   98.7050 N.3   118  CYS118     -0.1235
     16  CA       131.9480  112.2520   99.0830 C.3   118  CYS118      0.1677
     17  C        131.9370  113.0380  100.3930 C.2   118  CYS118      0.2270
     18  O        132.2430  112.5060  101.4660 O.2   118  CYS118     -0.2867
     19  CB       130.8860  111.1500   99.1690 C.3   118  CYS118      0.0956
     20  SG       129.2690  111.7880   99.6820 S.3   118  CYS118     -0.0801
     21  N        125.3160  111.0540   84.3760 N.3   181  GLN181     -0.1245
     22  CA       124.3580  111.4110   85.4190 C.3   181  GLN181      0.1566
     23  C        122.9580  111.1690   84.8500 C.2   181  GLN181      0.2260
     24  O        122.7560  111.2600   83.6290 O.2   181  GLN181     -0.2867
     25  CB       124.4850  112.8920   85.8040 C.3   181  GLN181      0.0367
     26  CG       125.8170  113.3280   86.4100 C.3   181  GLN181      0.0905
     27  CD       126.9040  113.5730   85.3760 C.2   181  GLN181      0.2608
     28  OE1      126.6330  114.0210   84.2540 O.2   181  GLN181     -0.2717
     29  NE2      128.1490  113.3060   85.7570 N.am  181  GLN181     -0.0878
     30  N        121.2290  115.5330   82.9460 N.3   184  ARG184     -0.1245
     31  CA       122.3740  116.2800   82.4420 C.3   184  ARG184      0.1563
     32  C        121.9240  116.9990   81.1710 C.2   184  ARG184      0.2260
     33  O        121.0140  116.5320   80.4850 O.2   184  ARG184     -0.2867
     34  CB       123.5260  115.3130   82.1340 C.3   184  ARG184      0.0307
     35  CG       124.8480  115.9760   81.7390 C.3   184  ARG184      0.0489
     36  CD       125.5310  116.6960   82.9100 C.3   184  ARG184      0.2205
     37  NE       126.7070  117.4450   82.4640 N.pl3 184  ARG184     -0.0865
     38  CZ       127.9230  116.9270   82.3100 C.cat 184  ARG184      0.5346
     39  NH1      128.1480  115.6500   82.5780 N.pl3 184  ARG184      0.1354
     40  NH2      128.9140  117.6810   81.8600 N.pl3 184  ARG184      0.1354
     41  N        118.9850  125.2720   86.4410 N.3   264  TRP264     -0.1227
     42  CA       119.6470  123.9990   86.6430 C.3   264  TRP264      0.1737
     43  C        118.6620  123.0100   87.2260 C.2   264  TRP264      0.2595
     44  O        117.6190  123.4010   87.7530 O.2   264  TRP264     -0.2718
     45  CB       120.8560  124.1450   87.5740 C.3   264  TRP264      0.0564
     46  CG       121.8530  123.0490   87.3470 C.ar  264  TRP264      0.0003
     47  CD1      122.0040  121.8980   88.0770 C.ar  264  TRP264      0.0946
     48  CD2      122.7900  122.9660   86.2660 C.ar  264  TRP264      0.0152
     49  NE1      122.9750  121.1100   87.5140 N.ar  264  TRP264     -0.2442
     50  CE2      123.4750  121.7390   86.4030 C.ar  264  TRP264      0.0810
     51  CE3      123.1140  123.8110   85.1910 C.ar  264  TRP264      0.0012
     52  CZ2      124.4680  121.3310   85.5070 C.ar  264  TRP264      0.0191
     53  CZ3      124.1050  123.4070   84.2940 C.ar  264  TRP264      0.0001
     54  CH2      124.7700  122.1740   84.4630 C.ar  264  TRP264      0.0015
     55  N        118.9780  121.7260   87.1140 N.am  265  TYR265     -0.1976
     56  CA       118.0990  120.7080   87.6570 C.3   265  TYR265      0.1639
     57  C        118.3900  120.4950   89.1360 C.2   265  TYR265      0.2290
     58  O        119.4990  120.7380   89.6090 O.2   265  TYR265     -0.2864
     59  CB       118.2410  119.3970   86.8820 C.3   265  TYR265      0.0560
     60  CG       119.6570  119.0180   86.5170 C.ar  265  TYR265     -0.0198
     61  CD1      120.2750  119.5520   85.3870 C.ar  265  TYR265     -0.0009
     62  CD2      120.3610  118.0880   87.2740 C.ar  265  TYR265     -0.0009
     63  CE1      121.5620  119.1560   85.0140 C.ar  265  TYR265      0.0417
     64  CE2      121.6390  117.6880   86.9140 C.ar  265  TYR265      0.0417
     65  CZ       122.2330  118.2180   85.7840 C.ar  265  TYR265      0.1957
     66  OH       123.4790  117.7720   85.4110 O.3   265  TYR265     -0.2866
     67  N        120.9480  115.6260   91.5690 N.3   268  PRO268     -0.2102
     68  CA       122.3060  115.1840   91.2240 C.3   268  PRO268      0.1504
     69  C        122.3330  113.6660   91.3960 C.2   268  PRO268      0.2576
     70  O        122.1930  113.1560   92.5100 O.2   268  PRO268     -0.2718
     71  CB       123.1790  115.9150   92.2460 C.3   268  PRO268      0.0282
     72  CG       122.3200  115.9550   93.4490 C.3   268  PRO268      0.0208
     73  CD       120.9220  116.2370   92.9130 C.3   268  PRO268      0.0893
     74  N        122.4860  112.9430   90.2950 N.am  269  ALA269     -0.1966
     75  CA       122.4760  111.4870   90.3560 C.3   269  ALA269      0.1728
     76  C        123.5430  110.8390   89.4890 C.2   269  ALA269      0.2616
     77  O        123.6100  111.0940   88.2900 O.2   269  ALA269     -0.2715
     78  CB       121.0970  110.9720   89.9510 C.3   269  ALA269      0.0334
     79  N        124.3700  109.9980   90.1050 N.am  270  VAL270     -0.1977
     80  CA       125.4340  109.2970   89.3920 C.3   270  VAL270      0.1596
     81  C        124.8250  108.0900   88.6890 C.2   270  VAL270      0.2287
     82  O        124.1840  107.2510   89.3210 O.2   270  VAL270     -0.2864
     83  CB       126.5300  108.8160   90.3620 C.3   270  VAL270      0.0276
     84  CG1      127.5380  107.9360   89.6270 C.3   270  VAL270      0.0022
     85  CG2      127.2200  110.0200   90.9940 C.3   270  VAL270      0.0022
     86  N        122.6160  106.2620   91.7050 N.3   287  PHE287     -0.1227
     87  CA       122.3050  106.7750   93.0250 C.3   287  PHE287      0.1736
     88  C        122.3140  108.2930   93.0420 C.2   287  PHE287      0.2595
     89  O        122.9310  108.9370   92.1850 O.2   287  PHE287     -0.2718
     90  CB       123.2810  106.2130   94.0740 C.3   287  PHE287      0.0547
     91  CG       124.7360  106.3390   93.7020 C.ar  287  PHE287     -0.0202
     92  CD1      125.4180  107.5450   93.8760 C.ar  287  PHE287     -0.0042
     93  CD2      125.4370  105.2380   93.2100 C.ar  287  PHE287     -0.0042
     94  CE1      126.7830  107.6500   93.5690 C.ar  287  PHE287     -0.0003
     95  CE2      126.8060  105.3290   92.8980 C.ar  287  PHE287     -0.0003
     96  CZ       127.4790  106.5380   93.0800 C.ar  287  PHE287     -0.0000
     97  N        121.6250  108.8610   94.0270 N.am  288  ASN288     -0.1960
     98  CA       121.5510  110.3060   94.1490 C.3   288  ASN288      0.1819
     99  C        121.4470  110.7540   95.6020 C.2   288  ASN288      0.2622
    100  O        121.1130  109.9760   96.4960 O.2   288  ASN288     -0.2715
    101  CB       120.3040  110.8240   93.4490 C.3   288  ASN288      0.1195
    102  CG       119.0550  110.5930   94.2820 C.2   288  ASN288      0.2630
    103  OD1      118.4850  109.5000   94.2900 O.2   288  ASN288     -0.2716
    104  ND2      118.6530  111.6120   95.0250 N.am  288  ASN288     -0.0877
    105  N        121.7110  112.0390   95.7940 N.am  289  GLY289     -0.1940
    106  CA       121.6000  112.6850   97.0840 C.3   289  GLY289      0.2014
    107  C        121.0610  114.0480   96.6860 C.2   289  GLY289      0.2639
    108  O        120.1780  114.1400   95.8230 O.2   289  GLY289     -0.2714
    109  N        121.5740  115.1110   97.2940 N.am  290  TRP290     -0.1959
    110  CA       121.1430  116.4430   96.9180 C.3   290  TRP290      0.1771
    111  C        122.3870  117.2660   96.6320 C.2   290  TRP290      0.2620
    112  O        123.5040  116.8220   96.8960 O.2   290  TRP290     -0.2715
    113  CB       120.2600  117.0830   98.0000 C.3   290  TRP290      0.0590
    114  CG       120.7990  117.0770   99.3830 C.ar  290  TRP290      0.0006
    115  CD1      121.7520  117.9020   99.8980 C.ar  290  TRP290      0.0946
    116  CD2      120.3820  116.2250  100.4530 C.ar  290  TRP290      0.0152
    117  NE1      121.9540  117.6220  101.2260 N.ar  290  TRP290     -0.2442
    118  CE2      121.1240  116.5950  101.5930 C.ar  290  TRP290      0.0810
    119  CE3      119.4490  115.1860  100.5590 C.ar  290  TRP290      0.0012
    120  CZ2      120.9640  115.9620  102.8310 C.ar  290  TRP290      0.0191
    121  CZ3      119.2890  114.5570  101.7900 C.ar  290  TRP290      0.0001
    122  CH2      120.0450  114.9490  102.9100 C.ar  290  TRP290      0.0015
    123  N        122.1890  118.4500   96.0710 N.am  291  TYR291     -0.1960
    124  CA       123.2850  119.3240   95.6880 C.3   291  TYR291      0.1771
    125  C        124.0020  120.1220   96.7730 C.2   291  TYR291      0.2619
    126  O        123.4680  120.3870   97.8510 O.2   291  TYR291     -0.2715
    127  CB       122.7870  120.3290   94.6370 C.3   291  TYR291      0.0574
    128  CG       123.0490  119.9380   93.2020 C.ar  291  TYR291     -0.0198
    129  CD1      124.3490  119.8410   92.7200 C.ar  291  TYR291     -0.0009
    130  CD2      121.9940  119.6590   92.3250 C.ar  291  TYR291     -0.0009
    131  CE1      124.6030  119.4820   91.4090 C.ar  291  TYR291      0.0417
    132  CE2      122.2380  119.2930   91.0070 C.ar  291  TYR291      0.0417
    133  CZ       123.5470  119.2090   90.5550 C.ar  291  TYR291      0.1957
    134  OH       123.8130  118.8580   89.2510 O.3   291  TYR291     -0.2866
    135  N        125.2350  120.4920   96.4500 N.am  292  MET292     -0.1977
    136  CA       126.0390  121.3700   97.2820 C.3   292  MET292      0.1605
    137  C        126.1630  122.5390   96.3070 C.2   292  MET292      0.2287
    138  O        126.5740  122.3520   95.1650 O.2   292  MET292     -0.2864
    139  CB       127.4200  120.7800   97.6020 C.3   292  MET292      0.0413
    140  CG       128.2870  121.7490   98.4220 C.3   292  MET292      0.0598
    141  SD       129.7210  121.0210   99.2610 S.3   292  MET292     -0.1393
    142  CE       130.9000  120.9690   97.9050 C.3   292  MET292      0.0692
    143  N        128.7430  123.0140   93.2970 N.3   295  GLU295     -0.1245
    144  CA       128.7550  122.1370   92.1280 C.3   295  GLU295      0.1567
    145  C        128.1840  122.8790   90.9210 C.2   295  GLU295      0.2260
    146  O        128.7120  122.7900   89.8050 O.2   295  GLU295     -0.2867
    147  CB       127.9250  120.8750   92.3850 C.3   295  GLU295      0.0388
    148  CG       128.3920  120.0200   93.5580 C.3   295  GLU295      0.1160
    149  CD       127.6250  118.7110   93.6450 C.2   295  GLU295      0.3649
    150  OE1      127.8560  117.8390   92.7820 O.co2 295  GLU295     -0.2457
    151  OE2      126.7840  118.5560   94.5590 O.co2 295  GLU295     -0.2457
    152  N        131.4700  125.0100   89.4720 N.3   299  ARG299     -0.1231
    153  CA       131.8950  124.1080   88.4080 C.3   299  ARG299      0.1694
    154  C        131.0130  124.1850   87.1640 C.2   299  ARG299      0.2592
    155  O        131.5030  124.4900   86.0780 O.2   299  ARG299     -0.2718
    156  CB       131.9530  122.6640   88.9280 C.3   299  ARG299      0.0321
    157  CG       132.7430  122.4750   90.2370 C.3   299  ARG299      0.0489
    158  CD       134.1560  123.0540   90.1600 C.3   299  ARG299      0.2205
    159  NE       134.8690  122.5690   88.9840 N.pl3 299  ARG299     -0.0865
    160  CZ       135.3150  121.3270   88.8370 C.cat 299  ARG299      0.5346
    161  NH1      135.1370  120.4280   89.8010 N.pl3 299  ARG299      0.1354
    162  NH2      135.9080  120.9740   87.7070 N.pl3 299  ARG299      0.1354
    163  N        129.7180  123.9180   87.3210 N.am  300  ASP300     -0.1974
    164  CA       128.7930  123.9600   86.1870 C.3   300  ASP300      0.1709
    165  C        128.7560  125.3100   85.4730 C.2   300  ASP300      0.2293
    166  O        128.8800  125.3670   84.2510 O.2   300  ASP300     -0.2864
    167  CB       127.3660  123.6090   86.6220 C.3   300  ASP300      0.1436
    168  CG       127.2490  122.2130   87.1960 C.2   300  ASP300      0.3671
    169  OD1      127.9900  121.3090   86.7460 O.co2 300  ASP300     -0.2456
    170  OD2      126.4000  122.0200   88.0910 O.co2 300  ASP300     -0.2456
    171  N        132.6950  124.3690   80.6720 N.3   306  ARG306     -0.1245
    172  CA       131.2800  124.1120   80.9350 C.3   306  ARG306      0.1563
    173  C        130.4430  125.2850   80.4140 C.2   306  ARG306      0.2260
    174  O        130.5130  125.6020   79.2240 O.2   306  ARG306     -0.2867
    175  CB       131.0480  123.8900   82.4360 C.3   306  ARG306      0.0307
    176  CG       131.8410  122.7070   83.0270 C.3   306  ARG306      0.0489
    177  CD       131.4320  121.3550   82.4240 C.3   306  ARG306      0.2205
    178  NE       130.0090  121.0860   82.6330 N.pl3 306  ARG306     -0.0865
    179  CZ       129.4510  120.8520   83.8170 C.cat 306  ARG306      0.5346
    180  NH1      130.1950  120.8340   84.9180 N.pl3 306  ARG306      0.1354
    181  NH2      128.1370  120.6790   83.9060 N.pl3 306  ARG306      0.1354
    182  N        139.2270  116.1780   96.6650 N.3   381  TRP381     -0.1241
    183  CA       137.8180  116.2530   96.2810 C.3   381  TRP381      0.1605
    184  C        136.9240  116.8410   97.3730 C.2   381  TRP381      0.2264
    185  O        135.9330  117.5190   97.0810 O.2   381  TRP381     -0.2867
    186  CB       137.2990  114.8680   95.8840 C.3   381  TRP381      0.0550
    187  CG       137.4920  114.5700   94.4270 C.ar  381  TRP381      0.0003
    188  CD1      138.6760  114.5180   93.7490 C.ar  381  TRP381      0.0946
    189  CD2      136.4620  114.3300   93.4570 C.ar  381  TRP381      0.0152
    190  NE1      138.4490  114.2630   92.4140 N.ar  381  TRP381     -0.2442
    191  CE2      137.0990  114.1430   92.2090 C.ar  381  TRP381      0.0810
    192  CE3      135.0630  114.2570   93.5230 C.ar  381  TRP381      0.0012
    193  CZ2      136.3820  113.8870   91.0300 C.ar  381  TRP381      0.0191
    194  CZ3      134.3510  114.0040   92.3530 C.ar  381  TRP381      0.0001
    195  CH2      135.0150  113.8220   91.1220 C.ar  381  TRP381      0.0015
@<TRIPOS>BOND
     1   174   173    2
     2   173   172    1
     3    33    32    2
     4   171   172    1
     5   172   175    1
     6    32    31    1
     7    35    34    1
     8    35    36    1
     9    40    38    1
    10    34    31    1
    11    38    37    2
    12    38    39    1
    13   177   178    1
    14   177   176    1
    15   175   176    1
    16    31    30    1
    17    37    36    1
    18   178   179    2
    19    24    23    2
    20   179   181    1
    21   179   180    1
    22   166   165    2
    23    28    27    2
    24    53    54   ar
    25    53    51   ar
    26    21    22    1
    27    54    52   ar
    28    23    22    1
    29    63    61   ar
    30    63    65   ar
    31    51    48   ar
    32    27    29   am
    33    27    26    1
    34    61    60   ar
    35    66    65    1
    36    22    25    1
    37   165   164    1
    38    52    50   ar
    39    65    64   ar
    40    25    26    1
    41   155   154    2
    42   164   167    1
    43   164   163    1
    44    48    50   ar
    45    48    46   ar
    46    50    49   ar
    47    41    42    1
    48    60    59    1
    49    60    62   ar
    50   167   168    1
    51    42    43    1
    52    42    45    1
    53   169   168   ar
    54    59    56    1
    55    64    62   ar
    56    55    43   am
    57    55    56    1
    58   154   163   am
    59   154   153    1
    60   168   170   ar
    61    43    44    2
    62    46    45    1
    63    46    47   ar
    64    49    47   ar
    65    56    57    1
    66   162   160    1
    67    77    76    2
    68   153   156    1
    69   153   152    1
    70    81    82    2
    71    81    80    1
    72   160   159    2
    73   160   161    1
    74   156   157    1
    75   159   158    1
    76    57    58    2
    77   134   133    1
    78    80    79    1
    79    80    83    1
    80    76    79   am
    81    76    75    1
    82    84    83    1
    83   146   145    2
    84    78    75    1
    85   158   157    1
    86    74    75    1
    87    74    69   am
    88    83    85    1
    89   133   132   ar
    90   133   131   ar
    91   145   144    1
    92   132   130   ar
    93   193   195   ar
    94   193   191   ar
    95   195   194   ar
    96    68    69    1
    97    68    67    1
    98    68    71    1
    99    69    70    2
   100   131   129   ar
   101    67    73    1
   102    86    87    1
   103   144   147    1
   104   144   143    1
   105    89    88    2
   106   191   190   ar
   107   191   189   ar
   108    71    72    1
   109   130   128   ar
   110   194   192   ar
   111   147   148    1
   112   190   188   ar
   113   129   128   ar
   114   150   149   ar
   115    95    96   ar
   116    95    93   ar
   117    73    72    1
   118    87    88    1
   119    87    90    1
   120    88    97   am
   121    96    94   ar
   122   128   127    1
   123    93    91   ar
   124   101    98    1
   125   101   102    1
   126   189   192   ar
   127   189   187   ar
   128   148   149    1
   129    94    92   ar
   130   149   151   ar
   131    91    92   ar
   132    91    90    1
   133   188   187   ar
   134    97    98    1
   135    98    99    1
   136   102   103    2
   137   102   104   am
   138   187   186    1
   139   127   124    1
   140   138   137    2
   141    99   105   am
   142    99   100    2
   143   124   123    1
   144   124   125    1
   145   105   106    1
   146   108   107    2
   147   186   183    1
   148   123   111   am
   149   183   182    1
   150   183   184    1
   151   137   136    1
   152   135   125   am
   153   135   136    1
   154   111   112    2
   155   111   110    1
   156   107   106    1
   157   107   109   am
   158   125   126    2
   159   110   109    1
   160   110   113    1
   161   185   184    2
   162   136   139    1
   163   139   140    1
   164   142   141    1
   165   113   114    1
   166   140   141    1
   167    15    16    1
   168    16    19    1
   169    16    17    1
   170    19    20    1
   171   114   115   ar
   172   114   116   ar
   173   115   117   ar
   174     1     2    1
   175     2     5    1
   176     2     3    1
   177    17    18    2
   178   116   119   ar
   179   116   118   ar
   180     7     6   ar
   181     7     9   ar
   182   119   121   ar
   183     5     6    1
   184     6     8   ar
   185     9    10   ar
   186     8    10   ar
   187     8    11   ar
   188   117   118   ar
   189    10    12   ar
   190     4     3    2
   191   118   120   ar
   192    11    13   ar
   193    12    14   ar
   194   121   122   ar
   195    13    14   ar
   196   120   122   ar
