@<TRIPOS>MOLECULE
tmp/3ebhA00.pdb
 185 175 0 0 0
SMALL
GASTEIGER

@<TRIPOS>ATOM
      1  N         14.3810   20.6030   19.8770 N.3   122  GLN122     -0.1245
      2  CA        13.9640   19.3430   19.2850 C.3   122  GLN122      0.1566
      3  C         12.6000   19.0300   19.8640 C.2   122  GLN122      0.2260
      4  O         12.4870   18.7320   21.0510 O.2   122  GLN122     -0.2867
      5  CB        14.9530   18.2200   19.5990 C.3   122  GLN122      0.0367
      6  CG        14.4690   16.8230   19.1760 C.3   122  GLN122      0.0905
      7  CD        14.1220   16.7400   17.7000 C.2   122  GLN122      0.2608
      8  OE1       14.8020   17.3250   16.8550 O.2   122  GLN122     -0.2717
      9  NE2       13.0590   16.0100   17.3810 N.am  122  GLN122     -0.0878
     10  N          9.8940   16.9980   18.1160 N.3   124  GLU124     -0.1231
     11  CA         9.2690   15.7010   17.8420 C.3   124  GLU124      0.1699
     12  C          9.7920   14.6500   18.8280 C.2   124  GLU124      0.2592
     13  O         10.9980   14.6060   19.0800 O.2   124  GLU124     -0.2718
     14  CB         9.5030   15.2510   16.3980 C.3   124  GLU124      0.0402
     15  CG         8.5420   14.1460   15.9850 C.3   124  GLU124      0.1161
     16  CD         8.8630   13.5140   14.6470 C.2   124  GLU124      0.3649
     17  OE1        9.7620   14.0020   13.9400 O.co2 124  GLU124     -0.2457
     18  OE2        8.1900   12.5260   14.3010 O.co2 124  GLU124     -0.2457
     19  N          8.9170   13.8210   19.4090 N.am  125  ALA125     -0.1980
     20  CA         7.4650   13.8600   19.2110 C.3   125  ALA125      0.1597
     21  C          6.7580   14.7430   20.2330 C.2   125  ALA125      0.2287
     22  O          5.7960   15.4420   19.8970 O.2   125  ALA125     -0.2864
     23  CB         6.8880   12.4480   19.2640 C.3   125  ALA125      0.0319
     24  N         19.2430   11.8300   17.4810 N.3   264  VAL264     -0.1231
     25  CA        19.1170   11.0230   16.2720 C.3   264  VAL264      0.1692
     26  C         19.9750   11.6080   15.1420 C.2   264  VAL264      0.2593
     27  O         20.9940   12.2460   15.4190 O.2   264  VAL264     -0.2718
     28  CB        17.6190   10.7980   15.8790 C.3   264  VAL264      0.0266
     29  CG1       16.9090    9.9850   16.9590 C.3   264  VAL264      0.0020
     30  CG2       16.8830   12.1200   15.6320 C.3   264  VAL264      0.0020
     31  N         19.5750   11.3870   13.8920 N.am  265  GLY265     -0.1942
     32  CA        20.3280   11.8650   12.7290 C.3   265  GLY265      0.2014
     33  C         19.9570   13.2760   12.3190 C.2   265  GLY265      0.2639
     34  O         20.8270   14.1130   12.0900 O.2   265  GLY265     -0.2714
     35  N         18.6560   13.5330   12.2100 N.am  266  ALA266     -0.1963
     36  CA        18.1680   14.8640   11.8380 C.3   266  ALA266      0.1728
     37  C         16.6800   15.0030   12.0900 C.2   266  ALA266      0.2616
     38  O         15.9980   14.0220   12.4080 O.2   266  ALA266     -0.2715
     39  CB        18.4780   15.1640   10.3830 C.3   266  ALA266      0.0334
     40  N         16.1840   16.2240   11.9140 N.am  267  MET267     -0.1963
     41  CA        14.7840   16.5500   12.1630 C.3   267  MET267      0.1736
     42  C         14.2640   17.5360   11.1200 C.2   267  MET267      0.2616
     43  O         14.9070   18.5410   10.8370 O.2   267  MET267     -0.2715
     44  CB        14.6280   17.1240   13.5720 C.3   267  MET267      0.0427
     45  CG        13.2180   17.5640   13.9180 C.3   267  MET267      0.0599
     46  SD        12.0390   16.1990   13.9090 S.3   267  MET267     -0.1393
     47  CE        10.5620   17.0720   13.3670 C.3   267  MET267      0.0692
     48  N         13.0840   17.2440   10.5800 N.am  268  GLU268     -0.1977
     49  CA        12.5330   17.9570    9.4250 C.3   268  GLU268      0.1602
     50  C         11.7220   19.2240    9.7470 C.2   268  GLU268      0.2287
     51  O         10.7590   19.5400    9.0420 O.2   268  GLU268     -0.2864
     52  CB        11.6670   16.9950    8.6000 C.3   268  GLU268      0.0415
     53  CG        10.3260   16.6080    9.2510 C.3   268  GLU268      0.1163
     54  CD        10.3970   15.3960   10.1700 C.2   268  GLU268      0.3649
     55  OE1       11.4930   15.0540   10.6670 O.co2 268  GLU268     -0.2457
     56  OE2        9.3340   14.7780   10.3970 O.co2 268  GLU268     -0.2457
     57  N         25.7420    8.8520    3.9190 N.3   294  ARG294     -0.1245
     58  CA        24.9160    9.2190    5.0740 C.3   294  ARG294      0.1563
     59  C         24.2770   10.6110    4.9220 C.2   294  ARG294      0.2260
     60  O         23.0730   10.7740    5.1330 O.2   294  ARG294     -0.2867
     61  CB        25.7310    9.1240    6.3720 C.3   294  ARG294      0.0307
     62  CG        25.0090    9.6070    7.6300 C.3   294  ARG294      0.0489
     63  CD        23.8270    8.7190    7.9920 C.3   294  ARG294      0.2205
     64  NE        23.1770    9.1810    9.2160 N.pl3 294  ARG294     -0.0865
     65  CZ        22.0770    8.6400    9.7360 C.cat 294  ARG294      0.5346
     66  NH1       21.4890    7.6080    9.1400 N.pl3 294  ARG294      0.1354
     67  NH2       21.5570    9.1400   10.8490 N.pl3 294  ARG294      0.1354
     68  N         21.6330   10.6350    2.2230 N.3   297  THR297     -0.1203
     69  CA        20.4150    9.9930    2.7220 C.3   297  THR297      0.1994
     70  C         19.6340   10.8860    3.6750 C.2   297  THR297      0.2617
     71  O         18.4230   11.0350    3.5230 O.2   297  THR297     -0.2717
     72  CB        20.6870    8.6420    3.4230 C.3   297  THR297      0.1784
     73  OG1       21.6510    8.8200    4.4630 O.3   297  THR297     -0.2211
     74  CG2       21.1930    7.6150    2.4340 C.3   297  THR297      0.0376
     75  N         20.3260   11.4940    4.6330 N.am  298  VAL298     -0.1979
     76  CA        19.6580   12.2690    5.6740 C.3   298  VAL298      0.1595
     77  C         19.1070   13.5910    5.1530 C.2   298  VAL298      0.2287
     78  O         17.9600   13.9410    5.4420 O.2   298  VAL298     -0.2864
     79  CB        20.5630   12.4440    6.9110 C.3   298  VAL298      0.0276
     80  CG1       19.8690   13.2860    7.9690 C.3   298  VAL298      0.0022
     81  CG2       20.8960   11.0720    7.4900 C.3   298  VAL298      0.0022
     82  N         16.1630   12.5570    2.9670 N.3   301  HIS301     -0.1226
     83  CA        15.0680   12.1200    3.8320 C.3   301  HIS301      0.1752
     84  C         14.3110   13.3040    4.4320 C.2   301  HIS301      0.2595
     85  O         13.1000   13.4240    4.2520 O.2   301  HIS301     -0.2718
     86  CB        15.6130   11.2210    4.9480 C.3   301  HIS301      0.0759
     87  CG        14.5610   10.6880    5.8680 C.ar  301  HIS301      0.0818
     88  ND1       14.1530    9.3720    5.8470 N.ar  301  HIS301     -0.2268
     89  CD2       13.8460   11.2890    6.8470 C.ar  301  HIS301      0.1154
     90  CE1       13.2230    9.1880    6.7680 C.ar  301  HIS301      0.1986
     91  NE2       13.0200   10.3350    7.3890 N.ar  301  HIS301     -0.2212
     92  N         15.0260   14.1930    5.1180 N.am  302  GLU302     -0.1979
     93  CA        14.3640   15.3290    5.7640 C.3   302  GLU302      0.1602
     94  C         13.7270   16.2730    4.7480 C.2   302  GLU302      0.2287
     95  O         12.6700   16.8450    5.0140 O.2   302  GLU302     -0.2864
     96  CB        15.3000   16.0820    6.7150 C.3   302  GLU302      0.0415
     97  CG        16.0690   15.2110    7.7280 C.3   302  GLU302      0.1163
     98  CD        15.2260   14.2020    8.5280 C.2   302  GLU302      0.3649
     99  OE1       13.9940   14.3690    8.6800 O.co2 302  GLU302     -0.2457
    100  OE2       15.8280   13.2290    9.0270 O.co2 302  GLU302     -0.2457
    101  N         10.3740   14.8960    3.6090 N.3   305  HIS305     -0.1241
    102  CA         9.3370   15.1330    4.6210 C.3   305  HIS305      0.1621
    103  C          8.5150   16.3920    4.3490 C.2   305  HIS305      0.2264
    104  O          7.3770   16.4970    4.8120 O.2   305  HIS305     -0.2867
    105  CB         9.9400   15.2400    6.0180 C.3   305  HIS305      0.0745
    106  CG        10.0070   13.9430    6.7590 C.ar  305  HIS305      0.0817
    107  ND1        8.9260   13.0960    6.8820 N.ar  305  HIS305     -0.2268
    108  CD2       11.0170   13.3680    7.4540 C.ar  305  HIS305      0.1154
    109  CE1        9.2750   12.0430    7.6000 C.ar  305  HIS305      0.1986
    110  NE2       10.5380   12.1860    7.9650 N.ar  305  HIS305     -0.2212
    111  N          4.4670    8.7680    7.6370 N.3   323  LYS323     -0.1231
    112  CA         5.5070    9.7310    7.2690 C.3   323  LYS323      0.1693
    113  C          6.9110    9.1290    7.2470 C.2   323  LYS323      0.2591
    114  O          7.7070    9.4620    6.3750 O.2   323  LYS323     -0.2718
    115  CB         5.4330   11.0400    8.0840 C.3   323  LYS323      0.0285
    116  CG         5.9440   11.0080    9.5190 C.3   323  LYS323      0.0035
    117  CD         5.8840   12.4260   10.1140 C.3   323  LYS323      0.0206
    118  CE         6.4870   12.5110   11.5110 C.3   323  LYS323      0.1093
    119  NZ         7.9760   12.6020   11.5190 N.3   323  LYS323     -0.1314
    120  N          7.2140    8.2320    8.1790 N.am  324  GLU324     -0.1979
    121  CA         8.5760    7.7090    8.2700 C.3   324  GLU324      0.1602
    122  C          8.8530    6.6170    7.2390 C.2   324  GLU324      0.2287
    123  O          9.8400    6.6940    6.5070 O.2   324  GLU324     -0.2864
    124  CB         8.9190    7.2580    9.6910 C.3   324  GLU324      0.0415
    125  CG         8.9580    8.4070   10.7260 C.3   324  GLU324      0.1163
    126  CD         9.8580    9.5760   10.3260 C.2   324  GLU324      0.3649
    127  OE1       10.7450    9.4030    9.4600 O.co2 324  GLU324     -0.2457
    128  OE2        9.6930   10.6780   10.8970 O.co2 324  GLU324     -0.2457
    129  N         11.2770    7.1580    4.0680 N.3   328  VAL328     -0.1245
    130  CA        12.4220    6.2610    3.8560 C.3   328  VAL328      0.1561
    131  C         12.3600    5.6890    2.4360 C.2   328  VAL328      0.2260
    132  O         13.3660    5.6580    1.7260 O.2   328  VAL328     -0.2867
    133  CB        12.4940    5.1240    4.9090 C.3   328  VAL328      0.0252
    134  CG1       13.5790    4.1000    4.5340 C.3   328  VAL328      0.0019
    135  CG2       12.7830    5.6920    6.2780 C.3   328  VAL328      0.0019
    136  N         13.4070    8.4030    0.0950 N.3   331  GLU331     -0.1245
    137  CA        14.8690    8.5420    0.1660 C.3   331  GLU331      0.1567
    138  C         15.5900    7.3920   -0.5550 C.2   331  GLU331      0.2260
    139  O         16.6160    7.6140   -1.2010 O.2   331  GLU331     -0.2867
    140  CB        15.3530    8.6640    1.6160 C.3   331  GLU331      0.0388
    141  CG        16.8820    8.7660    1.7460 C.3   331  GLU331      0.1160
    142  CD        17.5650    7.3980    1.7370 C.2   331  GLU331      0.3649
    143  OE1       17.0340    6.4740    2.3790 O.co2 331  GLU331     -0.2457
    144  OE2       18.6280    7.2500    1.0910 O.co2 331  GLU331     -0.2457
    145  N          9.1480    8.2680   22.5690 N.3   377  GLU377     -0.1245
    146  CA        10.5850    8.2710   22.2930 C.3   377  GLU377      0.1567
    147  C         11.1240    6.8750   21.9340 C.2   377  GLU377      0.2260
    148  O         12.2370    6.7590   21.4200 O.2   377  GLU377     -0.2867
    149  CB        11.3620    8.8860   23.4650 C.3   377  GLU377      0.0388
    150  CG        11.1260   10.3930   23.6510 C.3   377  GLU377      0.1160
    151  CD        11.8380   10.9840   24.8660 C.2   377  GLU377      0.3649
    152  OE1       12.2240   10.2250   25.7830 O.co2 377  GLU377     -0.2457
    153  OE2       12.0060   12.2220   24.9080 O.co2 377  GLU377     -0.2457
    154  N         10.1350    5.0600   17.4710 N.3   380  TYR380     -0.1241
    155  CA        10.8120    5.3170   16.2040 C.3   380  TYR380      0.1605
    156  C         11.7660    4.1760   15.9110 C.2   380  TYR380      0.2264
    157  O         12.9760    4.2900   16.0840 O.2   380  TYR380     -0.2867
    158  CB        11.5220    6.6740   16.2540 C.3   380  TYR380      0.0534
    159  CG        10.5480    7.8260   16.2830 C.ar  380  TYR380     -0.0201
    160  CD1       10.3830    8.6520   15.1720 C.ar  380  TYR380     -0.0009
    161  CD2        9.7710    8.0780   17.4160 C.ar  380  TYR380     -0.0009
    162  CE1        9.4810    9.7060   15.1930 C.ar  380  TYR380      0.0417
    163  CE2        8.8640    9.1150   17.4490 C.ar  380  TYR380      0.0417
    164  CZ         8.7190    9.9280   16.3390 C.ar  380  TYR380      0.1957
    165  OH         7.8180   10.9520   16.3850 O.3   380  TYR380     -0.2866
    166  N         10.1740    2.3380   10.5280 N.3   385  TYR385     -0.1241
    167  CA        10.9570    2.9450    9.4530 C.3   385  TYR385      0.1605
    168  C         11.2350    2.0130    8.2860 C.2   385  TYR385      0.2264
    169  O         10.8940    2.3160    7.1390 O.2   385  TYR385     -0.2867
    170  CB        12.2870    3.4380   10.0070 C.3   385  TYR385      0.0534
    171  CG        12.2250    4.8020   10.6300 C.ar  385  TYR385     -0.0201
    172  CD1       12.8640    5.8810   10.0290 C.ar  385  TYR385     -0.0009
    173  CD2       11.5320    5.0200   11.8220 C.ar  385  TYR385     -0.0009
    174  CE1       12.8190    7.1420   10.6000 C.ar  385  TYR385      0.0417
    175  CE2       11.4810    6.2830   12.4050 C.ar  385  TYR385      0.0417
    176  CZ        12.1220    7.3400   11.7840 C.ar  385  TYR385      0.1957
    177  OH        12.0790    8.5950   12.3470 O.3   385  TYR385     -0.2866
    178  N         16.4140    8.7270   26.1550 N.3   839  MET839     -0.1245
    179  CA        16.3360    8.2700   24.7690 C.3   839  MET839      0.1570
    180  C         17.5990    7.5230   24.3380 C.2   839  MET839      0.2261
    181  O         17.5160    6.4230   23.7900 O.2   839  MET839     -0.2867
    182  CB        16.0530    9.4270   23.8150 C.3   839  MET839      0.0387
    183  CG        15.8300    8.9860   22.3920 C.3   839  MET839      0.0595
    184  SD        15.2080   10.3370   21.3920 S.3   839  MET839     -0.1393
    185  CE        14.8820    9.4870   19.8550 C.3   839  MET839      0.0692
@<TRIPOS>BOND
     1   139   138    2
     2   138   137    1
     3   136   137    1
     4   137   140    1
     5   144   142   ar
     6   140   141    1
     7   132   131    2
     8   142   141    1
     9   142   143   ar
    10    68    69    1
    11    74    72    1
    12   131   130    1
    13    69    72    1
    14    69    70    1
    15    82    83    1
    16    72    73    1
    17    71    70    2
    18   101   102    1
    19    70    75   am
    20    83    84    1
    21    83    86    1
    22   130   129    1
    23   130   133    1
    24    57    58    1
    25    85    84    2
    26   103   102    1
    27   103   104    2
    28    84    92   am
    29   134   133    1
    30   102   105    1
    31    75    76    1
    32    94    95    2
    33    94    93    1
    34   133   135    1
    35    59    58    1
    36    59    60    2
    37    86    87    1
    38    58    61    1
    39    92    93    1
    40    77    78    2
    41    77    76    1
    42    76    79    1
    43    93    96    1
    44    88    87   ar
    45    88    90   ar
    46    87    89   ar
    47   105   106    1
    48    61    62    1
    49   114   113    2
    50   123   122    2
    51    96    97    1
    52   106   107   ar
    53   106   108   ar
    54    90    91   ar
    55    89    91   ar
    56   107   109   ar
    57    79    81    1
    58    79    80    1
    59   169   168    2
    60   122   121    1
    61   113   112    1
    62   113   120   am
    63   112   111    1
    64   112   115    1
    65   108   110   ar
    66   109   110   ar
    67    62    63    1
    68    97    98    1
    69    63    64    1
    70   115   116    1
    71   120   121    1
    72   121   124    1
    73   168   167    1
    74    98    99   ar
    75    98   100   ar
    76    52    53    1
    77    52    49    1
    78    51    50    2
    79    66    65    1
    80    64    65    2
    81    53    54    1
    82    49    50    1
    83    49    48    1
    84   167   170    1
    85   167   166    1
    86   127   126   ar
    87   116   117    1
    88   124   125    1
    89    65    67    1
    90   170   171    1
    91   172   174   ar
    92   172   171   ar
    93   117   118    1
    94    54    56   ar
    95    54    55   ar
    96   126   125    1
    97   126   128   ar
    98    39    36    1
    99    48    42   am
   100   174   176   ar
   101   171   173   ar
   102    43    42    2
   103    42    41    1
   104   118   119    1
   105   176   177    1
   106   176   175   ar
   107   173   175   ar
   108    36    37    1
   109    36    35    1
   110    40    37   am
   111    40    41    1
   112    34    33    2
   113    37    38    2
   114    41    44    1
   115    35    33   am
   116    33    32    1
   117    32    31    1
   118    47    46    1
   119    44    45    1
   120    31    26   am
   121    46    45    1
   122    17    16   ar
   123    18    16   ar
   124    16    15    1
   125    26    27    2
   126    26    25    1
   127   160   162   ar
   128   160   159   ar
   129   162   164   ar
   130    30    28    1
   131    28    25    1
   132    28    29    1
   133   156   157    2
   134   156   155    1
   135    15    14    1
   136   155   158    1
   137   155   154    1
   138   158   159    1
   139    25    24    1
   140   159   161   ar
   141   164   165    1
   142   164   163   ar
   143    14    11    1
   144     8     7    2
   145     9     7   am
   146   161   163   ar
   147     7     6    1
   148    11    10    1
   149    11    12    1
   150    12    13    2
   151    12    19   am
   152     6     5    1
   153    20    23    1
   154    20    19    1
   155    20    21    1
   156     2     5    1
   157     2     3    1
   158     2     1    1
   159   185   184    1
   160     3     4    2
   161    22    21    2
   162   184   183    1
   163   148   147    2
   164   147   146    1
   165   146   145    1
   166   146   149    1
   167   183   182    1
   168   149   150    1
   169   150   151    1
   170   181   180    2
   171   182   179    1
   172   180   179    1
   173   179   178    1
   174   151   153   ar
   175   151   152   ar
