@<TRIPOS>MOLECULE
tmp/3ebiA00.pdb
 184 174 0 0 0
SMALL
GASTEIGER

@<TRIPOS>ATOM
      1  N         14.4370   20.5600   19.9750 N.3   122  GLN122     -0.1245
      2  CA        13.9780   19.3200   19.3550 C.3   122  GLN122      0.1566
      3  C         12.5990   19.0090   19.9290 C.2   122  GLN122      0.2260
      4  O         12.4610   18.6770   21.1100 O.2   122  GLN122     -0.2867
      5  CB        14.9680   18.1610   19.5930 C.3   122  GLN122      0.0367
      6  CG        14.4840   16.7790   19.0950 C.3   122  GLN122      0.0905
      7  CD        14.1230   16.7850   17.6120 C.2   122  GLN122      0.2608
      8  OE1       14.7870   17.4270   16.8030 O.2   122  GLN122     -0.2717
      9  NE2       13.0670   16.0790   17.2580 N.am  122  GLN122     -0.0878
     10  N          9.8400   17.0350   18.0990 N.3   124  GLU124     -0.1231
     11  CA         9.2840   15.7000   17.8530 C.3   124  GLU124      0.1699
     12  C          9.8670   14.6980   18.8780 C.2   124  GLU124      0.2592
     13  O         11.0670   14.7220   19.1350 O.2   124  GLU124     -0.2718
     14  CB         9.5310   15.2360   16.4110 C.3   124  GLU124      0.0402
     15  CG         8.7780   13.9450   16.0790 C.3   124  GLU124      0.1161
     16  CD         8.9660   13.4490   14.6530 C.2   124  GLU124      0.3649
     17  OE1        9.7220   14.0530   13.8660 O.co2 124  GLU124     -0.2457
     18  OE2        8.3340   12.4330   14.3160 O.co2 124  GLU124     -0.2457
     19  N          9.0420   13.8540   19.5000 N.am  125  ALA125     -0.1980
     20  CA         7.5800   13.8680   19.3920 C.3   125  ALA125      0.1597
     21  C          6.9310   14.7600   20.4520 C.2   125  ALA125      0.2287
     22  O          5.9450   15.4350   20.1620 O.2   125  ALA125     -0.2864
     23  CB         7.0270   12.4480   19.4940 C.3   125  ALA125      0.0319
     24  N         20.0280   13.4770   19.3340 N.3   263  ASN263     -0.1225
     25  CA        19.5990   12.1120   19.6560 C.3   263  ASN263      0.1785
     26  C         19.4990   11.1620   18.4580 C.2   263  ASN263      0.2597
     27  O         19.7560    9.9680   18.5940 O.2   263  ASN263     -0.2718
     28  CB        18.2910   12.1320   20.4510 C.3   263  ASN263      0.1169
     29  CG        18.4940   12.5950   21.8790 C.2   263  ASN263      0.2627
     30  OD1       19.6010   12.5390   22.4100 O.2   263  ASN263     -0.2716
     31  ND2       17.4200   13.0450   22.5120 N.am  263  ASN263     -0.0877
     32  N         19.1270   11.6990   17.2980 N.am  264  VAL264     -0.1966
     33  CA        19.0030   10.8980   16.0780 C.3   264  VAL264      0.1727
     34  C         19.8470   11.4930   14.9460 C.2   264  VAL264      0.2617
     35  O         20.7990   12.2330   15.2120 O.2   264  VAL264     -0.2715
     36  CB        17.5180   10.6840   15.6680 C.3   264  VAL264      0.0290
     37  CG1       16.8030    9.8020   16.7120 C.3   264  VAL264      0.0023
     38  CG2       16.7900   12.0200   15.4590 C.3   264  VAL264      0.0023
     39  N         19.5020   11.1660   13.7010 N.am  265  GLY265     -0.1940
     40  CA        20.1990   11.6900   12.5310 C.3   265  GLY265      0.2014
     41  C         19.8670   13.1410   12.1980 C.2   265  GLY265      0.2639
     42  O         20.7610   13.9330   11.9150 O.2   265  GLY265     -0.2714
     43  N         18.5800   13.4840   12.2050 N.am  266  ALA266     -0.1963
     44  CA        18.1400   14.8420   11.8460 C.3   266  ALA266      0.1728
     45  C         16.6610   15.0630   12.1490 C.2   266  ALA266      0.2616
     46  O         15.9840   14.1660   12.6770 O.2   266  ALA266     -0.2715
     47  CB        18.4570   15.1550   10.3720 C.3   266  ALA266      0.0334
     48  N         16.1700   16.2650   11.8540 N.am  267  MET267     -0.1963
     49  CA        14.7830   16.6250   12.1430 C.3   267  MET267      0.1736
     50  C         14.2380   17.5920   11.1020 C.2   267  MET267      0.2616
     51  O         14.8490   18.6260   10.8380 O.2   267  MET267     -0.2715
     52  CB        14.6540   17.2350   13.5460 C.3   267  MET267      0.0427
     53  CG        13.2220   17.6470   13.9010 C.3   267  MET267      0.0599
     54  SD        12.0180   16.2800   13.8850 S.3   267  MET267     -0.1393
     55  CE        10.5730   17.1630   13.2710 C.3   267  MET267      0.0692
     56  N         13.0750   17.2660   10.5410 N.am  268  GLU268     -0.1977
     57  CA        12.5030   18.0110    9.4090 C.3   268  GLU268      0.1602
     58  C         11.6900   19.2580    9.7750 C.2   268  GLU268      0.2287
     59  O         10.7020   19.5490    9.1060 O.2   268  GLU268     -0.2864
     60  CB        11.6350   17.0840    8.5520 C.3   268  GLU268      0.0415
     61  CG        10.3100   16.6240    9.2210 C.3   268  GLU268      0.1163
     62  CD        10.4150   15.4060   10.1250 C.2   268  GLU268      0.3649
     63  OE1       11.5200   15.0340   10.5680 O.co2 268  GLU268     -0.2457
     64  OE2        9.3560   14.7910   10.3950 O.co2 268  GLU268     -0.2457
     65  N         25.8320    8.7800    3.8280 N.3   294  ARG294     -0.1245
     66  CA        25.0180    9.1580    4.9870 C.3   294  ARG294      0.1563
     67  C         24.3920   10.5550    4.8430 C.2   294  ARG294      0.2260
     68  O         23.2060   10.7200    5.1020 O.2   294  ARG294     -0.2867
     69  CB        25.8500    9.0640    6.2730 C.3   294  ARG294      0.0307
     70  CG        25.1610    9.5670    7.5350 C.3   294  ARG294      0.0489
     71  CD        24.0430    8.6270    7.9360 C.3   294  ARG294      0.2205
     72  NE        23.3560    9.0620    9.1470 N.pl3 294  ARG294     -0.0865
     73  CZ        22.4580    8.3320    9.8030 C.cat 294  ARG294      0.5346
     74  NH1       22.1470    7.1200    9.3750 N.pl3 294  ARG294      0.1354
     75  NH2       21.8730    8.8150   10.8860 N.pl3 294  ARG294      0.1354
     76  N         21.7030   10.5380    2.0930 N.3   297  THR297     -0.1203
     77  CA        20.4590    9.9530    2.6180 C.3   297  THR297      0.1994
     78  C         19.7170   10.8380    3.6320 C.2   297  THR297      0.2617
     79  O         18.4960   10.9530    3.5570 O.2   297  THR297     -0.2717
     80  CB        20.6250    8.5180    3.2290 C.3   297  THR297      0.1784
     81  OG1       21.2350    8.5880    4.5140 O.3   297  THR297     -0.2211
     82  CG2       21.4210    7.6170    2.3350 C.3   297  THR297      0.0376
     83  N         20.4490   11.4640    4.5520 N.am  298  VAL298     -0.1979
     84  CA        19.8170   12.2300    5.6340 C.3   298  VAL298      0.1595
     85  C         19.2480   13.5610    5.1260 C.2   298  VAL298      0.2287
     86  O         18.0880   13.8860    5.4240 O.2   298  VAL298     -0.2864
     87  CB        20.7300   12.3780    6.8760 C.3   298  VAL298      0.0276
     88  CG1       20.0850   13.2780    7.9310 C.3   298  VAL298      0.0022
     89  CG2       20.9990   10.9890    7.5070 C.3   298  VAL298      0.0022
     90  N         16.2590   12.5000    2.9720 N.3   301  HIS301     -0.1226
     91  CA        15.1730   12.1440    3.8940 C.3   301  HIS301      0.1752
     92  C         14.4590   13.3780    4.4720 C.2   301  HIS301      0.2595
     93  O         13.2270   13.4730    4.4380 O.2   301  HIS301     -0.2718
     94  CB        15.7560   11.3100    5.0360 C.3   301  HIS301      0.0759
     95  CG        14.7330   10.7660    5.9780 C.ar  301  HIS301      0.0818
     96  ND1       14.2770    9.4680    5.9090 N.ar  301  HIS301     -0.2268
     97  CD2       14.0830   11.3400    7.0160 C.ar  301  HIS301      0.1154
     98  CE1       13.3800    9.2690    6.8590 C.ar  301  HIS301      0.1986
     99  NE2       13.2460   10.3880    7.5470 N.ar  301  HIS301     -0.2212
    100  N         15.2390   14.3120    5.0120 N.am  302  GLU302     -0.1979
    101  CA        14.6740   15.5240    5.6180 C.3   302  GLU302      0.1602
    102  C         13.9550   16.3860    4.5950 C.2   302  GLU302      0.2287
    103  O         12.8640   16.8990    4.8690 O.2   302  GLU302     -0.2864
    104  CB        15.7470   16.3490    6.3500 C.3   302  GLU302      0.0415
    105  CG        16.4710   15.6240    7.4870 C.3   302  GLU302      0.1163
    106  CD        15.5450   14.8260    8.4100 C.2   302  GLU302      0.3649
    107  OE1       14.4420   15.3140    8.7550 O.co2 302  GLU302     -0.2457
    108  OE2       15.9430   13.7070    8.7980 O.co2 302  GLU302     -0.2457
    109  N         10.4950   14.8230    3.6500 N.3   305  HIS305     -0.1241
    110  CA         9.5230   15.0670    4.7110 C.3   305  HIS305      0.1621
    111  C          8.6680   16.3160    4.4870 C.2   305  HIS305      0.2264
    112  O          7.5640   16.4160    5.0260 O.2   305  HIS305     -0.2867
    113  CB        10.2420   15.2020    6.0440 C.3   305  HIS305      0.0745
    114  CG        10.2490   13.9540    6.8690 C.ar  305  HIS305      0.0817
    115  ND1        9.1420   13.1390    6.9940 N.ar  305  HIS305     -0.2268
    116  CD2       11.2070   13.4090    7.6530 C.ar  305  HIS305      0.1154
    117  CE1        9.4210   12.1380    7.8050 C.ar  305  HIS305      0.1986
    118  NE2       10.6680   12.2750    8.2200 N.ar  305  HIS305     -0.2212
    119  N          7.1880    8.1660    8.1160 N.3   324  GLU324     -0.1245
    120  CA         8.5530    7.6180    8.2180 C.3   324  GLU324      0.1567
    121  C          8.8710    6.5190    7.2110 C.2   324  GLU324      0.2260
    122  O          9.8850    6.5900    6.5340 O.2   324  GLU324     -0.2867
    123  CB         8.9000    7.1750    9.6440 C.3   324  GLU324      0.0388
    124  CG         8.8760    8.2990   10.6850 C.3   324  GLU324      0.1160
    125  CD         9.7020    9.4990   10.2850 C.2   324  GLU324      0.3649
    126  OE1       10.4820    9.3930    9.3110 O.co2 324  GLU324     -0.2457
    127  OE2        9.5710   10.5550   10.9440 O.co2 324  GLU324     -0.2457
    128  N         11.4010    7.2510    4.0880 N.3   328  VAL328     -0.1245
    129  CA        12.5290    6.3250    3.8520 C.3   328  VAL328      0.1561
    130  C         12.4560    5.7340    2.4380 C.2   328  VAL328      0.2260
    131  O         13.4770    5.6100    1.7720 O.2   328  VAL328     -0.2867
    132  CB        12.6230    5.1840    4.9220 C.3   328  VAL328      0.0252
    133  CG1       13.7130    4.1420    4.5430 C.3   328  VAL328      0.0019
    134  CG2       12.9130    5.7530    6.2980 C.3   328  VAL328      0.0019
    135  N         13.4470    8.4880    0.0900 N.3   331  GLU331     -0.1245
    136  CA        14.9100    8.5700    0.1800 C.3   331  GLU331      0.1567
    137  C         15.6260    7.4010   -0.5330 C.2   331  GLU331      0.2260
    138  O         16.6800    7.6010   -1.1430 O.2   331  GLU331     -0.2867
    139  CB        15.3770    8.7010    1.6360 C.3   331  GLU331      0.0388
    140  CG        16.8920    8.7880    1.7970 C.3   331  GLU331      0.1160
    141  CD        17.5690    7.4110    1.8020 C.2   331  GLU331      0.3649
    142  OE1       17.0750    6.5130    2.5090 O.co2 331  GLU331     -0.2457
    143  OE2       18.5850    7.2290    1.0960 O.co2 331  GLU331     -0.2457
    144  N          8.6310    7.9910   22.0090 N.3   377  GLU377     -0.1245
    145  CA        10.0430    7.9850   21.6400 C.3   377  GLU377      0.1567
    146  C         10.6160    6.5640   21.5350 C.2   377  GLU377      0.2260
    147  O         11.6790    6.3640   20.9430 O.2   377  GLU377     -0.2867
    148  CB        10.8620    8.8480   22.6140 C.3   377  GLU377      0.0388
    149  CG        11.0700   10.3020   22.1550 C.3   377  GLU377      0.1160
    150  CD        10.1920   11.3290   22.8820 C.2   377  GLU377      0.3649
    151  OE1        9.7680   11.0470   24.0270 O.co2 377  GLU377     -0.2457
    152  OE2        9.9500   12.4300   22.3110 O.co2 377  GLU377     -0.2457
    153  N         10.1930    4.8910   17.4110 N.3   380  TYR380     -0.1241
    154  CA        10.9560    5.3160   16.2440 C.3   380  TYR380      0.1605
    155  C         11.9250    4.1980   15.8590 C.2   380  TYR380      0.2264
    156  O         13.1420    4.3310   15.9650 O.2   380  TYR380     -0.2867
    157  CB        11.6480    6.6630   16.5210 C.3   380  TYR380      0.0534
    158  CG        10.6530    7.8090   16.5140 C.ar  380  TYR380     -0.0201
    159  CD1       10.5350    8.6530   15.4040 C.ar  380  TYR380     -0.0009
    160  CD2        9.8080    8.0230   17.6020 C.ar  380  TYR380     -0.0009
    161  CE1        9.6040    9.6990   15.3910 C.ar  380  TYR380      0.0417
    162  CE2        8.8640    9.0610   17.6010 C.ar  380  TYR380      0.0417
    163  CZ         8.7670    9.8900   16.4950 C.ar  380  TYR380      0.1957
    164  OH         7.8480   10.9140   16.5020 O.3   380  TYR380     -0.2866
    165  N         10.2050    2.4000   10.5260 N.3   385  TYR385     -0.1241
    166  CA        10.9790    3.0180    9.4550 C.3   385  TYR385      0.1605
    167  C         11.2550    2.0820    8.2760 C.2   385  TYR385      0.2264
    168  O         10.9190    2.3880    7.1290 O.2   385  TYR385     -0.2867
    169  CB        12.3160    3.5150    9.9970 C.3   385  TYR385      0.0534
    170  CG        12.2500    4.8750   10.6480 C.ar  385  TYR385     -0.0201
    171  CD1       12.8650    5.9770   10.0510 C.ar  385  TYR385     -0.0009
    172  CD2       11.5630    5.0690   11.8520 C.ar  385  TYR385     -0.0009
    173  CE1       12.8060    7.2370   10.6410 C.ar  385  TYR385      0.0417
    174  CE2       11.5050    6.3360   12.4600 C.ar  385  TYR385      0.0417
    175  CZ        12.1270    7.4120   11.8370 C.ar  385  TYR385      0.1957
    176  OH        12.0700    8.6630   12.4070 O.3   385  TYR385     -0.2866
    177  N         16.3310    8.5320   25.9970 N.3   839  MET839     -0.1245
    178  CA        16.2970    8.0970   24.6030 C.3   839  MET839      0.1570
    179  C         17.5630    7.3270   24.1980 C.2   839  MET839      0.2261
    180  O         17.4720    6.2380   23.6260 O.2   839  MET839     -0.2867
    181  CB        16.0460    9.2960   23.6840 C.3   839  MET839      0.0387
    182  CG        16.3790    9.0730   22.2240 C.3   839  MET839      0.0595
    183  SD        15.2440    9.9360   21.1260 S.3   839  MET839     -0.1393
    184  CE        14.1010    8.6100   20.7650 C.3   839  MET839      0.0692
@<TRIPOS>BOND
     1   138   137    2
     2   137   136    1
     3   135   136    1
     4   136   139    1
     5   143   141   ar
     6   139   140    1
     7   131   130    2
     8   140   141    1
     9   141   142   ar
    10    76    77    1
    11    82    80    1
    12   130   129    1
    13    77    80    1
    14    77    78    1
    15    90    91    1
    16    80    81    1
    17    79    78    2
    18    78    83   am
    19   109   110    1
    20    65    66    1
    21   129   128    1
    22   129   132    1
    23    91    92    1
    24    91    94    1
    25    93    92    2
    26    92   100   am
    27   111   110    1
    28   111   112    2
    29   133   132    1
    30    83    84    1
    31   102   103    2
    32   102   101    1
    33   110   113    1
    34    67    66    1
    35    67    68    2
    36   132   134    1
    37    66    69    1
    38   100   101    1
    39    94    95    1
    40    85    86    2
    41    85    84    1
    42   101   104    1
    43    84    87    1
    44    96    95   ar
    45    96    98   ar
    46    95    97   ar
    47   113   114    1
    48    69    70    1
    49   104   105    1
    50   122   121    2
    51    98    99   ar
    52   114   115   ar
    53   114   116   ar
    54    87    89    1
    55    87    88    1
    56   115   117   ar
    57    97    99   ar
    58   168   167    2
    59   121   120    1
    60   105   106    1
    61    70    71    1
    62   116   118   ar
    63   117   118   ar
    64    71    72    1
    65   119   120    1
    66   120   123    1
    67   167   166    1
    68   106   107   ar
    69   106   108   ar
    70    60    61    1
    71    60    57    1
    72    59    58    2
    73    72    73    2
    74    61    62    1
    75   126   125   ar
    76    74    73    1
    77    57    58    1
    78    57    56    1
    79   166   169    1
    80   166   165    1
    81   123   124    1
    82    73    75    1
    83   169   170    1
    84   171   173   ar
    85   171   170   ar
    86    62    64   ar
    87    62    63   ar
    88   125   124    1
    89   125   127   ar
    90    47    44    1
    91    56    50   am
    92   173   175   ar
    93   170   172   ar
    94    51    50    2
    95    50    49    1
    96   175   176    1
    97   175   174   ar
    98    44    45    1
    99    44    43    1
   100   172   174   ar
   101    48    49    1
   102    48    45   am
   103    42    41    2
   104    49    52    1
   105    45    46    2
   106    41    43   am
   107    41    40    1
   108    40    39    1
   109    55    54    1
   110    52    53    1
   111    39    34   am
   112    17    16   ar
   113    54    53    1
   114    18    16   ar
   115    16    15    1
   116    34    35    2
   117    34    33    1
   118   161   159   ar
   119   161   163   ar
   120   159   158   ar
   121    38    36    1
   122    36    33    1
   123    36    37    1
   124   155   156    2
   125   155   154    1
   126    33    32    1
   127    15    14    1
   128   154   157    1
   129   154   153    1
   130    14    11    1
   131   163   164    1
   132   163   162   ar
   133   158   157    1
   134   158   160   ar
   135     8     7    2
   136     9     7   am
   137    32    26   am
   138   162   160   ar
   139     7     6    1
   140    11    10    1
   141    11    12    1
   142    26    27    2
   143    26    25    1
   144    12    13    2
   145    12    19   am
   146     6     5    1
   147    24    25    1
   148     2     5    1
   149     2     3    1
   150     2     1    1
   151    20    23    1
   152    20    19    1
   153    20    21    1
   154    25    28    1
   155     3     4    2
   156    22    21    2
   157    28    29    1
   158   184   183    1
   159   147   146    2
   160   183   182    1
   161   146   145    1
   162   145   144    1
   163   145   148    1
   164    29    30    2
   165    29    31   am
   166   149   148    1
   167   149   150    1
   168   182   181    1
   169   152   150   ar
   170   150   151   ar
   171   180   179    2
   172   181   178    1
   173   179   178    1
   174   178   177    1
