@<TRIPOS>MOLECULE
tmp/3eblA00.pdb
 191 185 0 0 0
SMALL
GASTEIGER

@<TRIPOS>ATOM
      1  N         29.9940   52.7540   11.9080 N.3    10  ILE10      -0.1245
      2  CA        31.0680   51.8910   12.4240 C.3    10  ILE10       0.1561
      3  C         31.8800   52.5250   13.5450 C.2    10  ILE10       0.2260
      4  O         32.2250   51.8310   14.5090 O.2    10  ILE10      -0.2867
      5  CB        32.0070   51.2760   11.2740 C.3    10  ILE10       0.0252
      6  CG1       31.1410   50.7710   10.1060 C.3    10  ILE10       0.0019
      7  CG2       32.8740   50.1740   11.8580 C.3    10  ILE10       0.0019
      8  CD1       30.0610   49.6240   10.4790 C.3    10  ILE10       0.0001
      9  N         29.9650   51.8840   16.7870 N.3    13  PHE13      -0.1227
     10  CA        30.3200   50.5360   17.3020 C.3    13  PHE13       0.1736
     11  C         31.7330   50.5140   17.9150 C.2    13  PHE13       0.2595
     12  O         31.9350   49.9900   19.0040 O.2    13  PHE13      -0.2718
     13  CB        30.2760   49.5210   16.1580 C.3    13  PHE13       0.0547
     14  CG        28.8500   49.0510   15.7850 C.ar   13  PHE13      -0.0202
     15  CD1       28.1700   48.1510   16.5920 C.ar   13  PHE13      -0.0042
     16  CD2       28.2340   49.5090   14.6310 C.ar   13  PHE13      -0.0042
     17  CE1       26.8950   47.6650   16.2540 C.ar   13  PHE13      -0.0003
     18  CE2       26.9690   49.0580   14.2550 C.ar   13  PHE13      -0.0003
     19  CZ        26.2850   48.1160   15.0820 C.ar   13  PHE13      -0.0000
     20  N         32.7150   51.0230   17.1800 N.am   14  LYS14      -0.1980
     21  CA        34.1320   50.9540   17.6370 C.3    14  LYS14       0.1596
     22  C         34.3110   51.5440   19.0300 C.2    14  LYS14       0.2287
     23  O         34.9200   50.9210   19.9470 O.2    14  LYS14      -0.2864
     24  CB        35.0340   51.7240   16.6390 C.3    14  LYS14       0.0298
     25  CG        36.4790   51.9100   17.1170 C.3    14  LYS14       0.0038
     26  CD        37.2640   52.8580   16.1750 C.3    14  LYS14       0.0206
     27  CE        38.7360   52.8610   16.5150 C.3    14  LYS14       0.1093
     28  NZ        39.4460   53.8600   15.6230 N.3    14  LYS14      -0.1314
     29  N         32.3520   49.6220   21.7310 N.3    17  TYR17      -0.1241
     30  CA        32.9920   48.3330   22.0510 C.3    17  TYR17       0.1605
     31  C         34.2950   48.5210   22.8380 C.2    17  TYR17       0.2264
     32  O         34.7000   47.6460   23.6200 O.2    17  TYR17      -0.2867
     33  CB        33.2210   47.5100   20.7790 C.3    17  TYR17       0.0534
     34  CG        31.9910   46.9430   20.1330 C.ar   17  TYR17      -0.0201
     35  CD1       30.6910   47.1940   20.6540 C.ar   17  TYR17      -0.0009
     36  CD2       32.1010   46.1960   18.9690 C.ar   17  TYR17      -0.0009
     37  CE1       29.5340   46.6760   20.0280 C.ar   17  TYR17       0.0417
     38  CE2       30.9710   45.6710   18.3280 C.ar   17  TYR17       0.0417
     39  CZ        29.6780   45.9070   18.8910 C.ar   17  TYR17       0.1957
     40  OH        28.6020   45.3830   18.2600 O.3    17  TYR17      -0.2866
     41  N         35.1710   45.7690   26.3570 N.3    21  ARG21      -0.1245
     42  CA        36.2670   44.8080   26.5150 C.3    21  ARG21       0.1563
     43  C         37.0000   45.1590   27.7890 C.2    21  ARG21       0.2260
     44  O         37.4470   46.2900   27.9300 O.2    21  ARG21      -0.2867
     45  CB        37.2540   44.8420   25.3360 C.3    21  ARG21       0.0307
     46  CG        36.6320   44.4690   23.9800 C.3    21  ARG21       0.0489
     47  CD        37.6860   44.4620   22.8590 C.3    21  ARG21       0.2205
     48  NE        38.3260   45.7540   22.6490 N.pl3  21  ARG21      -0.0865
     49  CZ        37.8680   46.6780   21.8170 C.cat  21  ARG21       0.5346
     50  NH1       36.7990   46.4150   21.0680 N.pl3  21  ARG21       0.1354
     51  NH2       38.5130   47.8440   21.7080 N.pl3  21  ARG21       0.1354
     52  N         30.5610   40.2280   14.8190 N.3    92  GLY92      -0.1210
     53  CA        30.7650   40.6990   16.2090 C.3    92  GLY92       0.1956
     54  C         31.9400   39.9940   16.8660 C.2    92  GLY92       0.2612
     55  O         32.1100   40.0710   18.0850 O.2    92  GLY92      -0.2717
     56  N         32.7880   39.3300   16.0580 N.am   93  SER93      -0.1952
     57  CA        34.1010   38.8860   16.5600 C.3    93  SER93       0.1924
     58  C         34.0090   37.8270   17.6570 C.2    93  SER93       0.2314
     59  O         34.8870   37.7430   18.5300 O.2    93  SER93      -0.2863
     60  CB        34.9460   40.0810   17.0290 C.3    93  SER93       0.2116
     61  OG        35.2270   40.8960   15.8870 O.3    93  SER93      -0.2180
     62  N         30.1180   39.9190   20.2210 N.3    96  HIS96      -0.1226
     63  CA        29.0530   40.9210   20.1140 C.3    96  HIS96       0.1752
     64  C         27.9040   40.4920   19.2350 C.2    96  HIS96       0.2596
     65  O         27.9870   39.4730   18.5250 O.2    96  HIS96      -0.2718
     66  CB        29.6270   42.2080   19.5140 C.3    96  HIS96       0.0759
     67  CG        30.7760   42.7880   20.2710 C.ar   96  HIS96       0.0818
     68  ND1       30.6090   43.6960   21.3020 N.ar   96  HIS96      -0.2268
     69  CD2       32.1150   42.6900   20.0650 C.ar   96  HIS96       0.1154
     70  CE1       31.7950   44.0800   21.7390 C.ar   96  HIS96       0.1986
     71  NE2       32.7270   43.4970   20.9940 N.ar   96  HIS96      -0.2212
     72  N         26.8160   41.2640   19.2870 N.am   97  SER97      -0.1952
     73  CA        25.6520   41.1670   18.3880 C.3    97  SER97       0.1924
     74  C         24.8270   39.9210   18.6010 C.2    97  SER97       0.2314
     75  O         25.2070   39.0750   19.3880 O.2    97  SER97      -0.2863
     76  CB        26.0230   41.3540   16.8910 C.3    97  SER97       0.2116
     77  OG        26.3640   42.7170   16.6510 O.3    97  SER97      -0.2180
     78  N         21.2840   45.7270   12.5790 N.3   103  ILE103     -0.1231
     79  CA        22.1490   45.6420   11.3760 C.3   103  ILE103      0.1692
     80  C         22.0540   44.2640   10.6820 C.2   103  ILE103      0.2592
     81  O         22.1540   44.1740    9.4450 O.2   103  ILE103     -0.2718
     82  CB        23.6280   45.9780   11.6350 C.3   103  ILE103      0.0266
     83  CG1       24.2460   45.1440   12.7920 C.3   103  ILE103      0.0019
     84  CG2       23.8090   47.4890   11.8890 C.3   103  ILE103      0.0020
     85  CD1       25.7860   45.2690   12.8950 C.3   103  ILE103      0.0001
     86  N         21.8430   43.2240   11.4870 N.am  104  TYR104     -0.1976
     87  CA        21.7630   41.8330   10.9620 C.3   104  TYR104      0.1639
     88  C         20.3480   41.4280   10.5640 C.2   104  TYR104      0.2290
     89  O         20.1490   40.7280    9.5410 O.2   104  TYR104     -0.2864
     90  CB        22.4500   40.8260   11.9160 C.3   104  TYR104      0.0560
     91  CG        23.9430   41.0450   11.9250 C.ar  104  TYR104     -0.0198
     92  CD1       24.6820   40.9540   10.7370 C.ar  104  TYR104     -0.0009
     93  CD2       24.6070   41.3870   13.1050 C.ar  104  TYR104     -0.0009
     94  CE1       26.0490   41.1980   10.7260 C.ar  104  TYR104      0.0417
     95  CE2       25.9470   41.6170   13.1190 C.ar  104  TYR104      0.0417
     96  CZ        26.6690   41.5220   11.9070 C.ar  104  TYR104      0.1957
     97  OH        27.9940   41.7660   11.9580 O.3   104  TYR104     -0.2866
     98  N         29.2880   36.9860    8.2870 N.3   167  ASP167     -0.1225
     99  CA        30.3570   37.9680    8.2630 C.3   167  ASP167      0.1805
    100  C         31.2690   37.8740    9.4960 C.2   167  ASP167      0.2598
    101  O         30.8540   37.3980   10.5320 O.2   167  ASP167     -0.2718
    102  CB        29.7990   39.4000    8.1010 C.3   167  ASP167      0.1424
    103  CG        28.9820   39.8500    9.2880 C.2   167  ASP167      0.3668
    104  OD1       28.2060   39.0420    9.8410 O.co2 167  ASP167     -0.2456
    105  OD2       29.0650   41.0530    9.6390 O.co2 167  ASP167     -0.2456
    106  N         32.5240   38.3240    9.3840 N.am  168  SER168     -0.1952
    107  CA        33.4240   38.4100   10.5500 C.3   168  SER168      0.1924
    108  C         33.4610   37.0090   11.1990 C.2   168  SER168      0.2314
    109  O         33.5370   35.9820   10.4560 O.2   168  SER168     -0.2863
    110  CB        32.9460   39.5660   11.5130 C.3   168  SER168      0.2116
    111  OG        33.5920   39.5680   12.7920 O.3   168  SER168     -0.2180
    112  N         38.9360   51.5320   11.5910 N.3   215  PHE215     -0.1227
    113  CA        38.0610   51.0830   12.6940 C.3   215  PHE215      0.1736
    114  C         38.6190   49.9270   13.4980 C.2   215  PHE215      0.2595
    115  O         38.2890   49.7740   14.6660 O.2   215  PHE215     -0.2718
    116  CB        36.6410   50.7040   12.2030 C.3   215  PHE215      0.0547
    117  CG        36.0500   51.7000   11.2330 C.ar  215  PHE215     -0.0202
    118  CD1       35.7730   51.3280    9.9200 C.ar  215  PHE215     -0.0042
    119  CD2       35.7990   53.0180   11.6360 C.ar  215  PHE215     -0.0042
    120  CE1       35.2280   52.2370    8.9970 C.ar  215  PHE215     -0.0003
    121  CE2       35.2560   53.9180   10.7490 C.ar  215  PHE215     -0.0003
    122  CZ        34.9620   53.5400    9.4230 C.ar  215  PHE215     -0.0000
    123  N         39.4330   49.0940   12.8680 N.am  216  VAL216     -0.1980
    124  CA        39.8840   47.8580   13.5170 C.3   216  VAL216      0.1595
    125  C         41.3440   47.9700   13.9580 C.2   216  VAL216      0.2287
    126  O         42.1930   48.5190   13.2310 O.2   216  VAL216     -0.2864
    127  CB        39.7040   46.6440   12.5870 C.3   216  VAL216      0.0276
    128  CG1       39.9760   45.3380   13.3450 C.3   216  VAL216      0.0022
    129  CG2       38.2770   46.6270   11.9980 C.3   216  VAL216      0.0022
    130  N         42.6020   44.9060   19.4360 N.3   220  ASP220     -0.1225
    131  CA        41.2630   44.3260   19.6110 C.3   220  ASP220      0.1805
    132  C         41.1330   42.9540   18.9270 C.2   220  ASP220      0.2597
    133  O         40.5170   42.0520   19.4750 O.2   220  ASP220     -0.2718
    134  CB        40.1170   45.3540   19.2540 C.3   220  ASP220      0.1424
    135  CG        39.8760   45.5370   17.7410 C.2   220  ASP220      0.3668
    136  OD1       40.0720   46.6690   17.1970 O.co2 220  ASP220     -0.2456
    137  OD2       39.4390   44.5550   17.0890 O.co2 220  ASP220     -0.2456
    138  N         41.7120   42.7750   17.7430 N.am  221  ARG221     -0.1979
    139  CA        41.7130   41.4370   17.1000 C.3   221  ARG221      0.1597
    140  C         42.3270   40.4080   18.0400 C.2   221  ARG221      0.2287
    141  O         41.7840   39.3210   18.2480 O.2   221  ARG221     -0.2864
    142  CB        42.5210   41.4370   15.7630 C.3   221  ARG221      0.0334
    143  CG        41.9830   42.3060   14.6130 C.3   221  ARG221      0.0492
    144  CD        40.5810   41.8850   14.1610 C.3   221  ARG221      0.2205
    145  NE        39.5420   42.4940   15.0140 N.pl3 221  ARG221     -0.0865
    146  CZ        38.2740   42.0860   15.0710 C.cat 221  ARG221      0.5346
    147  NH1       37.8500   41.0510   14.3340 N.pl3 221  ARG221      0.1354
    148  NH2       37.4140   42.7200   15.8730 N.pl3 221  ARG221      0.1354
    149  N         39.7870   39.5700   20.8980 N.3   224  TYR224     -0.1241
    150  CA        38.6770   38.6820   20.5220 C.3   224  TYR224      0.1605
    151  C         39.1220   37.2150   20.3340 C.2   224  TYR224      0.2264
    152  O         38.4190   36.2710   20.7430 O.2   224  TYR224     -0.2867
    153  CB        37.9800   39.2050   19.2390 C.3   224  TYR224      0.0534
    154  CG        37.2380   40.4900   19.5540 C.ar  224  TYR224     -0.0201
    155  CD1       37.6490   41.6910   19.0490 C.ar  224  TYR224     -0.0009
    156  CD2       36.1260   40.4690   20.4110 C.ar  224  TYR224     -0.0009
    157  CE1       36.9830   42.8990   19.3840 C.ar  224  TYR224      0.0417
    158  CE2       35.4410   41.6720   20.7630 C.ar  224  TYR224      0.0417
    159  CZ        35.8900   42.8670   20.2510 C.ar  224  TYR224      0.1957
    160  OH        35.2470   44.0570   20.5830 O.3   224  TYR224     -0.2866
    161  N         35.4390   47.2550    6.7790 N.3   296  VAL296     -0.1231
    162  CA        34.5330   46.3400    7.4340 C.3   296  VAL296      0.1692
    163  C         33.1260   46.9610    7.4190 C.2   296  VAL296      0.2592
    164  O         32.9820   48.1960    7.3020 O.2   296  VAL296     -0.2718
    165  CB        35.0110   46.0200    8.9000 C.3   296  VAL296      0.0266
    166  CG1       36.4050   45.3290    8.8470 C.3   296  VAL296      0.0020
    167  CG2       35.0180   47.2990    9.8250 C.3   296  VAL296      0.0020
    168  N         32.1090   46.1030    7.4610 N.am  297  GLY297     -0.1957
    169  CA        30.7180   46.5240    7.4880 C.3   297  GLY297      0.1869
    170  C         30.0640   47.1660    6.2870 C.2   297  GLY297      0.2309
    171  O         28.9100   47.5840    6.3720 O.2   297  GLY297     -0.2863
    172  N         28.7350   46.0750    3.7290 N.3   299  TYR299     -0.1227
    173  CA        27.5290   45.3730    3.2850 C.3   299  TYR299      0.1736
    174  C         26.3160   45.7360    4.1730 C.2   299  TYR299      0.2595
    175  O         25.2110   45.2130    3.9600 O.2   299  TYR299     -0.2718
    176  CB        27.7680   43.8240    3.2310 C.3   299  TYR299      0.0548
    177  CG        28.4650   43.3560    4.5150 C.ar  299  TYR299     -0.0200
    178  CD1       27.7260   43.1150    5.6810 C.ar  299  TYR299     -0.0009
    179  CD2       29.8440   43.2380    4.5820 C.ar  299  TYR299     -0.0009
    180  CE1       28.3480   42.7860    6.8620 C.ar  299  TYR299      0.0417
    181  CE2       30.4990   42.9150    5.7750 C.ar  299  TYR299      0.0417
    182  CZ        29.7490   42.6900    6.8960 C.ar  299  TYR299      0.1957
    183  OH        30.4010   42.4470    8.0570 O.3   299  TYR299     -0.2866
    184  N         26.5200   46.5950    5.1720 N.am  300  LEU300     -0.1980
    185  CA        25.4580   46.9660    6.1140 C.3   300  LEU300      0.1596
    186  C         24.6500   48.2230    5.7270 C.2   300  LEU300      0.2287
    187  O         23.5700   48.4450    6.2740 O.2   300  LEU300     -0.2864
    188  CB        26.0650   47.1660    7.5210 C.3   300  LEU300      0.0297
    189  CG        26.6520   45.8830    8.1530 C.3   300  LEU300      0.0022
    190  CD1       27.3180   46.2040    9.5320 C.3   300  LEU300      0.0001
    191  CD2       25.5880   44.8630    8.3510 C.3   300  LEU300      0.0001
@<TRIPOS>BOND
     1   176   173    1
     2   176   177    1
     3   173   172    1
     4   173   174    1
     5   175   174    2
     6   174   184   am
     7   177   179   ar
     8   177   178   ar
     9   179   181   ar
    10   184   185    1
    11   178   180   ar
    12   186   185    1
    13   186   187    2
    14   181   182   ar
    15   185   188    1
    16   170   171    2
    17   170   169    1
    18   161   162    1
    19   180   182   ar
    20   182   183    1
    21   164   163    2
    22   163   162    1
    23   163   168   am
    24   162   165    1
    25   168   169    1
    26   188   189    1
    27   102    99    1
    28   102   103    1
    29   189   191    1
    30   189   190    1
    31    99    98    1
    32    99   100    1
    33   166   165    1
    34   165   167    1
    35   120   122   ar
    36   120   118   ar
    37   103   105   ar
    38   103   104   ar
    39   106   100   am
    40   106   107    1
    41   122   121   ar
    42    81    80    2
    43   100   101    2
    44    89    88    2
    45   118   117   ar
    46     6     8    1
    47     6     5    1
    48   109   108    2
    49   107   108    1
    50   107   110    1
    51    88    87    1
    52    80    79    1
    53    80    86   am
    54    94    92   ar
    55    94    96   ar
    56    92    91   ar
    57   121   119   ar
    58    87    86    1
    59    87    90    1
    60   117   119   ar
    61   117   116    1
    62     5     7    1
    63     5     2    1
    64    79    82    1
    65    79    78    1
    66   110   111    1
    67   112   113    1
    68    82    84    1
    69    82    83    1
    70    96    97    1
    71    96    95   ar
    72     1     2    1
    73    90    91    1
    74    91    93   ar
    75   129   127    1
    76   116   113    1
    77     2     3    1
    78   127   128    1
    79   127   124    1
    80   113   114    1
    81    83    85    1
    82   123   114   am
    83   123   124    1
    84    93    95   ar
    85   126   125    2
    86   114   115    2
    87   124   125    1
    88     3     4    2
    89   144   143    1
    90   144   145    1
    91    18    16   ar
    92    18    19   ar
    93   147   146    1
    94   143   142    1
    95    16    14   ar
    96    52    53    1
    97   145   146    2
    98   146   148    1
    99    19    17   ar
   100    28    27    1
   101   142   139    1
   102    14    13    1
   103    14    15   ar
   104    61    60    1
   105    56    57    1
   106    56    54   am
   107    13    10    1
   108    26    27    1
   109    26    25    1
   110    53    54    1
   111    17    15   ar
   112    57    60    1
   113    57    58    1
   114    24    25    1
   115    24    21    1
   116    77    76    1
   117     9    10    1
   118    54    55    2
   119    76    73    1
   120   137   135   ar
   121   139   138    1
   122   139   140    1
   123    20    21    1
   124    20    11   am
   125   136   135   ar
   126    10    11    1
   127    21    22    1
   128    58    59    2
   129   135   134    1
   130   138   132   am
   131    11    12    2
   132   140   141    2
   133    40    39    1
   134    38    39   ar
   135    38    36   ar
   136    73    74    1
   137    73    72    1
   138    65    64    2
   139    74    75    2
   140    39    37   ar
   141   132   133    2
   142   132   131    1
   143    36    34   ar
   144    22    23    2
   145   155   157   ar
   146   155   154   ar
   147    64    72   am
   148    64    63    1
   149   153   154    1
   150   153   150    1
   151   134   131    1
   152   157   159   ar
   153   130   131    1
   154    66    63    1
   155    66    67    1
   156   154   156   ar
   157    37    35   ar
   158    69    67   ar
   159    69    71   ar
   160    63    62    1
   161    34    35   ar
   162    34    33    1
   163   159   160    1
   164   159   158   ar
   165    67    68   ar
   166   151   150    1
   167   151   152    2
   168   156   158   ar
   169   150   149    1
   170    33    30    1
   171    71    70   ar
   172    50    49    1
   173    68    70   ar
   174    51    49    1
   175    29    30    1
   176    49    48    2
   177    30    31    1
   178    48    47    1
   179    31    32    2
   180    47    46    1
   181    46    45    1
   182    45    42    1
   183    41    42    1
   184    42    43    1
   185    43    44    2
