@<TRIPOS>MOLECULE
tmp/3eboA00.pdb
 136 135 0 0 0
SMALL
GASTEIGER

@<TRIPOS>ATOM
      1  N         33.9150   30.9870   36.8140 N.3   265  ASN265     -0.1225
      2  CA        34.6230   31.1020   35.5430 C.3   265  ASN265      0.1785
      3  C         34.3900   29.9170   34.6180 C.2   265  ASN265      0.2597
      4  O         34.5380   28.7630   35.0200 O.2   265  ASN265     -0.2718
      5  CB        36.1270   31.2580   35.7890 C.3   265  ASN265      0.1169
      6  CG        36.4500   32.4530   36.6610 C.2   265  ASN265      0.2627
      7  OD1       35.8450   33.5220   36.5250 O.2   265  ASN265     -0.2716
      8  ND2       37.4060   32.2780   37.5650 N.am  265  ASN265     -0.0877
      9  N         34.0380   30.2170   33.3740 N.am  266  ASP266     -0.1960
     10  CA        33.8010   29.1920   32.3690 C.3   266  ASP266      0.1840
     11  C         34.9490   29.2560   31.3780 C.2   266  ASP266      0.2622
     12  O         35.1870   30.3030   30.7670 O.2   266  ASP266     -0.2715
     13  CB        32.4610   29.4440   31.6660 C.3   266  ASP266      0.1450
     14  CG        32.1200   28.3700   30.6450 C.2   266  ASP266      0.3671
     15  OD1       31.5620   27.3210   31.0380 O.co2 266  ASP266     -0.2456
     16  OD2       32.3960   28.5840   29.4440 O.co2 266  ASP266     -0.2456
     17  N         35.6680   28.1450   31.2300 N.am  267  ASN267     -0.1958
     18  CA        36.8290   28.0780   30.3270 C.3   267  ASN267      0.1819
     19  C         37.8250   29.2230   30.5520 C.2   267  ASN267      0.2621
     20  O         38.2450   29.8960   29.6060 O.2   267  ASN267     -0.2715
     21  CB        36.3810   28.0350   28.8570 C.3   267  ASN267      0.1195
     22  CG        36.1760   26.6210   28.3480 C.2   267  ASN267      0.2630
     23  OD1       36.4410   25.6440   29.0550 O.2   267  ASN267     -0.2716
     24  ND2       35.7150   26.5020   27.1130 N.am  267  ASN267     -0.0877
     25  N         38.1810   29.4430   31.8150 N.am  268  PHE268     -0.1974
     26  CA        39.1360   30.4810   32.1820 C.3   268  PHE268      0.1639
     27  C         39.8180   30.1120   33.4850 C.2   268  PHE268      0.2290
     28  O         39.1570   29.7510   34.4640 O.2   268  PHE268     -0.2864
     29  CB        38.4350   31.8360   32.3140 C.3   268  PHE268      0.0560
     30  CG        39.3690   32.9930   32.5670 C.ar  268  PHE268     -0.0200
     31  CD1       40.2110   33.4640   31.5610 C.ar  268  PHE268     -0.0042
     32  CD2       39.3810   33.6320   33.8010 C.ar  268  PHE268     -0.0042
     33  CE1       41.0660   34.5400   31.7890 C.ar  268  PHE268     -0.0003
     34  CE2       40.2300   34.7120   34.0410 C.ar  268  PHE268     -0.0003
     35  CZ        41.0760   35.1660   33.0350 C.ar  268  PHE268     -0.0000
     36  N         41.9160   26.3440   24.2750 N.3   354  LEU354     -0.1245
     37  CA        42.0990   27.7800   24.5030 C.3   354  LEU354      0.1561
     38  C         43.0970   28.0570   25.6310 C.2   354  LEU354      0.2260
     39  O         42.9080   27.5770   26.7520 O.2   354  LEU354     -0.2867
     40  CB        40.7620   28.4670   24.7920 C.3   354  LEU354      0.0270
     41  CG        39.7080   28.4420   23.6760 C.3   354  LEU354      0.0019
     42  CD1       38.3750   28.9180   24.2220 C.3   354  LEU354      0.0001
     43  CD2       40.1280   29.2640   22.4510 C.3   354  LEU354      0.0001
     44  N         43.8580   30.5290   27.6720 N.3   356  GLU356     -0.1245
     45  CA        43.4660   31.1450   28.9450 C.3   356  GLU356      0.1567
     46  C         42.7310   30.2220   29.9190 C.2   356  GLU356      0.2260
     47  O         42.5420   30.5760   31.0840 O.2   356  GLU356     -0.2867
     48  CB        42.6910   32.4570   28.7520 C.3   356  GLU356      0.0388
     49  CG        41.7500   32.4930   27.5820 C.3   356  GLU356      0.1160
     50  CD        42.4470   32.8230   26.2800 C.2   356  GLU356      0.3649
     51  OE1       42.9170   33.9660   26.1130 O.co2 356  GLU356     -0.2457
     52  OE2       42.5150   31.9340   25.4170 O.co2 356  GLU356     -0.2457
     53  N         30.6940   34.5390   25.8620 N.3   545  HIS545     -0.1226
     54  CA        32.1140   34.4090   25.5250 C.3   545  HIS545      0.1752
     55  C         32.4150   35.1380   24.2310 C.2   545  HIS545      0.2596
     56  O         31.5510   35.2440   23.3600 O.2   545  HIS545     -0.2718
     57  CB        32.4800   32.9370   25.3130 C.3   545  HIS545      0.0759
     58  CG        32.9720   32.2400   26.5410 C.ar  545  HIS545      0.0818
     59  ND1       34.2530   32.4010   27.0230 N.ar  545  HIS545     -0.2268
     60  CD2       32.3690   31.3430   27.3580 C.ar  545  HIS545      0.1154
     61  CE1       34.4110   31.6510   28.1000 C.ar  545  HIS545      0.1986
     62  NE2       33.2830   30.9990   28.3250 N.ar  545  HIS545     -0.2212
     63  N         33.6460   35.6210   24.0900 N.am  546  GLU546     -0.1965
     64  CA        34.1120   36.1020   22.7920 C.3   546  GLU546      0.1733
     65  C         34.1890   34.9550   21.7850 C.2   546  GLU546      0.2616
     66  O         33.7770   35.1150   20.6340 O.2   546  GLU546     -0.2715
     67  CB        35.4640   36.8100   22.9180 C.3   546  GLU546      0.0429
     68  CG        35.3490   38.2130   23.4860 C.3   546  GLU546      0.1163
     69  CD        36.6910   38.7790   23.9190 C.2   546  GLU546      0.3649
     70  OE1       37.2720   39.5650   23.1470 O.co2 546  GLU546     -0.2457
     71  OE2       37.1590   38.4330   25.0230 O.co2 546  GLU546     -0.2457
     72  N         34.6830   33.7930   22.2170 N.am  547  TYR547     -0.1974
     73  CA        34.8500   32.6730   21.2830 C.3   547  TYR547      0.1639
     74  C         33.5390   32.0920   20.7650 C.2   547  TYR547      0.2290
     75  O         33.4940   31.6100   19.6330 O.2   547  TYR547     -0.2864
     76  CB        35.8010   31.5960   21.8220 C.3   547  TYR547      0.0560
     77  CG        35.1990   30.4670   22.6280 C.ar  547  TYR547     -0.0198
     78  CD1       34.6960   29.3240   21.9970 C.ar  547  TYR547     -0.0009
     79  CD2       35.1930   30.5060   24.0220 C.ar  547  TYR547     -0.0009
     80  CE1       34.1720   28.2680   22.7360 C.ar  547  TYR547      0.0417
     81  CE2       34.6720   29.4530   24.7690 C.ar  547  TYR547      0.0417
     82  CZ        34.1650   28.3390   24.1220 C.ar  547  TYR547      0.1957
     83  OH        33.6460   27.2920   24.8640 O.3   547  TYR547     -0.2866
     84  N         31.1360   35.6270   33.3620 N.3   584  ALA584     -0.1245
     85  CA        31.9740   35.6160   34.5560 C.3   584  ALA584      0.1562
     86  C         32.0340   37.0530   35.0830 C.2   584  ALA584      0.2260
     87  O         32.1720   37.9870   34.2900 O.2   584  ALA584     -0.2867
     88  CB        33.3640   35.0870   34.2340 C.3   584  ALA584      0.0290
     89  N         34.1470   38.9790   36.4440 N.3   586  GLY586     -0.1210
     90  CA        35.3100   39.7980   36.0970 C.3   586  GLY586      0.1956
     91  C         35.5940   39.9490   34.6130 C.2   586  GLY586      0.2612
     92  O         36.5760   40.5870   34.2320 O.2   586  GLY586     -0.2717
     93  N         34.7340   39.3730   33.7740 N.am  587  TYR587     -0.1962
     94  CA        34.9500   39.3350   32.3300 C.3   587  TYR587      0.1771
     95  C         34.3060   40.5610   31.6940 C.2   587  TYR587      0.2619
     96  O         33.1180   40.5390   31.3290 O.2   587  TYR587     -0.2715
     97  CB        34.3490   38.0460   31.7510 C.3   587  TYR587      0.0574
     98  CG        34.7430   37.6940   30.3260 C.ar  587  TYR587     -0.0198
     99  CD1       34.3590   36.4680   29.7760 C.ar  587  TYR587     -0.0009
    100  CD2       35.4990   38.5640   29.5320 C.ar  587  TYR587     -0.0009
    101  CE1       34.6950   36.1240   28.4760 C.ar  587  TYR587      0.0417
    102  CE2       35.8520   38.2250   28.2250 C.ar  587  TYR587      0.0417
    103  CZ        35.4450   37.0010   27.7060 C.ar  587  TYR587      0.1957
    104  OH        35.7800   36.6480   26.4230 O.3   587  TYR587     -0.2866
    105  N         35.0930   41.6270   31.5590 N.am  588  HIS588     -0.1973
    106  CA        34.5760   42.9170   31.0970 C.3   588  HIS588      0.1656
    107  C         33.8880   42.8670   29.7310 C.2   588  HIS588      0.2291
    108  O         32.7690   43.3640   29.5820 O.2   588  HIS588     -0.2864
    109  CB        35.6760   43.9880   31.0920 C.3   588  HIS588      0.0771
    110  CG        35.1920   45.3320   30.6440 C.ar  588  HIS588      0.0820
    111  ND1       35.5210   45.8710   29.4190 N.ar  588  HIS588     -0.2267
    112  CD2       34.3780   46.2320   31.2450 C.ar  588  HIS588      0.1154
    113  CE1       34.9400   47.0510   29.2890 C.ar  588  HIS588      0.1986
    114  NE2       34.2430   47.2950   30.3850 N.ar  588  HIS588     -0.2212
    115  N         40.4580   38.2570   18.0860 N.3   743  ARG743     -0.1231
    116  CA        41.0540   36.9260   17.9790 C.3   743  ARG743      0.1694
    117  C         40.1170   35.9000   17.3410 C.2   743  ARG743      0.2592
    118  O         40.5590   34.8250   16.9220 O.2   743  ARG743     -0.2718
    119  CB        41.4730   36.4190   19.3600 C.3   743  ARG743      0.0321
    120  CG        42.6620   37.1440   19.9790 C.3   743  ARG743      0.0489
    121  CD        42.7870   36.8110   21.4650 C.3   743  ARG743      0.2205
    122  NE        42.9370   35.3720   21.6920 N.pl3 743  ARG743     -0.0865
    123  CZ        42.5640   34.7390   22.8020 C.cat 743  ARG743      0.5346
    124  NH1       42.0030   35.4110   23.8030 N.pl3 743  ARG743      0.1354
    125  NH2       42.7440   33.4270   22.9070 N.pl3 743  ARG743      0.1354
    126  N         38.8310   36.2290   17.2620 N.am  744  PHE744     -0.1976
    127  CA        37.8330   35.2480   16.8270 C.3   744  PHE744      0.1639
    128  C         37.1330   35.5610   15.4950 C.2   744  PHE744      0.2290
    129  O         36.1670   34.8900   15.1100 O.2   744  PHE744     -0.2864
    130  CB        36.8660   34.9540   17.9810 C.3   744  PHE744      0.0560
    131  CG        37.5740   34.5310   19.2360 C.ar  744  PHE744     -0.0200
    132  CD1       38.0900   33.2420   19.3570 C.ar  744  PHE744     -0.0042
    133  CD2       37.7900   35.4380   20.2660 C.ar  744  PHE744     -0.0042
    134  CE1       38.7800   32.8540   20.5070 C.ar  744  PHE744     -0.0003
    135  CE2       38.4700   35.0610   21.4160 C.ar  744  PHE744     -0.0003
    136  CZ        38.9690   33.7650   21.5370 C.ar  744  PHE744     -0.0000
@<TRIPOS>BOND
     1   129   128    2
     2   128   127    1
     3   127   126    1
     4   127   130    1
     5   118   117    2
     6   126   117   am
     7   117   116    1
     8   116   115    1
     9   116   119    1
    10   130   131    1
    11   131   132   ar
    12   131   133   ar
    13   132   134   ar
    14   119   120    1
    15    75    74    2
    16   120   121    1
    17   133   135   ar
    18   134   136   ar
    19    66    65    2
    20    74    73    1
    21    73    76    1
    22    73    72    1
    23   135   136   ar
    24   121   122    1
    25   122   123    2
    26    65    72   am
    27    65    64    1
    28    76    77    1
    29    78    77   ar
    30    78    80   ar
    31    43    41    1
    32    77    79   ar
    33    80    82   ar
    34    64    67    1
    35    64    63    1
    36   123   125    1
    37   123   124    1
    38    67    68    1
    39    70    69   ar
    40    56    55    2
    41    68    69    1
    42    41    42    1
    43    41    40    1
    44    69    71   ar
    45    79    81   ar
    46    63    55   am
    47    82    81   ar
    48    82    83    1
    49    55    54    1
    50    36    37    1
    51    37    40    1
    52    37    38    1
    53    57    54    1
    54    57    58    1
    55    52    50   ar
    56    54    53    1
    57    38    39    2
    58    51    50   ar
    59    50    49    1
    60   104   103    1
    61    58    59   ar
    62    58    60   ar
    63    59    61   ar
    64    24    22   am
    65    60    62   ar
    66    49    48    1
    67    44    45    1
    68   103   102   ar
    69   103   101   ar
    70    61    62   ar
    71   102   100   ar
    72    22    21    1
    73    22    23    2
    74   101    99   ar
    75    48    45    1
    76    21    18    1
    77    45    46    1
    78   113   111   ar
    79   113   114   ar
    80   111   110   ar
    81    16    14   ar
    82   100    98   ar
    83   108   107    2
    84    20    19    2
    85   107   106    1
    86    99    98   ar
    87    46    47    2
    88    98    97    1
    89    18    19    1
    90    18    17    1
    91   114   112   ar
    92    19    25   am
    93   110   109    1
    94   110   112   ar
    95    14    15   ar
    96    14    13    1
    97    12    11    2
    98   109   106    1
    99   106   105    1
   100    17    11   am
   101    96    95    2
   102    11    10    1
   103   105    95   am
   104    31    33   ar
   105    31    30   ar
   106    13    10    1
   107    95    94    1
   108    97    94    1
   109    33    35   ar
   110    25    26    1
   111    26    29    1
   112    26    27    1
   113    29    30    1
   114    94    93    1
   115    10     9    1
   116    30    32   ar
   117    35    34   ar
   118    84    85    1
   119     9     3   am
   120    27    28    2
   121    93    91   am
   122    32    34   ar
   123    92    91    2
   124    88    85    1
   125    87    86    2
   126    85    86    1
   127    91    90    1
   128     3     4    2
   129     3     2    1
   130     2     5    1
   131     2     1    1
   132     5     6    1
   133    90    89    1
   134     7     6    2
   135     6     8   am
