@<TRIPOS>MOLECULE
tmp/3ebpA00.pdb
 144 143 0 0 0
SMALL
GASTEIGER

@<TRIPOS>ATOM
      1  N         33.8610   30.8390   36.7920 N.3   265  ASN265     -0.1225
      2  CA        34.5950   30.9870   35.5390 C.3   265  ASN265      0.1785
      3  C         34.3430   29.8210   34.5960 C.2   265  ASN265      0.2597
      4  O         34.4960   28.6560   34.9740 O.2   265  ASN265     -0.2718
      5  CB        36.0950   31.1120   35.8110 C.3   265  ASN265      0.1169
      6  CG        36.4370   32.3190   36.6700 C.2   265  ASN265      0.2627
      7  OD1       35.8410   33.3940   36.5280 O.2   265  ASN265     -0.2716
      8  ND2       37.4080   32.1500   37.5600 N.am  265  ASN265     -0.0877
      9  N         33.9520   30.1400   33.3700 N.am  266  ASP266     -0.1960
     10  CA        33.7220   29.1180   32.3600 C.3   266  ASP266      0.1840
     11  C         34.8900   29.1460   31.3850 C.2   266  ASP266      0.2622
     12  O         35.1520   30.1780   30.7640 O.2   266  ASP266     -0.2715
     13  CB        32.4030   29.3830   31.6340 C.3   266  ASP266      0.1450
     14  CG        32.0900   28.3330   30.5860 C.2   266  ASP266      0.3671
     15  OD1       31.5390   27.2670   30.9430 O.co2 266  ASP266     -0.2456
     16  OD2       32.3870   28.5840   29.3990 O.co2 266  ASP266     -0.2456
     17  N         35.5900   28.0150   31.2680 N.am  267  ASN267     -0.1958
     18  CA        36.7650   27.8920   30.3960 C.3   267  ASN267      0.1819
     19  C         37.7780   29.0220   30.6000 C.2   267  ASN267      0.2621
     20  O         38.2540   29.6230   29.6380 O.2   267  ASN267     -0.2715
     21  CB        36.3610   27.7960   28.9120 C.3   267  ASN267      0.1195
     22  CG        35.9950   26.3850   28.4930 C.2   267  ASN267      0.2630
     23  OD1       36.5770   25.4040   28.9660 O.2   267  ASN267     -0.2716
     24  ND2       35.0310   26.2730   27.5990 N.am  267  ASN267     -0.0877
     25  N         38.0900   29.3070   31.8620 N.am  268  PHE268     -0.1974
     26  CA        39.0560   30.3470   32.2010 C.3   268  PHE268      0.1639
     27  C         39.7560   29.9980   33.5040 C.2   268  PHE268      0.2290
     28  O         39.1060   29.6520   34.4960 O.2   268  PHE268     -0.2864
     29  CB        38.3780   31.7170   32.3040 C.3   268  PHE268      0.0560
     30  CG        39.3200   32.8450   32.6560 C.ar  268  PHE268     -0.0200
     31  CD1       40.2740   33.2890   31.7430 C.ar  268  PHE268     -0.0042
     32  CD2       39.2430   33.4680   33.8970 C.ar  268  PHE268     -0.0042
     33  CE1       41.1450   34.3320   32.0640 C.ar  268  PHE268     -0.0003
     34  CE2       40.1090   34.5150   34.2320 C.ar  268  PHE268     -0.0003
     35  CZ        41.0620   34.9470   33.3130 C.ar  268  PHE268     -0.0000
     36  N         41.8560   26.3510   24.3020 N.3   354  LEU354     -0.1245
     37  CA        42.0600   27.7790   24.5480 C.3   354  LEU354      0.1561
     38  C         43.0930   27.9900   25.6540 C.2   354  LEU354      0.2260
     39  O         42.9370   27.4470   26.7480 O.2   354  LEU354     -0.2867
     40  CB        40.7470   28.4780   24.9090 C.3   354  LEU354      0.0270
     41  CG        39.6270   28.4540   23.8610 C.3   354  LEU354      0.0019
     42  CD1       38.3240   28.9100   24.4910 C.3   354  LEU354      0.0001
     43  CD2       39.9670   29.2920   22.6280 C.3   354  LEU354      0.0001
     44  N         43.9100   30.4740   27.6710 N.3   356  GLU356     -0.1245
     45  CA        43.5110   31.0950   28.9400 C.3   356  GLU356      0.1567
     46  C         42.7400   30.1860   29.9030 C.2   356  GLU356      0.2260
     47  O         42.5510   30.5340   31.0700 O.2   356  GLU356     -0.2867
     48  CB        42.7970   32.4420   28.7430 C.3   356  GLU356      0.0388
     49  CG        41.8370   32.5200   27.5860 C.3   356  GLU356      0.1160
     50  CD        42.5270   32.7270   26.2450 C.2   356  GLU356      0.3649
     51  OE1       43.1290   33.7970   26.0260 O.co2 356  GLU356     -0.2457
     52  OE2       42.4490   31.8140   25.4050 O.co2 356  GLU356     -0.2457
     53  N         30.7090   34.4330   25.8670 N.3   545  HIS545     -0.1226
     54  CA        32.1270   34.3080   25.5260 C.3   545  HIS545      0.1752
     55  C         32.4070   35.0110   24.2100 C.2   545  HIS545      0.2596
     56  O         31.5720   34.9960   23.3000 O.2   545  HIS545     -0.2718
     57  CB        32.5050   32.8380   25.3310 C.3   545  HIS545      0.0759
     58  CG        33.0110   32.1620   26.5640 C.ar  545  HIS545      0.0818
     59  ND1       34.2980   32.3320   27.0270 N.ar  545  HIS545     -0.2268
     60  CD2       32.4180   31.2850   27.4100 C.ar  545  HIS545      0.1154
     61  CE1       34.4700   31.6050   28.1180 C.ar  545  HIS545      0.1986
     62  NE2       33.3440   30.9600   28.3720 N.ar  545  HIS545     -0.2212
     63  N         33.5970   35.5930   24.0840 N.am  546  GLU546     -0.1965
     64  CA        34.0600   36.0540   22.7730 C.3   546  GLU546      0.1733
     65  C         34.1650   34.9090   21.7610 C.2   546  GLU546      0.2616
     66  O         33.7890   35.0730   20.5960 O.2   546  GLU546     -0.2715
     67  CB        35.3920   36.7970   22.8920 C.3   546  GLU546      0.0429
     68  CG        35.2210   38.2070   23.4220 C.3   546  GLU546      0.1163
     69  CD        36.5320   38.8430   23.8330 C.2   546  GLU546      0.3649
     70  OE1       37.0110   39.7170   23.0820 O.co2 546  GLU546     -0.2457
     71  OE2       37.0780   38.4680   24.8930 O.co2 546  GLU546     -0.2457
     72  N         34.6560   33.7470   22.1960 N.am  547  TYR547     -0.1974
     73  CA        34.8200   32.6300   21.2560 C.3   547  TYR547      0.1639
     74  C         33.4980   32.0500   20.7500 C.2   547  TYR547      0.2290
     75  O         33.4290   31.5780   19.6140 O.2   547  TYR547     -0.2864
     76  CB        35.7800   31.5530   21.7880 C.3   547  TYR547      0.0560
     77  CG        35.1850   30.4280   22.6020 C.ar  547  TYR547     -0.0198
     78  CD1       34.6850   29.2840   21.9800 C.ar  547  TYR547     -0.0009
     79  CD2       35.1750   30.4760   23.9990 C.ar  547  TYR547     -0.0009
     80  CE1       34.1650   28.2300   22.7180 C.ar  547  TYR547      0.0417
     81  CE2       34.6540   29.4220   24.7500 C.ar  547  TYR547      0.0417
     82  CZ        34.1550   28.3030   24.1010 C.ar  547  TYR547      0.1957
     83  OH        33.6350   27.2480   24.8210 O.3   547  TYR547     -0.2866
     84  N         31.1190   35.5320   33.3130 N.3   584  ALA584     -0.1245
     85  CA        31.9720   35.5160   34.4960 C.3   584  ALA584      0.1562
     86  C         32.0400   36.9540   35.0180 C.2   584  ALA584      0.2260
     87  O         32.1760   37.8850   34.2170 O.2   584  ALA584     -0.2867
     88  CB        33.3560   34.9950   34.1500 C.3   584  ALA584      0.0290
     89  N         34.1670   38.8950   36.3480 N.3   586  GLY586     -0.1210
     90  CA        35.3270   39.7180   36.0040 C.3   586  GLY586      0.1956
     91  C         35.6360   39.8370   34.5230 C.2   586  GLY586      0.2612
     92  O         36.6310   40.4600   34.1450 O.2   586  GLY586     -0.2717
     93  N         34.7880   39.2420   33.6840 N.am  587  TYR587     -0.1962
     94  CA        34.9980   39.2170   32.2380 C.3   587  TYR587      0.1771
     95  C         34.3300   40.4470   31.6380 C.2   587  TYR587      0.2620
     96  O         33.1470   40.4110   31.2710 O.2   587  TYR587     -0.2715
     97  CB        34.4010   37.9310   31.6480 C.3   587  TYR587      0.0574
     98  CG        34.7820   37.5980   30.2140 C.ar  587  TYR587     -0.0198
     99  CD1       34.3800   36.3860   29.6450 C.ar  587  TYR587     -0.0009
    100  CD2       35.5460   38.4720   29.4310 C.ar  587  TYR587     -0.0009
    101  CE1       34.7070   36.0560   28.3360 C.ar  587  TYR587      0.0417
    102  CE2       35.8890   38.1510   28.1140 C.ar  587  TYR587      0.0417
    103  CZ        35.4630   36.9370   27.5760 C.ar  587  TYR587      0.1957
    104  OH        35.7860   36.5970   26.2840 O.3   587  TYR587     -0.2866
    105  N         35.0900   41.5380   31.5530 N.am  588  HIS588     -0.1959
    106  CA        34.5500   42.8320   31.1260 C.3   588  HIS588      0.1787
    107  C         33.8570   42.7930   29.7600 C.2   588  HIS588      0.2620
    108  O         32.7340   43.2760   29.6260 O.2   588  HIS588     -0.2715
    109  CB        35.6360   43.9190   31.1370 C.3   588  HIS588      0.0785
    110  CG        35.1460   45.2550   30.6690 C.ar  588  HIS588      0.0821
    111  ND1       35.4950   45.7900   29.4480 N.ar  588  HIS588     -0.2267
    112  CD2       34.3130   46.1510   31.2490 C.ar  588  HIS588      0.1154
    113  CE1       34.9030   46.9620   29.2980 C.ar  588  HIS588      0.1986
    114  NE2       34.1810   47.2050   30.3780 N.ar  588  HIS588     -0.2212
    115  N         34.5200   42.2160   28.7590 N.am  589  MET589     -0.1977
    116  CA        33.9680   42.1770   27.4000 C.3   589  MET589      0.1605
    117  C         32.6330   41.4290   27.3340 C.2   589  MET589      0.2287
    118  O         31.7060   41.8790   26.6630 O.2   589  MET589     -0.2864
    119  CB        34.9770   41.5860   26.4030 C.3   589  MET589      0.0413
    120  CG        34.6060   41.7870   24.9290 C.3   589  MET589      0.0598
    121  SD        34.4240   43.5160   24.4130 S.3   589  MET589     -0.1393
    122  CE        36.0910   44.1410   24.6360 C.3   589  MET589      0.0692
    123  N         40.4250   38.1970   18.0320 N.3   743  ARG743     -0.1231
    124  CA        41.0320   36.8770   17.8870 C.3   743  ARG743      0.1694
    125  C         40.0730   35.8590   17.2640 C.2   743  ARG743      0.2592
    126  O         40.4990   34.7940   16.8150 O.2   743  ARG743     -0.2718
    127  CB        41.4920   36.3550   19.2510 C.3   743  ARG743      0.0321
    128  CG        42.5190   37.2310   19.9650 C.3   743  ARG743      0.0489
    129  CD        42.6690   36.8130   21.4300 C.3   743  ARG743      0.2205
    130  NE        42.9690   35.3840   21.5630 N.pl3 743  ARG743     -0.0865
    131  CZ        42.6700   34.6480   22.6310 C.cat 743  ARG743      0.5346
    132  NH1       42.0520   35.1990   23.6710 N.pl3 743  ARG743      0.1354
    133  NH2       42.9810   33.3560   22.6550 N.pl3 743  ARG743      0.1354
    134  N         38.7860   36.1910   17.2240 N.am  744  PHE744     -0.1976
    135  CA        37.7710   35.2200   16.8010 C.3   744  PHE744      0.1639
    136  C         37.0680   35.5290   15.4690 C.2   744  PHE744      0.2290
    137  O         36.0870   34.8730   15.0980 O.2   744  PHE744     -0.2864
    138  CB        36.8080   34.9460   17.9630 C.3   744  PHE744      0.0560
    139  CG        37.5200   34.4890   19.2020 C.ar  744  PHE744     -0.0200
    140  CD1       38.0880   33.2190   19.2590 C.ar  744  PHE744     -0.0042
    141  CD2       37.6860   35.3470   20.2810 C.ar  744  PHE744     -0.0042
    142  CE1       38.7860   32.7950   20.3890 C.ar  744  PHE744     -0.0003
    143  CE2       38.3750   34.9320   21.4180 C.ar  744  PHE744     -0.0003
    144  CZ        38.9300   33.6540   21.4700 C.ar  744  PHE744     -0.0000
@<TRIPOS>BOND
     1   137   136    2
     2   136   135    1
     3   135   134    1
     4   135   138    1
     5   126   125    2
     6   134   125   am
     7   125   124    1
     8   124   123    1
     9   124   127    1
    10   138   139    1
    11   139   140   ar
    12   139   141   ar
    13   127   128    1
    14   140   142   ar
    15    75    74    2
    16   128   129    1
    17   141   143   ar
    18   142   144   ar
    19    66    65    2
    20    74    73    1
    21    73    76    1
    22    73    72    1
    23   143   144   ar
    24   129   130    1
    25   130   131    2
    26    65    72   am
    27    65    64    1
    28    76    77    1
    29    78    77   ar
    30    78    80   ar
    31    77    79   ar
    32    43    41    1
    33   131   133    1
    34   131   132    1
    35    80    82   ar
    36    64    67    1
    37    64    63    1
    38    67    68    1
    39    70    69   ar
    40    56    55    2
    41    68    69    1
    42    69    71   ar
    43    41    42    1
    44    41    40    1
    45    79    81   ar
    46    63    55   am
    47    82    81   ar
    48    82    83    1
    49    55    54    1
    50    36    37    1
    51   121   122    1
    52   121   120    1
    53    37    40    1
    54    37    38    1
    55   120   119    1
    56    57    54    1
    57    57    58    1
    58    52    50   ar
    59    54    53    1
    60    38    39    2
    61    51    50   ar
    62    50    49    1
    63   104   103    1
    64   119   116    1
    65    58    59   ar
    66    58    60   ar
    67   118   117    2
    68    59    61   ar
    69   117   116    1
    70   116   115    1
    71    60    62   ar
    72   103   102   ar
    73   103   101   ar
    74    49    48    1
    75    24    22   am
    76    44    45    1
    77   102   100   ar
    78    61    62   ar
    79   101    99   ar
    80    22    21    1
    81    22    23    2
    82    48    45    1
    83   115   107   am
    84    21    18    1
    85    45    46    1
    86   113   111   ar
    87   113   114   ar
    88    16    14   ar
    89   100    98   ar
    90   111   110   ar
    91   108   107    2
    92    20    19    2
    93    99    98   ar
    94   107   106    1
    95    46    47    2
    96    98    97    1
    97   114   112   ar
    98    18    19    1
    99    18    17    1
   100    14    15   ar
   101    14    13    1
   102    19    25   am
   103   110   109    1
   104   110   112   ar
   105    12    11    2
   106   106   109    1
   107   106   105    1
   108    17    11   am
   109    96    95    2
   110    11    10    1
   111   105    95   am
   112    13    10    1
   113    95    94    1
   114    97    94    1
   115    31    33   ar
   116    31    30   ar
   117    25    26    1
   118    33    35   ar
   119    26    29    1
   120    26    27    1
   121    94    93    1
   122    29    30    1
   123    10     9    1
   124    30    32   ar
   125    35    34   ar
   126    84    85    1
   127     9     3   am
   128    27    28    2
   129    93    91   am
   130    32    34   ar
   131    92    91    2
   132    88    85    1
   133    87    86    2
   134    85    86    1
   135    91    90    1
   136     3     4    2
   137     3     2    1
   138     2     5    1
   139     2     1    1
   140     5     6    1
   141    90    89    1
   142     7     6    2
   143     6     8   am
