@<TRIPOS>MOLECULE
tmp/3ebrA01.pdb
 128 120 0 0 0
SMALL
GASTEIGER

@<TRIPOS>ATOM
      1  N         27.7050   19.1330   15.5480 N.3    19  PHE19      -0.1241
      2  CA        27.4920   17.7550   15.9810 C.3    19  PHE19       0.1605
      3  C         26.0600   17.3540   15.5320 C.2    19  PHE19       0.2264
      4  O         25.1540   17.1580   16.3490 O.2    19  PHE19      -0.2867
      5  CB        27.7550   17.6410   17.4990 C.3    19  PHE19       0.0534
      6  CG        28.1880   16.2620   17.9490 C.ar   19  PHE19      -0.0203
      7  CD1       27.2690   15.2370   18.1270 C.ar   19  PHE19      -0.0042
      8  CD2       29.5350   16.0030   18.2180 C.ar   19  PHE19      -0.0042
      9  CE1       27.6860   13.9650   18.5440 C.ar   19  PHE19      -0.0003
     10  CE2       29.9580   14.7460   18.6420 C.ar   19  PHE19      -0.0003
     11  CZ        29.0300   13.7220   18.8010 C.ar   19  PHE19      -0.0000
     12  N         32.5290   20.0450   16.5560 N.3    27  VAL27      -0.1245
     13  CA        33.5160   18.9710   16.6820 C.3    27  VAL27       0.1561
     14  C         34.5040   19.0720   15.5200 C.2    27  VAL27       0.2260
     15  O         34.1340   19.5480   14.4530 O.2    27  VAL27      -0.2867
     16  CB        32.8380   17.5690   16.7030 C.3    27  VAL27       0.0252
     17  CG1       32.0400   17.3190   15.4190 C.3    27  VAL27       0.0019
     18  CG2       33.8600   16.4380   16.9340 C.3    27  VAL27       0.0019
     19  N         37.4170   16.4800   13.7930 N.3    29  TYR29      -0.1241
     20  CA        37.9940   15.1270   13.7980 C.3    29  TYR29       0.1605
     21  C         39.4420   15.0830   13.3030 C.2    29  TYR29       0.2264
     22  O         39.7280   15.5380   12.1930 O.2    29  TYR29      -0.2867
     23  CB        37.1400   14.1710   12.9480 C.3    29  TYR29       0.0534
     24  CG        35.7610   13.9730   13.5170 C.ar   29  TYR29      -0.0201
     25  CD1       35.5610   13.0890   14.5710 C.ar   29  TYR29      -0.0009
     26  CD2       34.6560   14.6670   13.0150 C.ar   29  TYR29      -0.0009
     27  CE1       34.3080   12.9000   15.1220 C.ar   29  TYR29       0.0417
     28  CE2       33.3880   14.4750   13.5600 C.ar   29  TYR29       0.0417
     29  CZ        33.2310   13.5850   14.6130 C.ar   29  TYR29       0.1957
     30  OH        32.0180   13.3810   15.1930 O.3    29  TYR29      -0.2866
     31  N         38.8080    7.7010   18.7390 N.3    39  THR39      -0.1218
     32  CA        38.7220    8.9710   18.0310 C.3    39  THR39       0.1862
     33  C         39.4840   10.0330   18.8200 C.2    39  THR39       0.2287
     34  O         39.5030    9.9900   20.0490 O.2    39  THR39      -0.2866
     35  CB        37.2920    9.4680   17.8120 C.3    39  THR39       0.1770
     36  OG1       36.7060    9.7370   19.0760 O.3    39  THR39      -0.2211
     37  CG2       36.4650    8.4290   17.0740 C.3    39  THR39       0.0375
     38  N         39.6620   14.1510   18.9420 N.3    41  THR41      -0.1218
     39  CA        38.9330   15.3460   18.5090 C.3    41  THR41       0.1862
     40  C         39.0730   16.5630   19.4030 C.2    41  THR41       0.2287
     41  O         39.5340   16.4480   20.5280 O.2    41  THR41      -0.2866
     42  CB        37.3890   15.0730   18.4910 C.3    41  THR41       0.1770
     43  OG1       36.9630   14.6980   19.8070 O.3    41  THR41      -0.2211
     44  CG2       36.9960   13.9750   17.5270 C.3    41  THR41       0.0375
     45  N         36.5540   19.5860   20.7080 N.3    43  LEU43      -0.1245
     46  CA        35.1120   19.7170   20.8770 C.3    43  LEU43       0.1561
     47  C         34.8220   21.0830   21.4830 C.2    43  LEU43       0.2260
     48  O         35.2460   21.3340   22.6010 O.2    43  LEU43      -0.2867
     49  CB        34.6360   18.5680   21.7660 C.3    43  LEU43       0.0270
     50  CG        33.1620   18.2720   22.0210 C.3    43  LEU43       0.0019
     51  CD1       32.4290   17.9150   20.7310 C.3    43  LEU43       0.0001
     52  CD2       33.0560   17.1320   23.0210 C.3    43  LEU43       0.0001
     53  N         39.9910   15.7490   23.2270 N.3   106  ASN106     -0.1240
     54  CA        39.5130   14.4640   23.7010 C.3   106  ASN106      0.1653
     55  C         40.0830   13.2800   22.9510 C.2   106  ASN106      0.2266
     56  O         40.2390   13.3640   21.7410 O.2   106  ASN106     -0.2867
     57  CB        38.0070   14.4290   23.4860 C.3   106  ASN106      0.1155
     58  CG        37.3400   15.7050   23.9100 C.2   106  ASN106      0.2627
     59  OD1       37.4050   16.1060   25.0690 O.2   106  ASN106     -0.2716
     60  ND2       36.6990   16.3630   22.9590 N.am  106  ASN106     -0.0877
     61  N         38.9230    9.5220   22.9210 N.3   108  VAL108     -0.1245
     62  CA        37.8630    8.6320   23.3400 C.3   108  VAL108      0.1561
     63  C         38.0260    7.2370   22.7480 C.2   108  VAL108      0.2260
     64  O         38.0250    7.1060   21.5370 O.2   108  VAL108     -0.2867
     65  CB        36.4940    9.2280   22.9030 C.3   108  VAL108      0.0252
     66  CG1       35.3490    8.3260   23.2840 C.3   108  VAL108      0.0019
     67  CG2       36.2960   10.6050   23.5250 C.3   108  VAL108      0.0019
     68  N         36.2960    3.5780   22.4990 N.3   110  GLY110     -0.1225
     69  CA        34.9980    2.9120   22.6620 C.3   110  GLY110      0.1811
     70  C         33.8270    3.7930   22.2670 C.2   110  GLY110      0.2280
     71  O         34.0160    4.9030   21.7420 O.2   110  GLY110     -0.2866
     72  N         30.0320    5.8400   22.9990 N.3   112  LEU112     -0.1245
     73  CA        29.3200    6.7360   23.9170 C.3   112  LEU112      0.1561
     74  C         27.8340    6.4020   23.7730 C.2   112  LEU112      0.2260
     75  O         27.2420    6.7320   22.7500 O.2   112  LEU112     -0.2867
     76  CB        29.5740    8.2110   23.5880 C.3   112  LEU112      0.0270
     77  CG        30.9640    8.8080   23.8120 C.3   112  LEU112      0.0019
     78  CD1       31.0520   10.1980   23.1990 C.3   112  LEU112      0.0001
     79  CD2       31.2830    8.8680   25.2820 C.3   112  LEU112      0.0001
     80  N         24.3030    7.2680   24.8150 N.3   114  TYR114     -0.1241
     81  CA        23.5120    8.3630   25.4210 C.3   114  TYR114      0.1605
     82  C         22.2560    7.7880   26.0570 C.2   114  TYR114      0.2264
     83  O         21.6370    6.9030   25.4680 O.2   114  TYR114     -0.2867
     84  CB        23.2120    9.4600   24.3940 C.3   114  TYR114      0.0534
     85  CG        24.4980   10.1110   23.9310 C.ar  114  TYR114     -0.0201
     86  CD1       25.0520   11.1840   24.6350 C.ar  114  TYR114     -0.0009
     87  CD2       25.1990    9.6190   22.8300 C.ar  114  TYR114     -0.0009
     88  CE1       26.2590   11.7720   24.2330 C.ar  114  TYR114      0.0417
     89  CE2       26.3900   10.1950   22.4280 C.ar  114  TYR114      0.0417
     90  CZ        26.9260   11.2720   23.1220 C.ar  114  TYR114      0.1957
     91  OH        28.1180   11.8410   22.7080 O.3   114  TYR114     -0.2866
     92  N         27.2590    6.9340   19.8710 N.3   125  GLU125     -0.1231
     93  CA        28.2970    7.5850   19.0760 C.3   125  GLU125      0.1699
     94  C         29.5260    6.7130   19.1460 C.2   125  GLU125      0.2592
     95  O         29.9460    6.3220   20.2380 O.2   125  GLU125     -0.2718
     96  CB        28.6180    9.0050   19.5330 C.3   125  GLU125      0.0402
     97  CG        27.5900   10.0170   19.0820 C.3   125  GLU125      0.1161
     98  CD        27.5380   10.1570   17.5830 C.2   125  GLU125      0.3649
     99  OE1       28.6130   10.3320   16.9770 O.co2 125  GLU125     -0.2457
    100  OE2       26.4170   10.0840   17.0250 O.co2 125  GLU125     -0.2457
    101  N         30.0880    6.4300   17.9720 N.am  126  ASN126     -0.1960
    102  CA        31.2500    5.5930   17.8340 C.3   126  ASN126      0.1819
    103  C         32.0610    6.0520   16.6440 C.2   126  ASN126      0.2621
    104  O         31.7430    7.0910   16.0600 O.2   126  ASN126     -0.2715
    105  CB        30.7800    4.1310   17.7400 C.3   126  ASN126      0.1195
    106  CG        29.8070    3.8640   16.6030 C.2   126  ASN126      0.2630
    107  OD1       29.7010    4.6050   15.6240 O.2   126  ASN126     -0.2716
    108  ND2       29.0870    2.7660   16.7370 N.am  126  ASN126     -0.0877
    109  N         33.0910    5.2910   16.2840 N.am  127  TRP127     -0.1974
    110  CA        33.9250    5.6340   15.1360 C.3   127  TRP127      0.1640
    111  C         33.1190    5.6650   13.8230 C.2   127  TRP127      0.2290
    112  O         33.4550    6.4470   12.9360 O.2   127  TRP127     -0.2864
    113  CB        35.1380    4.6770   14.9990 C.3   127  TRP127      0.0576
    114  CG        34.8500    3.3130   14.4810 C.ar  127  TRP127      0.0006
    115  CD1       34.6520    2.1800   15.2060 C.ar  127  TRP127      0.0946
    116  CD2       34.7420    2.9370   13.1040 C.ar  127  TRP127      0.0152
    117  NE1       34.4200    1.1190   14.3670 N.ar  127  TRP127     -0.2442
    118  CE2       34.4690    1.5540   13.0690 C.ar  127  TRP127      0.0810
    119  CE3       34.8470    3.6400   11.8930 C.ar  127  TRP127      0.0012
    120  CZ2       34.2900    0.8540   11.8660 C.ar  127  TRP127      0.0191
    121  CZ3       34.6590    2.9510   10.6950 C.ar  127  TRP127      0.0001
    122  CH2       34.3910    1.5690   10.6890 C.ar  127  TRP127      0.0015
    123  N         31.0730    8.8200   13.7950 N.3   130  SER130     -0.1217
    124  CA        32.0760    9.8860   13.6530 C.3   130  SER130      0.1889
    125  C         32.5260   10.0210   12.1950 C.2   130  SER130      0.2288
    126  O         32.6310   11.1350   11.6530 O.2   130  SER130     -0.2866
    127  CB        33.2990    9.5840   14.5150 C.3   130  SER130      0.2089
    128  OG        32.9740    9.5280   15.8880 O.3   130  SER130     -0.2183
@<TRIPOS>BOND
     1   122   121   ar
     2   122   120   ar
     3   121   119   ar
     4   126   125    2
     5   120   118   ar
     6   119   116   ar
     7    22    21    2
     8   125   124    1
     9   112   111    2
    10    23    24    1
    11    23    20    1
    12    26    24   ar
    13    26    28   ar
    14   118   116   ar
    15   118   117   ar
    16   116   114   ar
    17    21    20    1
    18    24    25   ar
    19    28    29   ar
    20   124   123    1
    21   124   127    1
    22    19    20    1
    23   111   110    1
    24   117   115   ar
    25    15    14    2
    26   114   113    1
    27   114   115   ar
    28   127   128    1
    29    25    27   ar
    30    29    27   ar
    31    29    30    1
    32   113   110    1
    33   110   109    1
    34    17    16    1
    35    14    13    1
    36     3     2    1
    37     3     4    2
    38     1     2    1
    39   107   106    2
    40     2     5    1
    41   104   103    2
    42   109   103   am
    43    12    13    1
    44   106   108   am
    45   106   105    1
    46   103   102    1
    47    13    16    1
    48    16    18    1
    49    99    98   ar
    50   100    98   ar
    51    37    35    1
    52     5     6    1
    53    44    42    1
    54    98    97    1
    55   105   102    1
    56    35    32    1
    57    35    36    1
    58   102   101    1
    59     6     7   ar
    60     6     8   ar
    61   101    94   am
    62    32    31    1
    63    32    33    1
    64     7     9   ar
    65     8    10   ar
    66    42    39    1
    67    42    43    1
    68    39    38    1
    69    39    40    1
    70     9    11   ar
    71    10    11   ar
    72    33    34    2
    73    93    94    1
    74    93    96    1
    75    93    92    1
    76    97    96    1
    77    94    95    2
    78    40    41    2
    79    45    46    1
    80    51    50    1
    81    46    47    1
    82    46    49    1
    83    47    48    2
    84    64    63    2
    85    56    55    2
    86    71    70    2
    87    49    50    1
    88    50    52    1
    89    70    69    1
    90    89    87   ar
    91    89    90   ar
    92    68    69    1
    93    91    90    1
    94    63    62    1
    95    75    74    2
    96    87    85   ar
    97    65    66    1
    98    65    62    1
    99    65    67    1
   100    61    62    1
   101    55    54    1
   102    60    58   am
   103    72    73    1
   104    90    88   ar
   105    78    77    1
   106    53    54    1
   107    57    54    1
   108    57    58    1
   109    76    77    1
   110    76    73    1
   111    74    73    1
   112    77    79    1
   113    58    59    2
   114    85    84    1
   115    85    86   ar
   116    88    86   ar
   117    84    81    1
   118    80    81    1
   119    81    82    1
   120    83    82    2
