@<TRIPOS>MOLECULE
tmp/3ebrA02.pdb
 126 117 0 0 0
SMALL
GASTEIGER

@<TRIPOS>ATOM
      1  N         36.5540   19.5860   20.7080 N.3    43  LEU43      -0.1245
      2  CA        35.1120   19.7170   20.8770 C.3    43  LEU43       0.1561
      3  C         34.8220   21.0830   21.4830 C.2    43  LEU43       0.2260
      4  O         35.2460   21.3340   22.6010 O.2    43  LEU43      -0.2867
      5  CB        34.6360   18.5680   21.7660 C.3    43  LEU43       0.0270
      6  CG        33.1620   18.2720   22.0210 C.3    43  LEU43       0.0019
      7  CD1       32.4290   17.9150   20.7310 C.3    43  LEU43       0.0001
      8  CD2       33.0560   17.1320   23.0210 C.3    43  LEU43       0.0001
      9  N         32.0630   23.9900   22.7280 N.3    45  ALA45      -0.1245
     10  CA        30.7080   24.0730   23.2860 C.3    45  ALA45       0.1562
     11  C         30.4940   25.4310   23.9760 C.2    45  ALA45       0.2260
     12  O         31.3600   25.8520   24.7610 O.2    45  ALA45      -0.2867
     13  CB        30.4620   22.9420   24.2530 C.3    45  ALA45       0.0290
     14  N         25.6900   10.2910   29.3670 N.3    52  HIS52      -0.1241
     15  CA        26.1750    9.2070   28.5360 C.3    52  HIS52       0.1621
     16  C         26.8960    8.1850   29.3820 C.2    52  HIS52       0.2264
     17  O         27.4760    8.5340   30.4060 O.2    52  HIS52      -0.2867
     18  CB        27.1190    9.7130   27.4250 C.3    52  HIS52       0.0745
     19  CG        28.3940   10.3420   27.9160 C.ar   52  HIS52       0.0817
     20  ND1       28.5620   11.7050   28.0140 N.ar   52  HIS52      -0.2268
     21  CD2       29.5700    9.7910   28.3110 C.ar   52  HIS52       0.1154
     22  CE1       29.7820   11.9660   28.4520 C.ar   52  HIS52       0.1986
     23  NE2       30.4110   10.8210   28.6490 N.ar   52  HIS52      -0.2212
     24  N         38.3590    7.7820   28.3350 N.3    58  VAL58      -0.1245
     25  CA        38.3290    9.1060   27.7390 C.3    58  VAL58       0.1561
     26  C         39.3870    9.9590   28.4410 C.2    58  VAL58       0.2260
     27  O         39.3650   10.0450   29.6640 O.2    58  VAL58      -0.2867
     28  CB        36.9780    9.8390   27.8780 C.3    58  VAL58       0.0252
     29  CG1       37.0430   11.1980   27.1730 C.3    58  VAL58       0.0019
     30  CG2       35.8530    9.0440   27.2940 C.3    58  VAL58       0.0019
     31  N         40.6440   13.7460   28.6160 N.3    60  VAL60      -0.1245
     32  CA        40.2030   15.0820   28.2430 C.3    60  VAL60       0.1561
     33  C         41.1780   16.1470   28.7400 C.2    60  VAL60       0.2260
     34  O         41.4130   16.2280   29.9410 O.2    60  VAL60      -0.2867
     35  CB        38.8090   15.4400   28.8200 C.3    60  VAL60       0.0252
     36  CG1       38.4010   16.8130   28.3310 C.3    60  VAL60       0.0019
     37  CG2       37.7520   14.4230   28.4320 C.3    60  VAL60       0.0019
     38  N         34.4020   23.3150   32.8900 N.3    67  TRP67      -0.1241
     39  CA        33.2640   22.4060   32.8540 C.3    67  TRP67       0.1605
     40  C         33.3960   21.4000   33.9820 C.2    67  TRP67       0.2264
     41  O         34.4000   21.3840   34.6990 O.2    67  TRP67      -0.2867
     42  CB        33.1750   21.7260   31.4850 C.3    67  TRP67       0.0550
     43  CG        34.3720   20.9160   31.1530 C.ar   67  TRP67       0.0003
     44  CD1       35.5020   21.3490   30.5440 C.ar   67  TRP67       0.0946
     45  CD2       34.5630   19.5230   31.4170 C.ar   67  TRP67       0.0152
     46  NE1       36.3880   20.3210   30.4200 N.ar   67  TRP67      -0.2442
     47  CE2       35.8420   19.1840   30.9470 C.ar   67  TRP67       0.0810
     48  CE3       33.7760   18.5340   32.0130 C.ar   67  TRP67       0.0012
     49  CZ2       36.3580   17.8890   31.0450 C.ar   67  TRP67       0.0191
     50  CZ3       34.2810   17.2610   32.1210 C.ar   67  TRP67       0.0001
     51  CH2       35.5620   16.9400   31.6380 C.ar   67  TRP67       0.0015
     52  N         31.2530   17.4460   35.6400 N.3    69  TYR69      -0.1241
     53  CA        30.2640   16.3900   35.5570 C.3    69  TYR69       0.1605
     54  C         29.3530   16.6000   36.7430 C.2    69  TYR69       0.2264
     55  O         29.8480   16.9010   37.8360 O.2    69  TYR69      -0.2867
     56  CB        30.8740   14.9890   35.6220 C.3    69  TYR69       0.0534
     57  CG        31.7790   14.6480   34.4690 C.ar   69  TYR69      -0.0201
     58  CD1       31.2890   14.6620   33.1630 C.ar   69  TYR69      -0.0009
     59  CD2       33.0990   14.2380   34.6700 C.ar   69  TYR69      -0.0009
     60  CE1       32.0840   14.3160   32.0810 C.ar   69  TYR69       0.0417
     61  CE2       33.9200   13.8860   33.5750 C.ar   69  TYR69       0.0417
     62  CZ        33.3920   13.9200   32.2910 C.ar   69  TYR69       0.1957
     63  OH        34.1710   13.6270   31.2090 O.3    69  TYR69      -0.2866
     64  N         38.4990    9.7320   32.3190 N.3    84  GLU84      -0.1245
     65  CA        37.2940    8.9460   32.5800 C.3    84  GLU84       0.1567
     66  C         37.6490    7.4480   32.3930 C.2    84  GLU84       0.2260
     67  O         38.3160    7.0990   31.4150 O.2    84  GLU84      -0.2867
     68  CB        36.1050    9.2700   31.6540 C.3    84  GLU84       0.0388
     69  CG        35.6600   10.7270   31.3880 C.3    84  GLU84       0.1160
     70  CD        34.3010   10.8060   30.6020 C.2    84  GLU84       0.3649
     71  OE1       33.3040   10.1850   31.0130 O.co2  84  GLU84      -0.2457
     72  OE2       34.1820   11.5880   29.6290 O.co2  84  GLU84      -0.2457
     73  N         28.0600   15.7670   31.3310 N.3    92  PRO92      -0.2102
     74  CA        28.9390   16.9310   31.2630 C.3    92  PRO92       0.1504
     75  C         28.1380   18.2140   31.1390 C.2    92  PRO92       0.2575
     76  O         27.0400   18.2120   30.5700 O.2    92  PRO92      -0.2718
     77  CB        29.7450   16.6870   29.9900 C.3    92  PRO92       0.0282
     78  CG        28.8250   15.9190   29.1230 C.3    92  PRO92       0.0208
     79  CD        28.0530   15.0280   30.0540 C.3    92  PRO92       0.0893
     80  N         28.6710   19.2790   31.7190 N.am   93  GLN93      -0.1980
     81  CA        28.0360   20.5830   31.6640 C.3    93  GLN93       0.1601
     82  C         29.0310   21.6800   31.9710 C.2    93  GLN93       0.2287
     83  O         30.0680   21.4430   32.5960 O.2    93  GLN93      -0.2864
     84  CB        26.8490   20.6800   32.6300 C.3    93  GLN93       0.0394
     85  CG        27.1570   20.4940   34.1180 C.3    93  GLN93       0.0908
     86  CD        25.9450   20.7810   34.9840 C.2    93  GLN93       0.2608
     87  OE1       26.0510   21.5160   35.9660 O.2    93  GLN93      -0.2717
     88  NE2       24.7740   20.2740   34.5830 N.am   93  GLN93      -0.0878
     89  N         33.7780   26.5040   25.8930 N.3   102  ILE102     -0.1245
     90  CA        34.5450   25.3550   26.3380 C.3   102  ILE102      0.1561
     91  C         35.1260   24.6360   25.1340 C.2   102  ILE102      0.2260
     92  O         34.3590   24.1730   24.2990 O.2   102  ILE102     -0.2867
     93  CB        33.6840   24.3490   27.1690 C.3   102  ILE102      0.0252
     94  CG1       33.2250   24.9420   28.5110 C.3   102  ILE102      0.0019
     95  CG2       34.4650   23.0650   27.4690 C.3   102  ILE102      0.0019
     96  CD1       32.2120   26.0660   28.4650 C.3   102  ILE102      0.0001
     97  N         37.7750   21.5040   24.2600 N.3   104  THR104     -0.1218
     98  CA        38.4460   20.3550   24.8910 C.3   104  THR104      0.1862
     99  C         39.0620   19.4200   23.8670 C.2   104  THR104      0.2287
    100  O         38.4520   19.1750   22.8360 O.2   104  THR104     -0.2866
    101  CB        37.4700   19.5110   25.7510 C.3   104  THR104      0.1770
    102  OG1       36.4360   18.9570   24.9230 O.3   104  THR104     -0.2211
    103  CG2       36.8490   20.3550   26.8630 C.3   104  THR104      0.0375
    104  N         39.9910   15.7490   23.2270 N.3   106  ASN106     -0.1240
    105  CA        39.5130   14.4640   23.7010 C.3   106  ASN106      0.1653
    106  C         40.0830   13.2800   22.9510 C.2   106  ASN106      0.2266
    107  O         40.2390   13.3640   21.7410 O.2   106  ASN106     -0.2867
    108  CB        38.0070   14.4290   23.4860 C.3   106  ASN106      0.1155
    109  CG        37.3400   15.7050   23.9100 C.2   106  ASN106      0.2627
    110  OD1       37.4050   16.1060   25.0690 O.2   106  ASN106     -0.2716
    111  ND2       36.6990   16.3630   22.9590 N.am  106  ASN106     -0.0877
    112  N         38.9230    9.5220   22.9210 N.3   108  VAL108     -0.1245
    113  CA        37.8630    8.6320   23.3400 C.3   108  VAL108      0.1561
    114  C         38.0260    7.2370   22.7480 C.2   108  VAL108      0.2260
    115  O         38.0250    7.1060   21.5370 O.2   108  VAL108     -0.2867
    116  CB        36.4940    9.2280   22.9030 C.3   108  VAL108      0.0252
    117  CG1       35.3490    8.3260   23.2840 C.3   108  VAL108      0.0019
    118  CG2       36.2960   10.6050   23.5250 C.3   108  VAL108      0.0019
    119  N         30.0320    5.8400   22.9990 N.3   112  LEU112     -0.1245
    120  CA        29.3200    6.7360   23.9170 C.3   112  LEU112      0.1561
    121  C         27.8340    6.4020   23.7730 C.2   112  LEU112      0.2260
    122  O         27.2420    6.7320   22.7500 O.2   112  LEU112     -0.2867
    123  CB        29.5740    8.2110   23.5880 C.3   112  LEU112      0.0270
    124  CG        30.9640    8.8080   23.8120 C.3   112  LEU112      0.0019
    125  CD1       31.0520   10.1980   23.1990 C.3   112  LEU112      0.0001
    126  CD2       31.2830    8.8680   25.2820 C.3   112  LEU112      0.0001
@<TRIPOS>BOND
     1     1     2    1
     2     7     6    1
     3     2     3    1
     4     2     5    1
     5     3     4    2
     6   115   114    2
     7   107   106    2
     8     5     6    1
     9     6     8    1
    10     9    10    1
    11   114   113    1
    12   122   121    2
    13   100    99    2
    14   116   117    1
    15   116   113    1
    16   116   118    1
    17   112   113    1
    18   106   105    1
    19   111   109   am
    20   119   120    1
    21   125   124    1
    22   104   105    1
    23    10    11    1
    24    10    13    1
    25   108   105    1
    26   108   109    1
    27   123   124    1
    28   123   120    1
    29   121   120    1
    30   124   126    1
    31    99    98    1
    32   109   110    2
    33    11    12    2
    34    97    98    1
    35    92    91    2
    36    98   101    1
    37   102   101    1
    38    91    90    1
    39   101   103    1
    40    89    90    1
    41    90    93    1
    42    93    95    1
    43    93    94    1
    44    29    28    1
    45    30    28    1
    46    18    19    1
    47    18    15    1
    48    25    28    1
    49    25    24    1
    50    25    26    1
    51    19    20   ar
    52    19    21   ar
    53    20    22   ar
    54    32    31    1
    55    32    33    1
    56    32    35    1
    57    21    23   ar
    58    36    35    1
    59    37    35    1
    60    26    27    2
    61    22    23   ar
    62    96    94    1
    63    15    14    1
    64    15    16    1
    65    33    34    2
    66    78    77    1
    67    78    79    1
    68    16    17    2
    69    72    70   ar
    70    77    74    1
    71    79    73    1
    72    46    44   ar
    73    46    47   ar
    74    44    43   ar
    75    76    75    2
    76    70    71   ar
    77    70    69    1
    78    47    49   ar
    79    47    45   ar
    80    49    51   ar
    81    75    74    1
    82    75    80   am
    83    43    45   ar
    84    43    42    1
    85    63    62    1
    86    74    73    1
    87    69    68    1
    88    67    66    2
    89    45    48   ar
    90    42    39    1
    91    51    50   ar
    92    68    65    1
    93    81    80    1
    94    81    82    1
    95    81    84    1
    96    82    83    2
    97    48    50   ar
    98    60    62   ar
    99    60    58   ar
   100    62    61   ar
   101    64    65    1
   102    66    65    1
   103    84    85    1
   104    39    38    1
   105    39    40    1
   106    58    57   ar
   107    61    59   ar
   108    40    41    2
   109    85    86    1
   110    57    59   ar
   111    57    56    1
   112    88    86   am
   113    86    87    2
   114    53    56    1
   115    53    52    1
   116    53    54    1
   117    54    55    2
