@<TRIPOS>MOLECULE
tmp/3ebsB01.pdb
 115 110 0 0 0
SMALL
GASTEIGER

@<TRIPOS>ATOM
      1  N        -10.7400  -37.0500  -11.5460 N.3    77  PHE77      -0.1241
      2  CA        -9.8360  -38.0230  -10.9010 C.3    77  PHE77       0.1605
      3  C         -8.9570  -38.7140  -11.9180 C.2    77  PHE77       0.2264
      4  O         -7.7740  -38.8980  -11.6800 O.2    77  PHE77      -0.2867
      5  CB       -10.5810  -38.9790   -9.9630 C.3    77  PHE77       0.0534
      6  CG       -11.2740  -38.2780   -8.8140 C.ar   77  PHE77      -0.0203
      7  CD1      -12.6550  -38.3460   -8.6680 C.ar   77  PHE77      -0.0042
      8  CD2      -10.5430  -37.5020   -7.9080 C.ar   77  PHE77      -0.0042
      9  CE1      -13.2980  -37.6640   -7.6310 C.ar   77  PHE77      -0.0003
     10  CE2      -11.1630  -36.8390   -6.8540 C.ar   77  PHE77      -0.0003
     11  CZ       -12.5490  -36.9120   -6.7140 C.ar   77  PHE77      -0.0000
     12  N         -4.9920  -40.1740  -12.0530 N.3    81  PHE81      -0.1241
     13  CA        -4.8690  -41.6460  -11.9820 C.3    81  PHE81       0.1605
     14  C         -4.5650  -42.2620  -13.3220 C.2    81  PHE81       0.2264
     15  O         -3.8210  -43.2250  -13.3930 O.2    81  PHE81      -0.2867
     16  CB        -6.1030  -42.2610  -11.3510 C.3    81  PHE81       0.0534
     17  CG        -6.2430  -41.9130   -9.9240 C.ar   81  PHE81      -0.0203
     18  CD1       -7.2750  -41.1010   -9.4930 C.ar   81  PHE81      -0.0042
     19  CD2       -5.2900  -42.3480   -8.9990 C.ar   81  PHE81      -0.0042
     20  CE1       -7.3970  -40.7780   -8.1580 C.ar   81  PHE81      -0.0003
     21  CE2       -5.3940  -42.0180   -7.6810 C.ar   81  PHE81      -0.0003
     22  CZ        -6.4620  -41.2180   -7.2530 C.ar   81  PHE81      -0.0000
     23  N         -9.1380  -47.9160   -7.9350 N.3    87  VAL87      -0.1231
     24  CA       -10.5170  -47.4090   -8.1390 C.3    87  VAL87       0.1692
     25  C        -10.8090  -47.2280   -9.6240 C.2    87  VAL87       0.2592
     26  O        -11.7500  -47.8220  -10.1310 O.2    87  VAL87      -0.2718
     27  CB       -10.8030  -46.1030   -7.3670 C.3    87  VAL87       0.0266
     28  CG1      -12.2140  -45.5400   -7.6910 C.3    87  VAL87       0.0020
     29  CG2      -10.6260  -46.3030   -5.8640 C.3    87  VAL87       0.0020
     30  N         -9.9860  -46.4110  -10.2990 N.am   88  PHE88      -0.1976
     31  CA       -10.2660  -45.9040  -11.6520 C.3    88  PHE88       0.1639
     32  C         -9.5810  -46.7120  -12.7450 C.2    88  PHE88       0.2290
     33  O         -9.0280  -46.1530  -13.6850 O.2    88  PHE88      -0.2864
     34  CB        -9.9460  -44.3870  -11.7620 C.3    88  PHE88       0.0560
     35  CG       -10.7350  -43.5410  -10.7990 C.ar   88  PHE88      -0.0200
     36  CD1      -10.1550  -43.0900   -9.6140 C.ar   88  PHE88      -0.0042
     37  CD2      -12.0790  -43.2610  -11.0400 C.ar   88  PHE88      -0.0042
     38  CE1      -10.9020  -42.3210   -8.6980 C.ar   88  PHE88      -0.0003
     39  CE2      -12.8290  -42.5190  -10.1330 C.ar   88  PHE88      -0.0003
     40  CZ       -12.2390  -42.0410   -8.9610 C.ar   88  PHE88      -0.0000
     41  N        -12.6420  -32.7720   -3.9700 N.3   179  PHE179     -0.1241
     42  CA       -13.9710  -33.4070   -3.7690 C.3   179  PHE179      0.1605
     43  C        -15.0990  -32.3710   -3.9720 C.2   179  PHE179      0.2264
     44  O        -16.1570  -32.6660   -4.5630 O.2   179  PHE179     -0.2867
     45  CB       -14.0180  -34.0070   -2.3420 C.3   179  PHE179      0.0534
     46  CG       -15.0330  -35.1160   -2.1430 C.ar  179  PHE179     -0.0203
     47  CD1      -14.8850  -36.3520   -2.7790 C.ar  179  PHE179     -0.0042
     48  CD2      -16.0990  -34.9500   -1.2580 C.ar  179  PHE179     -0.0042
     49  CE1      -15.8380  -37.4020   -2.5760 C.ar  179  PHE179     -0.0003
     50  CE2      -17.0420  -35.9850   -1.0380 C.ar  179  PHE179     -0.0003
     51  CZ       -16.9130  -37.2090   -1.6950 C.ar  179  PHE179     -0.0000
     52  N         -5.7180  -43.6650   -3.7800 N.3   267  ASN267     -0.1240
     53  CA        -7.1130  -44.1710   -3.7230 C.3   267  ASN267      0.1653
     54  C         -7.5970  -44.4530   -2.2940 C.2   267  ASN267      0.2266
     55  O         -8.6420  -43.9520   -1.8810 O.2   267  ASN267     -0.2867
     56  CB        -7.3350  -45.4130   -4.6080 C.3   267  ASN267      0.1155
     57  CG        -7.3240  -45.1020   -6.0970 C.2   267  ASN267      0.2627
     58  OD1       -6.8780  -45.9160   -6.8980 O.2   267  ASN267     -0.2716
     59  ND2       -7.8190  -43.9200   -6.4740 N.am  267  ASN267     -0.0877
     60  N         -7.5600  -41.2610    0.0010 N.3   270  PHE270     -0.1227
     61  CA        -8.6120  -40.2910   -0.3520 C.3   270  PHE270      0.1736
     62  C        -10.0210  -40.7940    0.0200 C.2   270  PHE270      0.2595
     63  O        -10.7300  -40.1530    0.8050 O.2   270  PHE270     -0.2718
     64  CB        -8.5570  -40.0120   -1.8580 C.3   270  PHE270      0.0547
     65  CG        -9.1620  -38.6940   -2.2700 C.ar  270  PHE270     -0.0202
     66  CD1      -10.4710  -38.3680   -1.9340 C.ar  270  PHE270     -0.0042
     67  CD2       -8.4110  -37.7820   -3.0150 C.ar  270  PHE270     -0.0042
     68  CE1      -11.0190  -37.1350   -2.3220 C.ar  270  PHE270     -0.0003
     69  CE2       -8.9540  -36.5630   -3.4140 C.ar  270  PHE270     -0.0003
     70  CZ       -10.2570  -36.2430   -3.0630 C.ar  270  PHE270     -0.0000
     71  N        -10.4040  -41.9360   -0.5730 N.am  271  ALA271     -0.1980
     72  CA       -11.6850  -42.6340   -0.3500 C.3   271  ALA271      0.1597
     73  C        -11.9330  -43.0150    1.1050 C.2   271  ALA271      0.2287
     74  O        -13.0550  -42.9500    1.5880 O.2   271  ALA271     -0.2864
     75  CB       -11.7500  -43.8840   -1.2240 C.3   271  ALA271      0.0319
     76  N        -15.3460  -39.4790    2.2300 N.3   275  THR275     -0.1218
     77  CA       -16.7930  -39.8090    2.2680 C.3   275  THR275      0.1862
     78  C        -17.3600  -39.9510    3.6800 C.2   275  THR275      0.2287
     79  O        -18.4590  -39.4750    3.9540 O.2   275  THR275     -0.2866
     80  CB       -17.1430  -41.0840    1.4980 C.3   275  THR275      0.1770
     81  OG1      -16.1400  -42.0750    1.7600 O.3   275  THR275     -0.2211
     82  CG2      -17.2470  -40.8030   -0.0070 C.3   275  THR275      0.0375
     83  N        -22.5710  -40.1840   -2.4980 N.3   336  ILE336     -0.1245
     84  CA       -22.2570  -40.3600   -3.9190 C.3   336  ILE336      0.1561
     85  C        -23.5780  -40.6170   -4.6850 C.2   336  ILE336      0.2260
     86  O        -23.9620  -41.7770   -4.8850 O.2   336  ILE336     -0.2867
     87  CB       -21.1790  -41.4730   -4.1910 C.3   336  ILE336      0.0252
     88  CG1      -20.0090  -41.4130   -3.2000 C.3   336  ILE336      0.0019
     89  CG2      -20.6560  -41.4040   -5.6060 C.3   336  ILE336      0.0019
     90  CD1      -19.0310  -40.2230   -3.3920 C.3   336  ILE336      0.0001
     91  N        -20.3350  -44.2630   -8.8440 N.3   340  LEU340     -0.1245
     92  CA       -19.1730  -44.2300   -9.7290 C.3   340  LEU340      0.1561
     93  C        -19.4950  -44.9660  -11.0170 C.2   340  LEU340      0.2260
     94  O        -19.9370  -46.1150  -10.9820 O.2   340  LEU340     -0.2867
     95  CB       -17.9590  -44.9050   -9.0950 C.3   340  LEU340      0.0270
     96  CG       -16.9430  -44.0240   -8.4010 C.3   340  LEU340      0.0019
     97  CD1      -17.4580  -43.6250   -7.0270 C.3   340  LEU340      0.0001
     98  CD2      -15.6090  -44.7400   -8.3270 C.3   340  LEU340      0.0001
     99  N        -18.0800  -50.9290   -3.1430 N.3   409  CYS409     -0.1235
    100  CA       -17.0900  -50.3490   -2.2640 C.3   409  CYS409      0.1677
    101  C        -16.5200  -51.3790   -1.2790 C.2   409  CYS409      0.2270
    102  O        -17.2600  -51.8510   -0.4300 O.2   409  CYS409     -0.2867
    103  CB       -17.7460  -49.2350   -1.4630 C.3   409  CYS409      0.0956
    104  SG       -16.7730  -48.7970   -0.0550 S.3   409  CYS409     -0.0801
    105  N        -20.6300  -35.2350   -8.5450 N.3   450  PHE450     -0.1241
    106  CA       -20.0490  -36.5160   -8.1200 C.3   450  PHE450      0.1605
    107  C        -20.3970  -36.8310   -6.6530 C.2   450  PHE450      0.2264
    108  O        -20.6210  -37.9940   -6.2770 O.2   450  PHE450     -0.2867
    109  CB       -18.5290  -36.5340   -8.3310 C.3   450  PHE450      0.0534
    110  CG       -17.8560  -37.7340   -7.7440 C.ar  450  PHE450     -0.0203
    111  CD1      -18.0050  -38.9980   -8.3320 C.ar  450  PHE450     -0.0042
    112  CD2      -17.1030  -37.6200   -6.5850 C.ar  450  PHE450     -0.0042
    113  CE1      -17.4060  -40.1280   -7.7680 C.ar  450  PHE450     -0.0003
    114  CE2      -16.4980  -38.7450   -6.0210 C.ar  450  PHE450     -0.0003
    115  CZ       -16.6490  -39.9940   -6.6190 C.ar  450  PHE450     -0.0000
@<TRIPOS>BOND
     1    33    32    2
     2    15    14    2
     3    14    13    1
     4    32    31    1
     5    12    13    1
     6    13    16    1
     7     3     4    2
     8     3     2    1
     9    34    31    1
    10    34    35    1
    11    31    30    1
    12     1     2    1
    13    16    17    1
    14    37    35   ar
    15    37    39   ar
    16    93    94    2
    17    93    92    1
    18     2     5    1
    19    35    36   ar
    20    30    25   am
    21    39    40   ar
    22    26    25    2
    23     5     6    1
    24    17    18   ar
    25    17    19   ar
    26    92    95    1
    27    92    91    1
    28    25    24    1
    29    36    38   ar
    30    18    20   ar
    31    95    96    1
    32    19    21   ar
    33    40    38   ar
    34     6     7   ar
    35     6     8   ar
    36     7     9   ar
    37   105   106    1
    38    96    98    1
    39    96    97    1
    40   111   113   ar
    41   111   110   ar
    42   109   106    1
    43   109   110    1
    44    20    22   ar
    45    24    23    1
    46    24    27    1
    47   106   107    1
    48     8    10   ar
    49   113   115   ar
    50   110   112   ar
    51    28    27    1
    52    21    22   ar
    53     9    11   ar
    54    27    29    1
    55    58    57    2
    56    10    11   ar
    57   107   108    2
    58   115   114   ar
    59   112   114   ar
    60    59    57   am
    61    57    56    1
    62    89    87    1
    63    86    85    2
    64    85    84    1
    65    56    53    1
    66    44    43    2
    67    87    84    1
    68    87    88    1
    69    43    42    1
    70    41    42    1
    71    84    83    1
    72    52    53    1
    73    42    45    1
    74    53    54    1
    75    69    70   ar
    76    69    67   ar
    77    90    88    1
    78    99   100    1
    79    70    68   ar
    80    67    65   ar
    81    47    49   ar
    82    47    46   ar
    83    49    51   ar
    84    45    46    1
    85    68    66   ar
    86    54    55    2
    87    65    66   ar
    88    65    64    1
    89   100   103    1
    90   100   101    1
    91    46    48   ar
    92    64    61    1
    93    51    50   ar
    94   103   104    1
    95   101   102    2
    96    48    50   ar
    97    75    72    1
    98    71    72    1
    99    71    62   am
   100    61    60    1
   101    61    62    1
   102    72    73    1
   103    82    80    1
   104    62    63    2
   105    73    74    2
   106    80    81    1
   107    80    77    1
   108    76    77    1
   109    77    78    1
   110    78    79    2
