@<TRIPOS>MOLECULE
tmp/3ebwA00.pdb
 185 176 0 0 0
SMALL
GASTEIGER

@<TRIPOS>ATOM
      1  N         21.2960    5.5000   75.2310 N.3    23  GLU23      -0.1245
      2  CA        20.4660    6.4730   75.9290 C.3    23  GLU23       0.1567
      3  C         19.1760    5.7740   76.3640 C.2    23  GLU23       0.2260
      4  O         18.3290    5.4790   75.5410 O.2    23  GLU23      -0.2867
      5  CB        20.1690    7.6550   75.0060 C.3    23  GLU23       0.0388
      6  CG        19.2890    8.7150   75.6120 C.3    23  GLU23       0.1160
      7  CD        19.3870   10.0330   74.8610 C.2    23  GLU23       0.3649
      8  OE1       18.5100   10.8980   75.0540 O.co2  23  GLU23      -0.2457
      9  OE2       20.3500   10.2080   74.0760 O.co2  23  GLU23      -0.2457
     10  N         13.7190   18.8820   69.5740 N.3    31  ASP31      -0.1225
     11  CA        14.8120   18.2980   68.8030 C.3    31  ASP31       0.1805
     12  C         15.3940   17.0760   69.5160 C.2    31  ASP31       0.2597
     13  O         16.3100   17.1930   70.3090 O.2    31  ASP31      -0.2718
     14  CB        15.9010   19.3530   68.5220 C.3    31  ASP31       0.1424
     15  CG        16.5090   19.9380   69.7810 C.2    31  ASP31       0.3668
     16  OD1       17.4430   19.3260   70.3360 O.co2  31  ASP31      -0.2456
     17  OD2       16.0520   21.0150   70.2140 O.co2  31  ASP31      -0.2456
     18  N         14.8370   15.9090   69.2050 N.am   32  GLU32      -0.1979
     19  CA        15.2070   14.6130   69.7750 C.3    32  GLU32       0.1602
     20  C         13.9190   13.7720   69.8740 C.2    32  GLU32       0.2287
     21  O         13.9370   12.6030   70.3200 O.2    32  GLU32      -0.2864
     22  CB        15.8360   14.7840   71.1620 C.3    32  GLU32       0.0415
     23  CG        16.2960   13.4990   71.8310 C.3    32  GLU32       0.1163
     24  CD        17.4010   13.7500   72.8550 C.2    32  GLU32       0.3649
     25  OE1       17.7420   14.9350   73.0300 O.co2  32  GLU32      -0.2457
     26  OE2       17.9280   12.7870   73.4770 O.co2  32  GLU32      -0.2457
     27  N         13.9150   10.3610   67.1360 N.3    35  PHE35      -0.1241
     28  CA        14.7660    9.2850   67.6230 C.3    35  PHE35       0.1605
     29  C         14.0660    8.5280   68.7340 C.2    35  PHE35       0.2264
     30  O         13.7780    9.0880   69.7860 O.2    35  PHE35      -0.2867
     31  CB        16.0800    9.8710   68.1160 C.3    35  PHE35       0.0534
     32  CG        16.5480   11.0120   67.2930 C.ar   35  PHE35      -0.0203
     33  CD1       16.4590   10.9540   65.9070 C.ar   35  PHE35      -0.0042
     34  CD2       17.0220   12.1570   67.8850 C.ar   35  PHE35      -0.0042
     35  CE1       16.8300   12.0210   65.1140 C.ar   35  PHE35      -0.0003
     36  CE2       17.4000   13.2350   67.0960 C.ar   35  PHE35      -0.0003
     37  CZ        17.2960   13.1640   65.6960 C.ar   35  PHE35      -0.0000
     38  N         19.2620    4.9280   69.9730 N.3    39  GLU39      -0.1245
     39  CA        19.9790    6.1480   70.2860 C.3    39  GLU39       0.1567
     40  C         21.1390    5.8950   71.2540 C.2    39  GLU39       0.2260
     41  O         20.9410    5.6460   72.4430 O.2    39  GLU39      -0.2867
     42  CB        19.0230    7.1720   70.8800 C.3    39  GLU39       0.0388
     43  CG        19.4630    8.5860   70.6580 C.3    39  GLU39       0.1160
     44  CD        18.7620    9.5070   71.5940 C.2    39  GLU39       0.3649
     45  OE1       18.2490    8.9710   72.5820 O.co2  39  GLU39      -0.2457
     46  OE2       18.7300   10.7330   71.3700 O.co2  39  GLU39      -0.2457
     47  N         25.6230    6.9110   71.9730 N.3    41  ASP41      -0.1239
     48  CA        26.8080    7.7000   71.6390 C.3    41  ASP41       0.1674
     49  C         27.9980    6.7450   71.8200 C.2    41  ASP41       0.2266
     50  O         28.0170    5.9390   72.7600 O.2    41  ASP41      -0.2867
     51  CB        26.9330    8.9150   72.5690 C.3    41  ASP41       0.1410
     52  CG        25.9570   10.0290   72.2210 C.2    41  ASP41       0.3668
     53  OD1       26.3250   10.9460   71.4620 O.co2  41  ASP41      -0.2456
     54  OD2       24.8120    9.9890   72.7040 O.co2  41  ASP41      -0.2456
     55  N         32.1520    6.4930   72.1840 N.3    43  TYR43      -0.1241
     56  CA        33.3970    7.2180   72.4560 C.3    43  TYR43       0.1605
     57  C         34.5940    6.3290   72.1310 C.2    43  TYR43       0.2264
     58  O         34.7090    5.1880   72.5820 O.2    43  TYR43      -0.2867
     59  CB        33.4390    7.7020   73.8990 C.3    43  TYR43       0.0534
     60  CG        32.4780    8.8230   74.1500 C.ar   43  TYR43      -0.0201
     61  CD1       32.8890   10.1520   74.0990 C.ar   43  TYR43      -0.0009
     62  CD2       31.1460    8.5580   74.4820 C.ar   43  TYR43      -0.0009
     63  CE1       31.9920   11.1960   74.3900 C.ar   43  TYR43       0.0417
     64  CE2       30.2570    9.5810   74.7730 C.ar   43  TYR43       0.0417
     65  CZ        30.6870   10.8890   74.7330 C.ar   43  TYR43       0.1957
     66  OH        29.8290   11.8770   75.1060 O.3    43  TYR43      -0.2866
     67  N         33.8580   11.1980   69.3830 N.3    53  VAL53      -0.1245
     68  CA        32.5190   10.7580   69.7280 C.3    53  VAL53       0.1561
     69  C         31.5750   10.7000   68.5300 C.2    53  VAL53       0.2260
     70  O         31.5060   11.6150   67.7110 O.2    53  VAL53      -0.2867
     71  CB        31.9070   11.6160   70.8460 C.3    53  VAL53       0.0252
     72  CG1       31.5190   12.9770   70.3250 C.3    53  VAL53       0.0019
     73  CG2       30.7350   10.8770   71.4480 C.3    53  VAL53       0.0019
     74  N         27.6460   10.0450   67.4740 N.3    55  SER55      -0.1217
     75  CA        26.2470    9.9760   67.8490 C.3    55  SER55       0.1889
     76  C         25.4770    9.2370   66.7530 C.2    55  SER55       0.2288
     77  O         25.5510    9.5920   65.5680 O.2    55  SER55      -0.2866
     78  CB        25.6850   11.3730   67.9990 C.3    55  SER55       0.2089
     79  OG        24.2860   11.2960   68.0030 O.3    55  SER55      -0.2183
     80  N         26.3360   11.3730   63.4780 N.3    68  SER68      -0.1202
     81  CA        27.1220   12.5860   63.6680 C.3    68  SER68       0.2020
     82  C         28.3570   12.2930   64.5160 C.2    68  SER68       0.2619
     83  O         28.3350   11.4330   65.3990 O.2    68  SER68      -0.2717
     84  CB        26.2750   13.6580   64.3450 C.3    68  SER68       0.2103
     85  OG        26.9960   14.8690   64.4240 O.3    68  SER68      -0.2182
     86  N         29.4390   13.0070   64.2460 N.am   69  THR69      -0.1938
     87  CA        30.6630   12.7990   64.9940 C.3    69  THR69       0.2028
     88  C         31.1790   14.1000   65.5670 C.2    69  THR69       0.2642
     89  O         30.8190   15.1820   65.1190 O.2    69  THR69      -0.2714
     90  CB        31.7690   12.1630   64.1060 C.3    69  THR69       0.1808
     91  OG1       31.4730   10.7790   63.8810 O.3    69  THR69      -0.2208
     92  CG2       33.1320   12.2700   64.7670 C.3    69  THR69       0.0379
     93  N         32.0130   13.9800   66.5850 N.am   70  GLY70      -0.1954
     94  CA        32.6080   15.1440   67.2020 C.3    70  GLY70       0.1869
     95  C         33.7430   14.6650   68.0740 C.2    70  GLY70       0.2309
     96  O         33.8480   13.4770   68.3790 O.2    70  GLY70      -0.2863
     97  N         32.4930   18.3100   80.3400 N.3    80  PHE80      -0.1241
     98  CA        33.2050   17.9360   79.1270 C.3    80  PHE80       0.1605
     99  C         32.6560   18.6980   77.9540 C.2    80  PHE80       0.2264
    100  O         31.4830   19.0060   77.9190 O.2    80  PHE80      -0.2867
    101  CB        33.2010   16.4200   78.8740 C.3    80  PHE80       0.0534
    102  CG        31.8520   15.8220   78.6360 C.ar   80  PHE80      -0.0203
    103  CD1       31.0960   15.3490   79.6980 C.ar   80  PHE80      -0.0042
    104  CD2       31.3710   15.6500   77.3410 C.ar   80  PHE80      -0.0042
    105  CE1       29.8910   14.7100   79.4670 C.ar   80  PHE80      -0.0003
    106  CE2       30.1720   15.0160   77.1100 C.ar   80  PHE80      -0.0003
    107  CZ        29.4320   14.5450   78.1680 C.ar   80  PHE80      -0.0000
    108  N         32.2380   19.3170   73.6140 N.3    82  ILE82      -0.1231
    109  CA        32.1670   18.6130   72.3570 C.3    82  ILE82       0.1692
    110  C         32.4600   19.6060   71.2570 C.2    82  ILE82       0.2592
    111  O         32.0210   20.7540   71.3100 O.2    82  ILE82      -0.2718
    112  CB        30.8090   18.0010   72.1640 C.3    82  ILE82       0.0266
    113  CG1       30.5190   17.1000   73.3670 C.3    82  ILE82       0.0019
    114  CG2       30.7530   17.2300   70.8390 C.3    82  ILE82       0.0020
    115  CD1       31.2780   15.8220   73.4420 C.3    82  ILE82       0.0001
    116  N         33.2280   19.1480   70.2730 N.am   83  ALA83      -0.1966
    117  CA        33.6270   19.9840   69.1650 C.3    83  ALA83       0.1728
    118  C         33.1700   19.5020   67.7830 C.2    83  ALA83       0.2616
    119  O         33.0720   18.3040   67.5280 O.2    83  ALA83      -0.2715
    120  CB        35.1150   20.1300   69.1850 C.3    83  ALA83       0.0334
    121  N         32.9030   20.4860   66.9210 N.am   84  TYR84      -0.1974
    122  CA        32.4750   20.3430   65.5250 C.3    84  TYR84       0.1639
    123  C         31.6630   19.1040   65.2210 C.2    84  TYR84       0.2290
    124  O         30.4730   19.1990   64.9450 O.2    84  TYR84      -0.2864
    125  CB        33.6970   20.3920   64.6040 C.3    84  TYR84       0.0560
    126  CG        34.7480   21.3840   65.0560 C.ar   84  TYR84      -0.0198
    127  CD1       34.4390   22.7410   65.2020 C.ar   84  TYR84      -0.0009
    128  CD2       36.0440   20.9630   65.3740 C.ar   84  TYR84      -0.0009
    129  CE1       35.3930   23.6550   65.6550 C.ar   84  TYR84       0.0417
    130  CE2       37.0060   21.8650   65.8270 C.ar   84  TYR84       0.0417
    131  CZ        36.6720   23.2090   65.9660 C.ar   84  TYR84       0.1957
    132  OH        37.6070   24.1120   66.4160 O.3    84  TYR84      -0.2866
    133  N         32.5370   23.8130   71.4030 N.3    85  SER85      -0.1202
    134  CA        31.2330   24.3250   71.0000 C.3    85  SER85       0.2020
    135  C         30.1980   24.1770   72.1180 C.2    85  SER85       0.2619
    136  O         29.8010   25.1720   72.7180 O.2    85  SER85      -0.2717
    137  CB        30.7420   23.6250   69.7280 C.3    85  SER85       0.2103
    138  OG        31.6250   23.8380   68.6360 O.3    85  SER85      -0.2182
    139  N         29.7520   22.9630   72.4130 N.am   86  SER86      -0.1951
    140  CA        28.7760   22.8130   73.4920 C.3    86  SER86       0.1924
    141  C         29.4300   22.2460   74.7610 C.2    86  SER86       0.2314
    142  O         30.3550   21.4470   74.6650 O.2    86  SER86      -0.2863
    143  CB        27.6360   21.9070   73.0470 C.3    86  SER86       0.2116
    144  OG        28.1330   20.6310   72.7020 O.3    86  SER86      -0.2180
    145  N         28.8160   20.2370   78.4920 N.3    88  TYR88      -0.1241
    146  CA        27.9360   19.3170   79.2140 C.3    88  TYR88       0.1605
    147  C         28.4920   18.9700   80.6070 C.2    88  TYR88       0.2264
    148  O         29.7130   18.8050   80.7790 O.2    88  TYR88      -0.2867
    149  CB        27.8160   18.0180   78.4200 C.3    88  TYR88       0.0534
    150  CG        27.1950   18.1900   77.0700 C.ar   88  TYR88      -0.0201
    151  CD1       25.8170   18.1110   76.9160 C.ar   88  TYR88      -0.0009
    152  CD2       27.9720   18.4310   75.9530 C.ar   88  TYR88      -0.0009
    153  CE1       25.2270   18.2650   75.6790 C.ar   88  TYR88       0.0417
    154  CE2       27.4020   18.5910   74.7140 C.ar   88  TYR88       0.0417
    155  CZ        26.0280   18.5050   74.5780 C.ar   88  TYR88       0.1957
    156  OH        25.4330   18.6340   73.3460 O.3    88  TYR88      -0.2866
    157  N         24.3980   12.3690   82.3180 N.3   100  VAL100     -0.1245
    158  CA        24.9810   13.5800   81.7420 C.3   100  VAL100      0.1561
    159  C         23.8840   14.6160   81.5910 C.2   100  VAL100      0.2260
    160  O         22.7220   14.2490   81.5550 O.2   100  VAL100     -0.2867
    161  CB        25.5590   13.2970   80.3320 C.3   100  VAL100      0.0252
    162  CG1       25.6650   14.5810   79.5180 C.3   100  VAL100      0.0019
    163  CG2       26.9190   12.7050   80.4460 C.3   100  VAL100      0.0019
    164  N         19.9910   23.0850   75.4940 N.3   104  LEU104     -0.1245
    165  CA        19.8600   22.9000   74.0610 C.3   104  LEU104      0.1561
    166  C         19.6290   24.2180   73.3630 C.2   104  LEU104      0.2260
    167  O         18.7590   24.9890   73.7540 O.2   104  LEU104     -0.2867
    168  CB        18.7480   21.8840   73.7530 C.3   104  LEU104      0.0270
    169  CG        19.1380   20.4110   74.0150 C.3   104  LEU104      0.0019
    170  CD1       17.9190   19.5330   73.8820 C.3   104  LEU104      0.0001
    171  CD2       20.2370   19.9390   73.0420 C.3   104  LEU104      0.0001
    172  N         20.1970   13.2210   80.4820 N.3   114  TRP114     -0.1241
    173  CA        20.2820   12.0260   79.6520 C.3   114  TRP114      0.1605
    174  C         20.8470   10.9040   80.5220 C.2   114  TRP114      0.2264
    175  O         21.9430   11.0080   81.0580 O.2   114  TRP114     -0.2867
    176  CB        21.1730   12.3020   78.4380 C.3   114  TRP114      0.0550
    177  CG        20.5860   13.2930   77.4450 C.ar  114  TRP114      0.0003
    178  CD1       19.5760   13.0540   76.5570 C.ar  114  TRP114      0.0946
    179  CD2       20.9760   14.6700   77.2330 C.ar  114  TRP114      0.0152
    180  NE1       19.3080   14.1910   75.8020 N.ar  114  TRP114     -0.2442
    181  CE2       20.1520   15.1910   76.2000 C.ar  114  TRP114      0.0810
    182  CE3       21.9290   15.5050   77.8120 C.ar  114  TRP114      0.0012
    183  CZ2       20.2580   16.4990   75.7390 C.ar  114  TRP114      0.0191
    184  CZ3       22.0260   16.8240   77.3440 C.ar  114  TRP114      0.0001
    185  CH2       21.1900   17.3000   76.3190 C.ar  114  TRP114      0.0015
@<TRIPOS>BOND
     1    80    81    1
     2    81    84    1
     3    81    82    1
     4    91    90    1
     5    90    92    1
     6    90    87    1
     7    86    82   am
     8    86    87    1
     9    84    85    1
    10    82    83    2
    11   125   126    1
    12   125   122    1
    13   124   123    2
    14    87    88    1
    15   126   127   ar
    16   126   128   ar
    17    35    37   ar
    18    35    33   ar
    19    89    88    2
    20   127   129   ar
    21   123   122    1
    22   128   130   ar
    23   122   121    1
    24    88    93   am
    25    77    76    2
    26   129   131   ar
    27    37    36   ar
    28   130   131   ar
    29    33    32   ar
    30   131   132    1
    31    93    94    1
    32    76    75    1
    33   121   118   am
    34    36    34   ar
    35    27    28    1
    36    94    95    1
    37    32    34   ar
    38    32    31    1
    39    74    75    1
    40   119   118    2
    41    28    31    1
    42    28    29    1
    43    70    69    2
    44   118   117    1
    45    75    78    1
    46    78    79    1
    47    95    96    2
    48    14    11    1
    49    14    15    1
    50    69    68    1
    51   138   137    1
    52    29    30    2
    53    11    12    1
    54    11    10    1
    55   117   120    1
    56   117   116    1
    57    18    12   am
    58    18    19    1
    59    67    68    1
    60    12    13    2
    61    68    71    1
    62   137   134    1
    63    19    20    1
    64    19    22    1
    65    15    17   ar
    66    15    16   ar
    67    20    21    2
    68    38    39    1
    69   116   110   am
    70    39    42    1
    71    39    40    1
    72    72    71    1
    73    43    42    1
    74    43    44    1
    75   114   112    1
    76    71    73    1
    77   134   133    1
    78   134   135    1
    79    22    23    1
    80    40    41    2
    81   110   111    2
    82   110   109    1
    83    46    44   ar
    84    53    52   ar
    85    44    45   ar
    86    48    49    1
    87    48    47    1
    88    48    51    1
    89    49    50    2
    90    23    24    1
    91   135   139   am
    92   135   136    2
    93    57    56    1
    94    57    58    2
    95   112   109    1
    96   112   113    1
    97    55    56    1
    98    52    51    1
    99    52    54   ar
   100   109   108    1
   101   139   140    1
   102    56    59    1
   103   144   143    1
   104    24    25   ar
   105    24    26   ar
   106   171   169    1
   107   143   140    1
   108   156   155    1
   109   166   167    2
   110   166   165    1
   111   113   115    1
   112   140   141    1
   113   168   169    1
   114   168   165    1
   115   170   169    1
   116    59    60    1
   117   165   164    1
   118     9     7   ar
   119    61    60   ar
   120    61    63   ar
   121    60    62   ar
   122    63    65   ar
   123    62    64   ar
   124   155   154   ar
   125   155   153   ar
   126   142   141    2
   127   154   152   ar
   128    65    64   ar
   129    65    66    1
   130     7     8   ar
   131     7     6    1
   132     5     6    1
   133     5     2    1
   134     1     2    1
   135     4     3    2
   136   153   151   ar
   137   183   181   ar
   138   183   185   ar
   139   180   181   ar
   140   180   178   ar
   141     2     3    1
   142   152   150   ar
   143   181   179   ar
   144   185   184   ar
   145   178   177   ar
   146   151   150   ar
   147   150   149    1
   148   106   104   ar
   149   106   107   ar
   150   179   177   ar
   151   179   182   ar
   152   104   102   ar
   153   184   182   ar
   154   177   176    1
   155   100    99    2
   156    99    98    1
   157   107   105   ar
   158   149   146    1
   159   176   173    1
   160   145   146    1
   161   102   101    1
   162   102   103   ar
   163   101    98    1
   164    98    97    1
   165   146   147    1
   166   105   103   ar
   167   162   161    1
   168   173   172    1
   169   173   174    1
   170   161   163    1
   171   161   158    1
   172   174   175    2
   173   147   148    2
   174   160   159    2
   175   159   158    1
   176   158   157    1
