@<TRIPOS>MOLECULE
tmp/3ec0A00.pdb
 114 106 0 0 0
SMALL
GASTEIGER

@<TRIPOS>ATOM
      1  N         23.2820   13.6590    5.1620 N.3     8  ARG8       -0.1245
      2  CA        22.2680   13.0000    5.9940 C.3     8  ARG8        0.1563
      3  C         21.2550   12.2640    5.1220 C.2     8  ARG8        0.2260
      4  O         20.7710   12.8480    4.1530 O.2     8  ARG8       -0.2867
      5  CB        21.5190   13.9960    6.8670 C.3     8  ARG8        0.0307
      6  CG        22.3660   14.7560    7.8680 C.3     8  ARG8        0.0489
      7  CD        21.5210   15.6580    8.7330 C.3     8  ARG8        0.2205
      8  NE        22.2270   16.2610    9.8270 N.pl3   8  ARG8       -0.0865
      9  CZ        21.7750   17.0990   10.7440 C.cat   8  ARG8        0.5346
     10  NH1       20.5140   17.4850   10.7350 N.pl3   8  ARG8        0.1354
     11  NH2       22.5810   17.5490   11.6890 N.pl3   8  ARG8        0.1354
     12  N         14.7350   11.4510    8.9510 N.3    23  LEU23      -0.1245
     13  CA        16.0830   10.9500    8.9230 C.3    23  LEU23       0.1561
     14  C         16.0550    9.4330    9.1010 C.2    23  LEU23       0.2260
     15  O         15.4850    8.9170   10.0630 O.2    23  LEU23      -0.2867
     16  CB        16.8140   11.5500   10.1180 C.3    23  LEU23       0.0270
     17  CG        18.2740   11.2090   10.3450 C.3    23  LEU23       0.0019
     18  CD1       19.1310   11.7070    9.1810 C.3    23  LEU23       0.0001
     19  CD2       18.7350   11.8120   11.6650 C.3    23  LEU23       0.0001
     20  N         17.5680    6.4030   10.3070 N.3    25  ASP25      -0.1239
     21  CA        18.5080    6.3720   11.4070 C.3    25  ASP25       0.1674
     22  C         18.7360    4.9910   12.0140 C.2    25  ASP25       0.2266
     23  O         17.9710    4.5040   12.8230 O.2    25  ASP25      -0.2867
     24  CB        17.9810    7.2700   12.5080 C.3    25  ASP25       0.1410
     25  CG        19.0680    7.6340   13.5050 C.2    25  ASP25       0.3668
     26  OD1       20.1420    6.9830   13.4980 O.co2  25  ASP25      -0.2456
     27  OD2       18.8280    8.5620   14.3060 O.co2  25  ASP25      -0.2456
     28  N         20.8230    4.3360   14.2060 N.3    27  GLY27      -0.1210
     29  CA        21.1710    4.4780   15.5990 C.3    27  GLY27       0.1956
     30  C         19.9700    4.6780   16.5120 C.2    27  GLY27       0.2612
     31  O         20.1510    4.9290   17.7150 O.2    27  GLY27      -0.2717
     32  N         18.7760    4.5590   15.9980 N.am   28  ALA28      -0.1965
     33  CA        17.5220    4.7410   16.7080 C.3    28  ALA28       0.1728
     34  C         16.7910    3.3970   16.7300 C.2    28  ALA28       0.2616
     35  O         16.5140    2.8710   15.6430 O.2    28  ALA28      -0.2715
     36  CB        16.6860    5.8140   16.0240 C.3    28  ALA28       0.0334
     37  N         16.4320    2.8600   17.8810 N.am   29  ASP29      -0.1957
     38  CA        15.6510    1.6460   17.8750 C.3    29  ASP29       0.1840
     39  C         14.2540    1.8630   17.2990 C.2    29  ASP29       0.2622
     40  O         13.7030    0.9920   16.6110 O.2    29  ASP29      -0.2715
     41  CB        15.4630    1.1530   19.2930 C.3    29  ASP29       0.1450
     42  CG        16.6790    0.6850   20.0340 C.2    29  ASP29       0.3671
     43  OD1       17.7130    0.3920   19.4230 O.co2  29  ASP29      -0.2456
     44  OD2       16.5800    0.5970   21.2810 O.co2  29  ASP29      -0.2456
     45  N         13.6970    3.0150   17.6350 N.am   30  ASP30      -0.1971
     46  CA        12.3270    3.4220   17.4140 C.3    30  ASP30       0.1709
     47  C         12.2760    4.6950   16.5620 C.2    30  ASP30       0.2293
     48  O         13.3320    5.1840   16.1650 O.2    30  ASP30      -0.2864
     49  CB        11.6120    3.6720   18.7370 C.3    30  ASP30       0.1436
     50  CG        11.7970    2.5260   19.7060 C.2    30  ASP30       0.3671
     51  OD1       11.1750    1.4760   19.4690 O.co2  30  ASP30      -0.2456
     52  OD2       12.5540    2.7130   20.6790 O.co2  30  ASP30      -0.2456
     53  N         10.5120    8.6480   16.0500 N.3    32  ILE32      -0.1245
     54  CA         9.9800    9.7880   16.7740 C.3    32  ILE32       0.1561
     55  C          9.8500   10.9630   15.8220 C.2    32  ILE32       0.2260
     56  O         10.7930   11.3030   15.1140 O.2    32  ILE32      -0.2867
     57  CB        10.9150   10.1680   17.9460 C.3    32  ILE32       0.0252
     58  CG1       11.3310    9.0290   18.8600 C.3    32  ILE32       0.0019
     59  CG2       10.2290   11.2650   18.7330 C.3    32  ILE32       0.0019
     60  CD1       12.4500    9.3330   19.8320 C.3    32  ILE32       0.0001
     61  N         12.2100    8.7970   26.4030 N.3    47  VAL47      -0.1231
     62  CA        13.3820    8.3210   25.6900 C.3    47  VAL47       0.1692
     63  C         14.5540    9.2470   25.9660 C.2    47  VAL47       0.2593
     64  O         14.3800   10.3840   26.3800 O.2    47  VAL47      -0.2718
     65  CB        13.1760    8.2230   24.1790 C.3    47  VAL47       0.0266
     66  CG1       12.0210    7.2740   23.8550 C.3    47  VAL47       0.0020
     67  CG2       12.9320    9.5590   23.5300 C.3    47  VAL47       0.0020
     68  N         15.7530    8.7540   25.7550 N.am   48  GLY48      -0.1942
     69  CA        16.9670    9.4510   26.1200 C.3    48  GLY48       0.2014
     70  C         17.9680    9.3930   24.9940 C.2    48  GLY48       0.2639
     71  O         18.0150    8.4390   24.2150 O.2    48  GLY48      -0.2714
     72  N         18.7860   10.4040   24.8970 N.am   49  GLY49      -0.1939
     73  CA        19.9320   10.4340   24.0140 C.3    49  GLY49       0.2014
     74  C         20.9190   11.4940   24.4490 C.2    49  GLY49       0.2638
     75  O         21.0060   11.8160   25.6370 O.2    49  GLY49      -0.2714
     76  N         21.6500   12.0210   23.4470 N.am   50  ILE50      -0.1977
     77  CA        22.5820   13.1110   23.7790 C.3    50  ILE50       0.1596
     78  C         21.7800   14.3500   24.1900 C.2    50  ILE50       0.2287
     79  O         20.8390   14.8010   23.5460 O.2    50  ILE50      -0.2864
     80  CB        23.5640   13.3840   22.6420 C.3    50  ILE50       0.0276
     81  CG1       24.5350   12.2010   22.4710 C.3    50  ILE50       0.0022
     82  CG2       24.3620   14.6710   22.7880 C.3    50  ILE50       0.0022
     83  CD1       25.3300   12.2010   21.2210 C.3    50  ILE50       0.0001
     84  N          6.4030    7.3260   17.8500 N.3    76  MET76      -0.1245
     85  CA         6.3030    8.2340   18.9690 C.3    76  MET76       0.1570
     86  C          6.1840    9.6600   18.4890 C.2    76  MET76       0.2261
     87  O          6.8490   10.0290   17.5080 O.2    76  MET76      -0.2867
     88  CB         7.5510    8.0870   19.8550 C.3    76  MET76       0.0387
     89  CG         7.4560    6.9520   20.8890 C.3    76  MET76       0.0595
     90  SD         9.0230    6.6750   21.7000 S.3    76  MET76      -0.1393
     91  CE         9.9680    6.0520   20.3230 C.3    76  MET76       0.0692
     92  N         14.0750   17.4270   17.9860 N.3    81  PRO81      -0.2102
     93  CA        14.5320   18.4690   17.0570 C.3    81  PRO81       0.1504
     94  C         14.6150   18.0340   15.5960 C.2    81  PRO81       0.2575
     95  O         14.7310   18.8990   14.7010 O.2    81  PRO81      -0.2718
     96  CB        15.9260   18.8390   17.5730 C.3    81  PRO81       0.0282
     97  CG        16.3830   17.5600   18.2020 C.3    81  PRO81       0.0208
     98  CD        15.1630   16.9300   18.8450 C.3    81  PRO81       0.0893
     99  N         14.5100   16.7400   15.3670 N.am   82  ILE82      -0.1980
    100  CA        14.5560   16.1720   14.0170 C.3    82  ILE82       0.1595
    101  C         13.6370   14.9720   14.0230 C.2    82  ILE82       0.2287
    102  O         13.4710   14.3010   15.0350 O.2    82  ILE82      -0.2864
    103  CB        16.0050   15.8550   13.6180 C.3    82  ILE82       0.0276
    104  CG1       16.1920   15.5080   12.1360 C.3    82  ILE82       0.0022
    105  CG2       16.5630   14.7700   14.5030 C.3    82  ILE82       0.0022
    106  CD1       17.6080   15.6770   11.6560 C.3    82  ILE82       0.0001
    107  N         12.7710   11.2290   13.1320 N.3    84  ILE84      -0.1245
    108  CA        13.6170   10.0470   13.0550 C.3    84  ILE84       0.1561
    109  C         12.7940    8.7970   12.7550 C.2    84  ILE84       0.2260
    110  O         11.8640    8.4910   13.4890 O.2    84  ILE84      -0.2867
    111  CB        14.3580    9.8790   14.3870 C.3    84  ILE84       0.0252
    112  CG1       15.3170   11.0630   14.6490 C.3    84  ILE84       0.0019
    113  CG2       15.1100    8.5600   14.4350 C.3    84  ILE84       0.0019
    114  CD1       15.7690   11.1540   16.0880 C.3    84  ILE84       0.0001
@<TRIPOS>BOND
     1     4     3    2
     2     3     2    1
     3     1     2    1
     4     2     5    1
     5     5     6    1
     6     6     7    1
     7     7     8    1
     8    13    12    1
     9    13    14    1
    10    13    16    1
    11    14    15    2
    12    18    17    1
    13     8     9    2
    14    16    17    1
    15    20    21    1
    16    17    19    1
    17    10     9    1
    18     9    11    1
    19    21    22    1
    20    21    24    1
    21   106   104    1
    22    22    23    2
    23   104   103    1
    24    24    25    1
    25   109   108    1
    26   109   110    2
    27   108   107    1
    28   108   111    1
    29    26    25   ar
    30    25    27   ar
    31   103   100    1
    32   103   105    1
    33   100   101    1
    34   100    99    1
    35   101   102    2
    36    28    29    1
    37   111   113    1
    38   111   112    1
    39   112   114    1
    40    95    94    2
    41    56    55    2
    42    99    94   am
    43    94    93    1
    44    29    30    1
    45    35    34    2
    46    55    54    1
    47    32    30   am
    48    32    33    1
    49    36    33    1
    50    53    54    1
    51    48    47    2
    52    30    31    2
    53    47    46    1
    54    40    39    2
    55    33    34    1
    56    34    37   am
    57    54    57    1
    58    93    96    1
    59    93    92    1
    60    39    45   am
    61    39    38    1
    62    46    45    1
    63    46    49    1
    64    87    86    2
    65    96    97    1
    66    84    85    1
    67    38    37    1
    68    38    41    1
    69    57    59    1
    70    57    58    1
    71    92    98    1
    72    97    98    1
    73    86    85    1
    74    49    50    1
    75    58    60    1
    76    85    88    1
    77    41    42    1
    78    43    42   ar
    79    51    50   ar
    80    50    52   ar
    81    88    89    1
    82    42    44   ar
    83    91    90    1
    84    89    90    1
    85    83    81    1
    86    81    80    1
    87    80    82    1
    88    80    77    1
    89    76    77    1
    90    76    74   am
    91    67    65    1
    92    79    78    2
    93    77    78    1
    94    66    65    1
    95    73    74    1
    96    73    72    1
    97    65    62    1
    98    71    70    2
    99    74    75    2
   100    72    70   am
   101    70    69    1
   102    62    63    1
   103    62    61    1
   104    68    63   am
   105    68    69    1
   106    63    64    2
