@<TRIPOS>MOLECULE
tmp/3ec1A00.pdb
 130 125 0 0 0
SMALL
GASTEIGER

@<TRIPOS>ATOM
      1  N         11.8140    2.8290   -0.0050 N.3    48  ASN48      -0.1225
      2  CA        12.8470    2.9020   -1.0430 C.3    48  ASN48       0.1785
      3  C         13.9430    1.8350   -0.9090 C.2    48  ASN48       0.2597
      4  O         14.0180    1.1350    0.0980 O.2    48  ASN48      -0.2718
      5  CB        13.4630    4.3150   -1.0500 C.3    48  ASN48       0.1169
      6  CG        14.2930    4.5930   -2.2920 C.2    48  ASN48       0.2627
      7  OD1       14.0720    3.9960   -3.3500 O.2    48  ASN48      -0.2716
      8  ND2       15.2550    5.5120   -2.1710 N.am   48  ASN48      -0.0877
      9  N         14.7690    1.7110   -1.9490 N.am   49  LYS49      -0.1980
     10  CA        15.8870    0.7620   -2.0160 C.3    49  LYS49       0.1596
     11  C         15.4980   -0.7090   -2.1970 C.2    49  LYS49       0.2287
     12  O         16.2560   -1.6100   -1.8290 O.2    49  LYS49      -0.2864
     13  CB        16.8150    0.9260   -0.8030 C.3    49  LYS49       0.0298
     14  CG        17.4150    2.3030   -0.6950 C.3    49  LYS49       0.0038
     15  CD        18.2790    2.4530    0.5380 C.3    49  LYS49       0.0206
     16  CE        18.7330    3.9010    0.7070 C.3    49  LYS49       0.1093
     17  NZ        19.4100    4.1230    2.0170 N.3    49  LYS49      -0.1314
     18  N         15.6950   -2.4790   -4.6930 N.3    51  ASP51      -0.1225
     19  CA        16.6120   -3.1770   -5.5920 C.3    51  ASP51       0.1805
     20  C         17.7310   -3.9340   -4.8780 C.2    51  ASP51       0.2597
     21  O         18.4110   -4.7520   -5.4960 O.2    51  ASP51      -0.2718
     22  CB        17.2300   -2.1960   -6.5890 C.3    51  ASP51       0.1424
     23  CG        18.0200   -1.1010   -5.9050 C.2    51  ASP51       0.3668
     24  OD1       17.4230   -0.3890   -5.0700 O.co2  51  ASP51      -0.2456
     25  OD2       19.2330   -0.9610   -6.1930 O.co2  51  ASP51      -0.2456
     26  N         17.9490   -3.6320   -3.6000 N.am   52  LEU52      -0.1979
     27  CA        18.9950   -4.2910   -2.8150 C.3    52  LEU52       0.1596
     28  C         18.4730   -5.5550   -2.1480 C.2    52  LEU52       0.2287
     29  O         19.2400   -6.3550   -1.6220 O.2    52  LEU52      -0.2864
     30  CB        19.5320   -3.3430   -1.7490 C.3    52  LEU52       0.0297
     31  CG        20.1070   -2.0280   -2.2660 C.3    52  LEU52       0.0022
     32  CD1       20.6450   -1.2270   -1.0830 C.3    52  LEU52       0.0001
     33  CD2       21.2130   -2.3010   -3.2940 C.3    52  LEU52       0.0001
     34  N         12.3110    1.6290   -6.1260 N.3    84  SER84      -0.1202
     35  CA        13.7490    1.6850   -6.2080 C.3    84  SER84       0.2020
     36  C         13.9580    2.9670   -6.9850 C.2    84  SER84       0.2619
     37  O         13.8960    2.9750   -8.2100 O.2    84  SER84      -0.2717
     38  CB        14.3350    0.5150   -6.9780 C.3    84  SER84       0.2103
     39  OG        15.7170    0.7640   -7.1700 O.3    84  SER84      -0.2182
     40  N         14.1120    4.0640   -6.2570 N.am   85  ALA85      -0.1965
     41  CA        14.3190    5.3730   -6.8580 C.3    85  ALA85       0.1728
     42  C         15.5330    5.4110   -7.7900 C.2    85  ALA85       0.2616
     43  O         15.5600    6.1780   -8.7510 O.2    85  ALA85      -0.2715
     44  CB        14.4590    6.4230   -5.7650 C.3    85  ALA85       0.0334
     45  N         16.5170    4.5580   -7.5160 N.am   86  ALA86      -0.1977
     46  CA        17.7420    4.4910   -8.3090 C.3    86  ALA86       0.1597
     47  C         17.5920    3.7250   -9.6190 C.2    86  ALA86       0.2287
     48  O         18.1980    4.0920  -10.6250 O.2    86  ALA86      -0.2864
     49  CB        18.8580    3.8730   -7.4800 C.3    86  ALA86       0.0319
     50  N         13.5730   11.5310    6.0930 N.3   112  CYS112     -0.1221
     51  CA        14.8590   11.8220    6.7190 C.3   112  CYS112      0.1808
     52  C         15.9630   11.7430    5.6550 C.2   112  CYS112      0.2602
     53  O         15.6950   11.3950    4.5010 O.2   112  CYS112     -0.2717
     54  CB        15.1520   10.7830    7.8120 C.3   112  CYS112      0.0970
     55  SG        13.9300   10.6770    9.1380 S.3   112  CYS112     -0.0800
     56  N         17.1970   12.0670    6.0420 N.am  113  THR113     -0.1939
     57  CA        18.3370   11.9930    5.1230 C.3   113  THR113      0.2028
     58  C         18.8110   10.5450    4.9890 C.2   113  THR113      0.2642
     59  O         18.5900    9.7410    5.8870 O.2   113  THR113     -0.2714
     60  CB        19.5220   12.8590    5.6020 C.3   113  THR113      0.1808
     61  OG1       19.7180   12.6740    7.0090 O.3   113  THR113     -0.2208
     62  CG2       19.2730   14.3280    5.3010 C.3   113  THR113      0.0379
     63  N         19.4680   10.2370    3.8680 N.am  114  ASN114     -0.1957
     64  CA        19.9940    8.9000    3.5460 C.3   114  ASN114      0.1819
     65  C         18.8850    7.8650    3.3100 C.2   114  ASN114      0.2621
     66  O         19.0690    6.6600    3.5130 O.2   114  ASN114     -0.2715
     67  CB        20.9690    8.4030    4.6220 C.3   114  ASN114      0.1195
     68  CG        22.0940    9.3880    4.8960 C.2   114  ASN114      0.2630
     69  OD1       22.9500    9.6280    4.0410 O.2   114  ASN114     -0.2716
     70  ND2       22.0990    9.9610    6.1000 N.am  114  ASN114     -0.0877
     71  N         17.7410    8.3520    2.8460 N.am  115  VAL115     -0.1963
     72  CA        16.5770    7.5120    2.5710 C.3   115  VAL115      0.1727
     73  C         16.3550    7.3750    1.0600 C.2   115  VAL115      0.2617
     74  O         15.7530    6.4090    0.5900 O.2   115  VAL115     -0.2715
     75  CB        15.3290    8.1210    3.2540 C.3   115  VAL115      0.0290
     76  CG1       14.0830    7.4400    2.7900 C.3   115  VAL115      0.0023
     77  CG2       15.4540    8.0000    4.7700 C.3   115  VAL115      0.0023
     78  N         16.8730    8.3420    0.3070 N.am  116  GLY116     -0.1940
     79  CA        16.7370    8.3320   -1.1370 C.3   116  GLY116      0.2014
     80  C         15.7270    9.3450   -1.6460 C.2   116  GLY116      0.2639
     81  O         15.2680    9.2310   -2.7820 O.2   116  GLY116     -0.2714
     82  N         15.4080   10.3520   -0.8320 N.am  117  LYS117     -0.1963
     83  CA        14.4320   11.3670   -1.2190 C.3   117  LYS117      0.1728
     84  C         14.8250   12.2060   -2.4320 C.2   117  LYS117      0.2617
     85  O         13.9850   12.4840   -3.2900 O.2   117  LYS117     -0.2715
     86  CB        14.0430   12.2770   -0.0370 C.3   117  LYS117      0.0311
     87  CG        12.8870   13.2040   -0.4000 C.3   117  LYS117      0.0038
     88  CD        12.0870   13.7000    0.7920 C.3   117  LYS117      0.0206
     89  CE        12.8680   14.6770    1.6430 C.3   117  LYS117      0.1093
     90  NZ        13.5720   15.7310    0.8230 N.3   117  LYS117     -0.1314
     91  N         16.0960   12.5860   -2.5140 N.am  118  SER118     -0.1936
     92  CA        16.5990   13.3840   -3.6280 C.3   118  SER118      0.2055
     93  C         16.6070   12.6000   -4.9360 C.2   118  SER118      0.2643
     94  O         16.3160   13.1460   -5.9940 O.2   118  SER118     -0.2714
     95  CB        18.0030   13.8940   -3.3220 C.3   118  SER118      0.2130
     96  OG        17.9760   14.7730   -2.2140 O.3   118  SER118     -0.2179
     97  N         16.9470   11.3200   -4.8610 N.am  119  THR119     -0.1950
     98  CA        16.9800   10.4820   -6.0480 C.3   119  THR119      0.1897
     99  C         15.5420   10.2780   -6.5230 C.2   119  THR119      0.2313
    100  O         15.2500   10.3510   -7.7100 O.2   119  THR119     -0.2863
    101  CB        17.6370    9.1330   -5.7370 C.3   119  THR119      0.1794
    102  OG1       18.8350    9.3600   -4.9860 O.3   119  THR119     -0.2208
    103  CG2       17.9980    8.4090   -7.0210 C.3   119  THR119      0.0378
    104  N         15.1360   17.6110    2.8090 N.3   163  GLY163     -0.1225
    105  CA        15.5440   16.2280    2.9450 C.3   163  GLY163      0.1811
    106  C         16.1850   15.9910    4.2720 C.2   163  GLY163      0.2280
    107  O         16.3900   14.8630    4.7070 O.2   163  GLY163     -0.2866
    108  N         26.8490    0.3690    2.6960 N.3   183  THR183     -0.1204
    109  CA        25.9090    0.5000    1.5870 C.3   183  THR183      0.1979
    110  C         26.1750   -0.5240    0.4770 C.2   183  THR183      0.2460
    111  O         27.2870   -0.6260   -0.0460 O.2   183  THR183     -0.2732
    112  CB        25.9500    1.9440    1.0040 C.3   183  THR183      0.1783
    113  OG1       25.0060    2.7670    1.7020 O.3   183  THR183     -0.2211
    114  CG2       25.6510    1.9640   -0.5030 C.3   183  THR183      0.0376
    115  N         25.1570   -1.3280    0.1360 N.am  184  PRO184     -0.2717
    116  CA        25.2890   -2.3410   -0.9140 C.3   184  PRO184      0.1535
    117  C         25.2160   -1.7250   -2.3110 C.2   184  PRO184      0.2598
    118  O         24.4720   -0.7690   -2.5440 O.2   184  PRO184     -0.2715
    119  CB        24.0800   -3.2500   -0.6660 C.3   184  PRO184      0.0310
    120  CG        23.7250   -3.0040    0.7700 C.3   184  PRO184      0.0237
    121  CD        23.9120   -1.5250    0.8890 C.3   184  PRO184      0.0939
    122  N         26.0100   -2.2610   -3.2300 N.am  185  LYS185     -0.1978
    123  CA        26.0100   -1.7860   -4.6060 C.3   185  LYS185      0.1596
    124  C         24.9120   -2.5140   -5.3760 C.2   185  LYS185      0.2287
    125  O         24.2720   -1.9400   -6.2600 O.2   185  LYS185     -0.2864
    126  CB        27.3680   -2.0510   -5.2720 C.3   185  LYS185      0.0298
    127  CG        28.4600   -1.0440   -4.9150 C.3   185  LYS185      0.0038
    128  CD        29.6740   -1.7050   -4.2650 C.3   185  LYS185      0.0206
    129  CE        30.3630   -2.7130   -5.1900 C.3   185  LYS185      0.1093
    130  NZ        30.9580   -2.1080   -6.4210 N.3   185  LYS185     -0.1314
@<TRIPOS>BOND
     1    48    47    2
     2    47    46    1
     3    43    42    2
     4    46    45    1
     5    46    49    1
     6    37    36    2
     7    42    45   am
     8    42    41    1
     9   100    99    2
    10    39    38    1
    11   103   101    1
    12    36    40   am
    13    36    35    1
    14    38    35    1
    15    41    40    1
    16    41    44    1
    17    22    23    1
    18    22    19    1
    19    99    98    1
    20   130   129    1
    21   125   124    2
    22    35    34    1
    23    25    23   ar
    24    98   101    1
    25    98    97    1
    26    94    93    2
    27    23    24   ar
    28   101   102    1
    29    19    20    1
    30    19    18    1
    31    21    20    2
    32   124   123    1
    33   126   127    1
    34   126   123    1
    35   129   128    1
    36    93    97   am
    37    93    92    1
    38   127   128    1
    39    20    26   am
    40   123   122    1
    41    92    95    1
    42    92    91    1
    43    26    27    1
    44     7     6    2
    45    95    96    1
    46    33    31    1
    47    85    84    2
    48   122   117   am
    49    27    28    1
    50    27    30    1
    51    81    80    2
    52   118   117    2
    53    91    84   am
    54    84    83    1
    55   117   116    1
    56     6     8   am
    57     6     5    1
    58    31    30    1
    59    31    32    1
    60    11    10    1
    61    11    12    2
    62    28    29    2
    63    10     9    1
    64    10    13    1
    65     9     3   am
    66    80    79    1
    67    80    82   am
    68    83    82    1
    69    83    86    1
    70    79    78    1
    71     5     2    1
    72     2     3    1
    73     2     1    1
    74   116   119    1
    75   116   115    1
    76     3     4    2
    77    13    14    1
    78    14    15    1
    79   119   120    1
    80   114   112    1
    81    87    86    1
    82    87    88    1
    83   111   110    2
    84   115   110   am
    85   115   121    1
    86    78    73   am
    87   110   109    1
    88    15    16    1
    89    74    73    2
    90    16    17    1
    91   120   121    1
    92    88    89    1
    93    90    89    1
    94   112   109    1
    95   112   113    1
    96    73    72    1
    97   109   108    1
    98    72    71    1
    99    72    75    1
   100    76    75    1
   101   104   105    1
   102    71    65   am
   103   105   106    1
   104    75    77    1
   105    65    66    2
   106    65    64    1
   107    64    63    1
   108    64    67    1
   109    63    58   am
   110    69    68    2
   111   106   107    2
   112    53    52    2
   113    67    68    1
   114    68    70   am
   115    58    57    1
   116    58    59    2
   117    57    60    1
   118    57    56    1
   119    62    60    1
   120    60    61    1
   121    52    56   am
   122    52    51    1
   123    50    51    1
   124    51    54    1
   125    54    55    1
