@<TRIPOS>MOLECULE
tmp/3ec5A01.pdb
 92 86 0 0 0
SMALL
GASTEIGER

@<TRIPOS>ATOM
      1  N          6.3660    9.0510    3.5670 N.3   133  TYR133     -0.1241
      2  CA         7.0080    7.8040    3.2110 C.3   133  TYR133      0.1605
      3  C          6.3230    6.6600    3.9770 C.2   133  TYR133      0.2264
      4  O          6.4990    6.5240    5.1810 O.2   133  TYR133     -0.2867
      5  CB         8.5050    7.9000    3.5380 C.3   133  TYR133      0.0534
      6  CG         9.3730    6.7010    3.2220 C.ar  133  TYR133     -0.0201
      7  CD1        9.0830    5.8410    2.1680 C.ar  133  TYR133     -0.0009
      8  CD2       10.5220    6.4530    3.9560 C.ar  133  TYR133     -0.0009
      9  CE1        9.8970    4.7500    1.8850 C.ar  133  TYR133      0.0417
     10  CE2       11.3520    5.3750    3.6700 C.ar  133  TYR133      0.0417
     11  CZ        11.0360    4.5330    2.6390 C.ar  133  TYR133      0.1957
     12  OH        11.8580    3.4730    2.3690 O.3   133  TYR133     -0.2866
     13  N          6.5410    0.2420   -0.8380 N.3   141  SER141     -0.1217
     14  CA         6.5010    1.5840   -0.2650 C.3   141  SER141      0.1889
     15  C          6.0910    2.6430   -1.2710 C.2   141  SER141      0.2288
     16  O          6.1630    2.4630   -2.4980 O.2   141  SER141     -0.2866
     17  CB         7.8560    1.9640    0.3380 C.3   141  SER141      0.2089
     18  OG         8.8500    2.0920   -0.6510 O.3   141  SER141     -0.2183
     19  N          6.7880    6.9330   -1.6390 N.3   143  TYR143     -0.1241
     20  CA         7.4900    8.0940   -1.1610 C.3   143  TYR143      0.1605
     21  C          7.0370    9.2710   -1.9910 C.2   143  TYR143      0.2264
     22  O          7.0410    9.2040   -3.2300 O.2   143  TYR143     -0.2867
     23  CB         8.9960    7.8680   -1.3060 C.3   143  TYR143      0.0534
     24  CG         9.8600    9.0770   -1.1030 C.ar  143  TYR143     -0.0201
     25  CD1       10.2670    9.8420   -2.1910 C.ar  143  TYR143     -0.0009
     26  CD2       10.3100    9.4510    0.1700 C.ar  143  TYR143     -0.0009
     27  CE1       11.0590   10.9530   -2.0320 C.ar  143  TYR143      0.0417
     28  CE2       11.1280   10.5780    0.3320 C.ar  143  TYR143      0.0417
     29  CZ        11.4950   11.3130   -0.7820 C.ar  143  TYR143      0.1957
     30  OH        12.3120   12.4150   -0.6710 O.3   143  TYR143     -0.2866
     31  N          9.0630   14.9870   -6.0700 N.3   154  GLU154     -0.1245
     32  CA         9.6890   13.6740   -6.2040 C.3   154  GLU154      0.1567
     33  C          8.7050   12.6010   -5.7410 C.2   154  GLU154      0.2260
     34  O          7.9680   12.7940   -4.7730 O.2   154  GLU154     -0.2867
     35  CB        10.9880   13.6470   -5.3870 C.3   154  GLU154      0.0388
     36  CG        11.9440   12.5430   -5.7480 C.3   154  GLU154      0.1160
     37  CD        13.1570   12.5070   -4.8400 C.2   154  GLU154      0.3649
     38  OE1       14.1560   11.8650   -5.2210 O.co2 154  GLU154     -0.2457
     39  OE2       13.1290   13.1310   -3.7570 O.co2 154  GLU154     -0.2457
     40  N          8.3140    8.1160   -5.5940 N.3   156  LYS156     -0.1245
     41  CA         8.7020    6.7480   -5.8790 C.3   156  LYS156      0.1561
     42  C          7.6700    5.7880   -5.3370 C.2   156  LYS156      0.2260
     43  O          7.3940    5.7810   -4.1540 O.2   156  LYS156     -0.2867
     44  CB        10.0640    6.4350   -5.2720 C.3   156  LYS156      0.0271
     45  CG        10.7160    5.2200   -5.8630 C.3   156  LYS156      0.0035
     46  CD        11.9050    4.7720   -5.0820 C.3   156  LYS156      0.0206
     47  CE        13.0950    5.6860   -5.2430 C.3   156  LYS156      0.1093
     48  NZ        14.3010    5.2310   -4.4470 N.3   156  LYS156     -0.1314
     49  N          7.2400    1.7940   -4.9950 N.3   158  THR158     -0.1218
     50  CA         7.9180    0.5100   -5.0490 C.3   158  THR158      0.1862
     51  C          6.9490   -0.5950   -4.6640 C.2   158  THR158      0.2287
     52  O          6.2690   -0.5160   -3.6450 O.2   158  THR158     -0.2866
     53  CB         9.1850    0.5210   -4.1490 C.3   158  THR158      0.1770
     54  OG1        9.9860    1.6580   -4.4990 O.3   158  THR158     -0.2211
     55  CG2        9.9920   -0.7450   -4.3210 C.3   158  THR158      0.0375
     56  N          9.4410   -0.7030   -9.5990 N.3   164  SER164     -0.1217
     57  CA         9.1940    0.6470   -9.0990 C.3   164  SER164      0.1889
     58  C          9.0660    1.6760  -10.2030 C.2   164  SER164      0.2288
     59  O          9.6020    1.4980  -11.3040 O.2   164  SER164     -0.2866
     60  CB        10.3000    1.0900   -8.1330 C.3   164  SER164      0.2089
     61  OG        11.5370    1.3250   -8.7780 O.3   164  SER164     -0.2183
     62  N          9.9260    5.7280  -10.4420 N.3   166  TYR166     -0.1241
     63  CA        10.5290    6.9150   -9.8430 C.3   166  TYR166      0.1605
     64  C         10.3100    8.1150  -10.7600 C.2   166  TYR166      0.2264
     65  O         10.6400    8.0410  -11.9440 O.2   166  TYR166     -0.2867
     66  CB        12.0300    6.6980   -9.6170 C.3   166  TYR166      0.0534
     67  CG        12.7160    7.9380   -9.1180 C.ar  166  TYR166     -0.0201
     68  CD1       12.5290    8.3640   -7.8070 C.ar  166  TYR166     -0.0009
     69  CD2       13.5110    8.7230   -9.9620 C.ar  166  TYR166     -0.0009
     70  CE1       13.1250    9.5230   -7.3370 C.ar  166  TYR166      0.0417
     71  CE2       14.1300    9.8870   -9.4930 C.ar  166  TYR166      0.0417
     72  CZ        13.9220   10.2820   -8.1790 C.ar  166  TYR166      0.1957
     73  OH        14.5160   11.4310   -7.6820 O.3   166  TYR166     -0.2866
     74  N         11.9780    6.9980  -14.1670 N.3   179  TYR179     -0.1241
     75  CA        12.6050    5.7000  -14.2190 C.3   179  TYR179      0.1605
     76  C         11.5900    4.6100  -13.8770 C.2   179  TYR179      0.2264
     77  O         10.9590    4.6440  -12.8240 O.2   179  TYR179     -0.2867
     78  CB        13.7590    5.6270  -13.2300 C.3   179  TYR179      0.0534
     79  CG        14.9670    6.4740  -13.5360 C.ar  179  TYR179     -0.0201
     80  CD1       16.0210    6.5190  -12.6370 C.ar  179  TYR179     -0.0009
     81  CD2       15.0820    7.2190  -14.7060 C.ar  179  TYR179     -0.0009
     82  CE1       17.1570    7.2760  -12.8850 C.ar  179  TYR179      0.0417
     83  CE2       16.2240    7.9820  -14.9630 C.ar  179  TYR179      0.0417
     84  CZ        17.2570    7.9980  -14.0410 C.ar  179  TYR179      0.1957
     85  OH        18.4050    8.7330  -14.2660 O.3   179  TYR179     -0.2866
     86  N         11.5920    0.7940  -13.1300 N.3   181  THR181     -0.1218
     87  CA        12.4020   -0.3880  -12.8690 C.3   181  THR181      0.1862
     88  C         11.5210   -1.6090  -12.8150 C.2   181  THR181      0.2287
     89  O         10.5520   -1.6420  -12.0780 O.2   181  THR181     -0.2866
     90  CB        13.1760   -0.2810  -11.5610 C.3   181  THR181      0.1770
     91  OG1       14.1010    0.8150  -11.6510 O.3   181  THR181     -0.2211
     92  CG2       13.9370   -1.5690  -11.3190 C.3   181  THR181      0.0375
@<TRIPOS>BOND
     1    83    81   ar
     2    83    84   ar
     3    81    79   ar
     4    85    84    1
     5    75    74    1
     6    75    76    1
     7    75    78    1
     8    84    82   ar
     9    76    77    2
    10    79    78    1
    11    79    80   ar
    12    86    87    1
    13    82    80   ar
    14    87    88    1
    15    87    90    1
    16    88    89    2
    17    65    64    2
    18    91    90    1
    19    90    92    1
    20    59    58    2
    21    64    63    1
    22    62    63    1
    23    58    57    1
    24    69    71   ar
    25    69    67   ar
    26    63    66    1
    27    66    67    1
    28    56    57    1
    29    71    72   ar
    30    67    68   ar
    31    57    60    1
    32    61    60    1
    33    72    73    1
    34    72    70   ar
    35    68    70   ar
    36    32    31    1
    37    32    33    1
    38    32    35    1
    39    41    40    1
    40    41    42    1
    41    41    44    1
    42    45    44    1
    43    45    46    1
    44    36    35    1
    45    36    37    1
    46    33    34    2
    47    42    43    2
    48    47    46    1
    49    47    48    1
    50    38    37   ar
    51    50    49    1
    52    50    51    1
    53    50    53    1
    54    37    39   ar
    55    51    52    2
    56    54    53    1
    57    55    53    1
    58    22    21    2
    59    16    15    2
    60    25    27   ar
    61    25    24   ar
    62    27    29   ar
    63    21    20    1
    64    19    20    1
    65    23    20    1
    66    23    24    1
    67    15    14    1
    68    24    26   ar
    69    13    14    1
    70    29    30    1
    71    29    28   ar
    72    18    17    1
    73    14    17    1
    74    26    28   ar
    75     9     7   ar
    76     9    11   ar
    77     7     6   ar
    78    12    11    1
    79    11    10   ar
    80     2     5    1
    81     2     1    1
    82     2     3    1
    83     6     5    1
    84     6     8   ar
    85    10     8   ar
    86     3     4    2
