@<TRIPOS>MOLECULE
tmp/3ec5A00.pdb
 94 87 0 0 0
SMALL
GASTEIGER

@<TRIPOS>ATOM
      1  N          9.7310   -0.3490   24.0320 N.3    10  GLY10      -0.1210
      2  CA        10.4460    0.7590   23.4450 C.3    10  GLY10       0.1956
      3  C         11.9340    0.6500   23.6890 C.2    10  GLY10       0.2613
      4  O         12.6440    1.6550   23.6380 O.2    10  GLY10      -0.2717
      5  N         12.3950   -0.5620   23.9620 N.am   11  SER11      -0.1938
      6  CA        13.8070   -0.8130   24.2270 C.3    11  SER11       0.2055
      7  C         14.3620    0.0820   25.3460 C.2    11  SER11       0.2642
      8  O         15.4200    0.7100   25.2060 O.2    11  SER11      -0.2714
      9  CB        14.6190   -0.6790   22.9450 C.3    11  SER11       0.2130
     10  OG        14.5200   -1.8730   22.1860 O.3    11  SER11      -0.2179
     11  N         13.6240    0.1140   26.4500 N.am   12  MET12      -0.1976
     12  CA        14.0100    0.7760   27.6860 C.3    12  MET12       0.1605
     13  C         13.9800   -0.2420   28.8270 C.2    12  MET12       0.2287
     14  O         13.2940   -1.2660   28.7450 O.2    12  MET12      -0.2864
     15  CB        13.0370    1.9120   27.9940 C.3    12  MET12       0.0413
     16  CG        13.1230    3.0440   27.0000 C.3    12  MET12       0.0598
     17  SD        12.0140    4.3860   27.3190 S.3    12  MET12      -0.1393
     18  CE        10.4640    3.6690   26.8240 C.3    12  MET12       0.0692
     19  N         17.2800    6.7720   29.8020 N.3    32  VAL32      -0.1231
     20  CA        16.7150    6.7500   28.4570 C.3    32  VAL32       0.1692
     21  C         17.4710    7.7340   27.5750 C.2    32  VAL32       0.2592
     22  O         17.5250    8.9360   27.8500 O.2    32  VAL32      -0.2718
     23  CB        15.2300    7.1040   28.4670 C.3    32  VAL32       0.0266
     24  CG1       14.6180    6.9270   27.0730 C.3    32  VAL32       0.0020
     25  CG2       14.4920    6.2570   29.4870 C.3    32  VAL32       0.0020
     26  N         18.0760    7.1930   26.5360 N.am   33  ASP33      -0.1974
     27  CA        19.0350    7.9200   25.7430 C.3    33  ASP33       0.1709
     28  C         19.9790    8.7700   26.6030 C.2    33  ASP33       0.2293
     29  O         20.0850    9.9590   26.4220 O.2    33  ASP33      -0.2864
     30  CB        18.3090    8.7510   24.7030 C.3    33  ASP33       0.1436
     31  CG        19.1400    8.9780   23.4510 C.2    33  ASP33       0.3671
     32  OD1       20.1080    8.2210   23.2050 O.co2  33  ASP33      -0.2456
     33  OD2       18.8190    9.9230   22.7080 O.co2  33  ASP33      -0.2456
     34  N          6.8970    8.5570   26.4940 N.3    73  LEU73      -0.1245
     35  CA         8.0000    9.4260   26.8080 C.3    73  LEU73       0.1561
     36  C          7.7120   10.8090   26.2040 C.2    73  LEU73       0.2260
     37  O          7.6760   10.9850   24.9810 O.2    73  LEU73      -0.2867
     38  CB         9.2880    8.8310   26.2400 C.3    73  LEU73       0.0270
     39  CG        10.6390    9.4930   26.4610 C.3    73  LEU73       0.0019
     40  CD1       11.0330    9.4350   27.9280 C.3    73  LEU73       0.0001
     41  CD2       11.6830    8.8360   25.5770 C.3    73  LEU73       0.0001
     42  N          6.8240   10.0570   22.4320 N.3    87  LYS87      -0.1245
     43  CA         6.9750    8.7330   21.8640 C.3    87  LYS87       0.1561
     44  C          6.1450    7.7630   22.6860 C.2    87  LYS87       0.2260
     45  O          6.3880    7.6420   23.8910 O.2    87  LYS87      -0.2867
     46  CB         8.4260    8.2980   21.9280 C.3    87  LYS87       0.0271
     47  CG         8.6820    7.0460   21.1520 C.3    87  LYS87       0.0035
     48  CD        10.1750    6.8020   21.0640 C.3    87  LYS87       0.0206
     49  CE        10.4880    5.6600   20.1190 C.3    87  LYS87       0.1093
     50  NZ        11.9560    5.4220   20.0230 N.3    87  LYS87      -0.1314
     51  N          5.0840    3.7310   22.8230 N.3    89  THR89      -0.1218
     52  CA         5.3540    2.3950   22.3130 C.3    89  THR89       0.1862
     53  C          4.5320    1.3770   23.0840 C.2    89  THR89       0.2287
     54  O          4.3220    1.5280   24.2960 O.2    89  THR89      -0.2866
     55  CB         6.8360    2.0320   22.4840 C.3    89  THR89       0.1770
     56  OG1        7.6410    3.0550   21.8980 O.3    89  THR89      -0.2211
     57  CG2        7.1400    0.6990   21.8390 C.3    89  THR89       0.0375
     58  N          4.7460    1.7370   17.6000 N.3    95  SER95      -0.1217
     59  CA         5.1110    2.9630   18.2820 C.3    95  SER95       0.1889
     60  C          4.8640    4.1620   17.4220 C.2    95  SER95       0.2288
     61  O          4.9850    4.0870   16.2100 O.2    95  SER95      -0.2866
     62  CB         6.5790    2.9300   18.7190 C.3    95  SER95       0.2089
     63  OG         7.4230    3.2560   17.6350 O.3    95  SER95      -0.2183
     64  N          5.9240    8.3060   17.1550 N.3    97  TYR97      -0.1241
     65  CA         6.8690    9.3330   17.5630 C.3    97  TYR97       0.1605
     66  C          6.4410   10.6200   16.8900 C.2    97  TYR97       0.2264
     67  O          6.2380   10.6370   15.6800 O.2    97  TYR97      -0.2867
     68  CB         8.2670    8.9590   17.1010 C.3    97  TYR97       0.0534
     69  CG         9.3510    9.9370   17.4530 C.ar   97  TYR97      -0.0201
     70  CD1        9.8060   10.0600   18.7640 C.ar   97  TYR97      -0.0009
     71  CD2        9.9490   10.7250   16.4720 C.ar   97  TYR97      -0.0009
     72  CE1       10.8160   10.9490   19.0900 C.ar   97  TYR97       0.0417
     73  CE2       10.9550   11.6150   16.7900 C.ar   97  TYR97       0.0417
     74  CZ        11.3870   11.7160   18.0950 C.ar   97  TYR97       0.1957
     75  OH        12.3950   12.5870   18.4020 O.3    97  TYR97      -0.2866
     76  N          5.8340    9.7600   12.9650 N.3   110  TYR110     -0.1241
     77  CA         6.4220    8.4960   12.5120 C.3   110  TYR110      0.1605
     78  C          5.7970    7.3720   13.3310 C.2   110  TYR110      0.2264
     79  O          5.9610    7.3370   14.5510 O.2   110  TYR110     -0.2867
     80  CB         7.9460    8.5400   12.6670 C.3   110  TYR110      0.0534
     81  CG         8.6840    7.2730   12.3160 C.ar  110  TYR110     -0.0201
     82  CD1        9.7470    6.8360   13.0920 C.ar  110  TYR110     -0.0009
     83  CD2        8.3300    6.5050   11.2170 C.ar  110  TYR110     -0.0009
     84  CE1       10.4370    5.6610   12.7810 C.ar  110  TYR110      0.0417
     85  CE2        9.0200    5.3290   10.8920 C.ar  110  TYR110      0.0417
     86  CZ        10.0740    4.9240   11.6800 C.ar  110  TYR110      0.1957
     87  OH        10.7690    3.7670   11.3970 O.3   110  TYR110     -0.2866
     88  N          5.6610    3.1810   13.6070 N.3   112  THR112     -0.1218
     89  CA         6.2430    1.9130   13.1690 C.3   112  THR112      0.1862
     90  C          5.5070    0.8270   13.8770 C.2   112  THR112      0.2287
     91  O          5.3220    0.9150   15.0850 O.2   112  THR112     -0.2866
     92  CB         7.7420    1.7920   13.5000 C.3   112  THR112      0.1770
     93  OG1        7.9450    1.8490   14.9120 O.3   112  THR112     -0.2211
     94  CG2        8.4890    2.9090   12.8760 C.3   112  THR112      0.0375
@<TRIPOS>BOND
     1    85    83   ar
     2    85    86   ar
     3    83    81   ar
     4    87    86    1
     5    86    84   ar
     6    81    80    1
     7    81    82   ar
     8    77    80    1
     9    77    76    1
    10    77    78    1
    11    84    82   ar
    12    94    92    1
    13    89    92    1
    14    89    88    1
    15    89    90    1
    16    78    79    2
    17    92    93    1
    18    90    91    2
    19    67    66    2
    20    61    60    2
    21    71    73   ar
    22    71    69   ar
    23    73    74   ar
    24    66    65    1
    25    68    69    1
    26    68    65    1
    27    64    65    1
    28    60    59    1
    29    69    70   ar
    30    58    59    1
    31    63    62    1
    32    74    75    1
    33    74    72   ar
    34    59    62    1
    35    70    72   ar
    36    50    49    1
    37    49    48    1
    38    48    47    1
    39    47    46    1
    40    57    55    1
    41    43    46    1
    42    43    42    1
    43    43    44    1
    44    56    55    1
    45    10     9    1
    46    52    55    1
    47    52    51    1
    48    52    53    1
    49    44    45    2
    50    33    31   ar
    51     9     6    1
    52    53    54    2
    53    32    31   ar
    54     2     3    1
    55     2     1    1
    56    31    30    1
    57     4     3    2
    58     3     5   am
    59     5     6    1
    60     6     7    1
    61    30    27    1
    62    37    36    2
    63     8     7    2
    64     7    11   am
    65    41    39    1
    66    27    26    1
    67    27    28    1
    68    36    35    1
    69    38    39    1
    70    38    35    1
    71    29    28    2
    72    11    12    1
    73    39    40    1
    74    34    35    1
    75    26    21   am
    76    18    17    1
    77    16    17    1
    78    16    15    1
    79    24    23    1
    80    21    22    2
    81    21    20    1
    82    12    15    1
    83    12    13    1
    84    20    23    1
    85    20    19    1
    86    23    25    1
    87    14    13    2
