@<TRIPOS>MOLECULE
tmp/3ec6A00.pdb
 114 108 0 0 0
SMALL
GASTEIGER

@<TRIPOS>ATOM
      1  N         -8.8130   42.8310   23.2180 N.3    59  HIS59      -0.1241
      2  CA        -9.3280   41.9140   24.2350 C.3    59  HIS59       0.1621
      3  C         -9.1790   40.5100   23.6480 C.2    59  HIS59       0.2264
      4  O         -9.4100   40.3040   22.4530 O.2    59  HIS59      -0.2867
      5  CB       -10.7910   42.2550   24.4920 C.3    59  HIS59       0.0745
      6  CG       -11.4270   41.4290   25.5560 C.ar   59  HIS59       0.0817
      7  ND1      -11.9680   40.1830   25.2800 N.ar   59  HIS59      -0.2268
      8  CD2      -11.5350   41.6120   26.8890 C.ar   59  HIS59       0.1154
      9  CE1      -12.4430   39.6660   26.4000 C.ar   59  HIS59       0.1986
     10  NE2      -12.1970   40.5090   27.3970 N.ar   59  HIS59      -0.2212
     11  N        -10.9880   27.9320   25.8440 N.3    64  ARG64      -0.1245
     12  CA       -12.1730   27.0780   25.8270 C.3    64  ARG64       0.1563
     13  C        -12.2800   26.2870   24.5230 C.2    64  ARG64       0.2260
     14  O        -11.7660   26.7240   23.4800 O.2    64  ARG64      -0.2867
     15  CB       -13.4340   27.9320   26.1450 C.3    64  ARG64       0.0307
     16  CG       -14.4030   28.0520   25.0010 C.3    64  ARG64       0.0489
     17  CD       -15.7570   28.5980   25.4920 C.3    64  ARG64       0.2205
     18  NE       -16.8110   27.6650   25.1340 N.pl3  64  ARG64      -0.0865
     19  CZ       -17.2300   26.7090   25.9550 C.cat  64  ARG64       0.5346
     20  NH1      -18.1740   25.8590   25.5800 N.pl3  64  ARG64       0.1354
     21  NH2      -16.7020   26.6250   27.1620 N.pl3  64  ARG64       0.1354
     22  N        -19.5790   23.6300   28.8220 N.3    66  LEU66      -0.1245
     23  CA       -19.7350   25.0190   29.2830 C.3    66  LEU66       0.1561
     24  C        -18.7830   25.3900   30.4210 C.2    66  LEU66       0.2260
     25  O        -18.4560   26.5730   30.6010 O.2    66  LEU66      -0.2867
     26  CB       -21.1960   25.3310   29.6840 C.3    66  LEU66       0.0270
     27  CG       -22.3360   25.0890   28.6860 C.3    66  LEU66       0.0019
     28  CD1      -23.6920   25.3520   29.3380 C.3    66  LEU66       0.0001
     29  CD2      -22.1740   25.9390   27.4350 C.3    66  LEU66       0.0001
     30  N        -15.4390   24.6270   31.0710 N.3    68  GLU68      -0.1245
     31  CA       -14.0070   24.5860   30.8400 C.3    68  GLU68       0.1567
     32  C        -13.4020   25.8910   31.3520 C.2    68  GLU68       0.2260
     33  O        -14.0430   26.9320   31.2890 O.2    68  GLU68      -0.2867
     34  CB       -13.7540   24.5300   29.3330 C.3    68  GLU68       0.0388
     35  CG       -14.3720   23.3020   28.6410 C.3    68  GLU68       0.1160
     36  CD       -14.5680   23.4740   27.1270 C.2    68  GLU68       0.3649
     37  OE1      -14.5270   24.6100   26.6020 O.co2  68  GLU68      -0.2457
     38  OE2      -14.7760   22.4430   26.4470 O.co2  68  GLU68      -0.2457
     39  N        -10.8260   29.1510   31.2700 N.3    70  TYR70      -0.1241
     40  CA       -10.2530   29.9770   30.2320 C.3    70  TYR70       0.1605
     41  C         -9.7790   31.2920   30.7840 C.2    70  TYR70       0.2264
     42  O         -9.9990   31.6000   31.9730 O.2    70  TYR70      -0.2867
     43  CB       -11.2380   30.2140   29.0890 C.3    70  TYR70       0.0534
     44  CG       -12.4970   30.9610   29.4680 C.ar   70  TYR70      -0.0201
     45  CD1      -12.6480   32.3070   29.1520 C.ar   70  TYR70      -0.0009
     46  CD2      -13.5740   30.2800   30.0750 C.ar   70  TYR70      -0.0009
     47  CE1      -13.8320   32.9960   29.5070 C.ar   70  TYR70       0.0417
     48  CE2      -14.7540   30.9340   30.4200 C.ar   70  TYR70       0.0417
     49  CZ       -14.8730   32.2920   30.0890 C.ar   70  TYR70       0.1957
     50  OH       -16.0440   32.9540   30.4100 O.3    70  TYR70      -0.2866
     51  N         -9.2570   35.7230   30.0410 N.3    72  GLU72      -0.1245
     52  CA        -9.5740   36.9230   29.2750 C.3    72  GLU72       0.1567
     53  C         -8.3770   37.8230   29.4490 C.2    72  GLU72       0.2260
     54  O         -7.8430   37.9420   30.5600 O.2    72  GLU72      -0.2867
     55  CB       -10.7080   37.7120   29.9280 C.3    72  GLU72       0.0388
     56  CG       -12.0250   37.1700   29.8380 C.3    72  GLU72       0.1160
     57  CD       -13.0150   38.2530   30.3420 C.2    72  GLU72       0.3649
     58  OE1      -12.8720   39.4590   29.9850 O.co2  72  GLU72      -0.2457
     59  OE2      -13.9260   37.8720   31.0940 O.co2  72  GLU72      -0.2457
     60  N         -6.7960   41.7150   28.6370 N.3    74  GLU74      -0.1245
     61  CA        -6.9060   43.1150   28.1720 C.3    74  GLU74       0.1567
     62  C         -5.5110   43.6930   28.0400 C.2    74  GLU74       0.2260
     63  O         -4.6760   43.5320   28.9270 O.2    74  GLU74      -0.2867
     64  CB        -7.6440   43.9980   29.1820 C.3    74  GLU74       0.0388
     65  CG        -9.0560   43.5310   29.5350 C.3    74  GLU74       0.1160
     66  CD        -9.6120   44.2530   30.7490 C.2    74  GLU74       0.3649
     67  OE1       -9.0110   45.2380   31.2360 O.co2  74  GLU74      -0.2457
     68  OE2      -10.6630   43.8310   31.2440 O.co2  74  GLU74      -0.2457
     69  N         -7.5210   37.8400   33.3590 N.3   117  TYR117     -0.1241
     70  CA        -8.5090   37.2540   34.2560 C.3   117  TYR117      0.1605
     71  C         -8.5430   35.7480   34.0300 C.2   117  TYR117      0.2264
     72  O         -8.5290   35.2900   32.8960 O.2   117  TYR117     -0.2867
     73  CB        -9.9220   37.7820   33.9230 C.3   117  TYR117      0.0534
     74  CG       -10.0600   39.2390   34.1390 C.ar  117  TYR117     -0.0201
     75  CD1      -10.2840   39.7400   35.4240 C.ar  117  TYR117     -0.0009
     76  CD2       -9.9490   40.1270   33.0730 C.ar  117  TYR117     -0.0009
     77  CE1      -10.3980   41.1060   35.6540 C.ar  117  TYR117      0.0417
     78  CE2      -10.0660   41.5290   33.2980 C.ar  117  TYR117      0.0417
     79  CZ       -10.2850   41.9840   34.6000 C.ar  117  TYR117      0.1957
     80  OH       -10.3970   43.3390   34.8560 O.3   117  TYR117     -0.2866
     81  N        -10.7770   32.4390   34.4920 N.3   119  ILE119     -0.1227
     82  CA       -12.2000   32.1240   34.6840 C.3   119  ILE119      0.1732
     83  C        -12.3440   30.6180   34.8470 C.2   119  ILE119      0.2595
     84  O        -12.1110   29.8420   33.9000 O.2   119  ILE119     -0.2718
     85  CB       -13.0170   32.7080   33.5170 C.3   119  ILE119      0.0485
     86  CG1      -12.7580   34.2230   33.4630 C.2   119  ILE119     -0.0245
     87  CG2      -14.5140   32.3480   33.6230 C.3   119  ILE119      0.0067
     88  CD1      -12.7290   34.7600   32.2140 C.2   119  ILE119     -0.0049
     89  N        -12.6570   30.2570   36.0910 N.am  120  ASP120     -0.1974
     90  CA       -12.9000   28.9110   36.6500 C.3   120  ASP120      0.1709
     91  C        -11.7960   28.2760   37.4700 C.2   120  ASP120      0.2293
     92  O        -11.8270   28.3730   38.6990 O.2   120  ASP120     -0.2864
     93  CB       -13.5510   27.9210   35.6890 C.3   120  ASP120      0.1436
     94  CG       -14.9860   28.2300   35.4960 C.2   120  ASP120      0.3671
     95  OD1      -15.5750   27.8480   34.4450 O.co2 120  ASP120     -0.2456
     96  OD2      -15.5070   28.9160   36.4100 O.co2 120  ASP120     -0.2456
     97  N        -13.6490   36.2710   39.0460 N.3   121  PRO121     -0.2116
     98  CA       -12.4270   35.6900   38.4880 C.3   121  PRO121      0.1372
     99  C        -11.2420   36.2100   39.2490 C.2   121  PRO121      0.2244
    100  O        -11.3100   37.3020   39.7850 O.2   121  PRO121     -0.2868
    101  CB       -12.3740   36.2540   37.0610 C.3   121  PRO121      0.0268
    102  CG       -13.7650   36.6920   36.7570 C.3   121  PRO121      0.0207
    103  CD       -14.3320   37.1510   38.0830 C.3   121  PRO121      0.0892
    104  N         -7.3960   37.5990   39.0730 N.3   123  PHE123     -0.1241
    105  CA        -6.7020   38.2580   37.9670 C.3   123  PHE123      0.1605
    106  C         -5.2500   38.5210   38.3320 C.2   123  PHE123      0.2264
    107  O         -4.8820   38.5890   39.5230 O.2   123  PHE123     -0.2867
    108  CB        -7.4310   39.5420   37.5750 C.3   123  PHE123      0.0534
    109  CG        -7.5860   40.5110   38.7110 C.ar  123  PHE123     -0.0203
    110  CD1       -6.6430   41.5050   38.9390 C.ar  123  PHE123     -0.0042
    111  CD2       -8.6850   40.4120   39.5710 C.ar  123  PHE123     -0.0042
    112  CE1       -6.7950   42.3970   40.0050 C.ar  123  PHE123     -0.0003
    113  CE2       -8.8480   41.2970   40.6490 C.ar  123  PHE123     -0.0003
    114  CZ        -7.9030   42.2860   40.8710 C.ar  123  PHE123     -0.0000
@<TRIPOS>BOND
     1     4     3    2
     2     1     2    1
     3    14    13    2
     4     3     2    1
     5     2     5    1
     6     5     6    1
     7    13    12    1
     8    16    17    1
     9    16    15    1
    10    18    17    1
    11    18    19    2
    12     7     6   ar
    13     7     9   ar
    14     6     8   ar
    15    20    19    1
    16    12    11    1
    17    12    15    1
    18    19    21    1
    19     9    10   ar
    20    38    36   ar
    21    37    36   ar
    22     8    10   ar
    23    36    35    1
    24    29    27    1
    25    62    61    1
    26    62    63    2
    27    61    60    1
    28    61    64    1
    29    35    34    1
    30    27    28    1
    31    27    26    1
    32    22    23    1
    33    43    44    1
    34    43    40    1
    35    45    44   ar
    36    45    47   ar
    37    64    65    1
    38    52    53    1
    39    52    55    1
    40    52    51    1
    41    23    26    1
    42    23    24    1
    43    34    31    1
    44    53    54    2
    45    44    46   ar
    46    47    49   ar
    47    65    66    1
    48    56    55    1
    49    56    57    1
    50    58    57   ar
    51    46    48   ar
    52    49    50    1
    53    49    48   ar
    54    40    41    1
    55    40    39    1
    56    57    59   ar
    57    24    25    2
    58    66    67   ar
    59    66    68   ar
    60    41    42    2
    61    31    30    1
    62    31    32    1
    63    33    32    2
    64    88    86    2
    65    72    71    2
    66    76    78   ar
    67    76    74   ar
    68    78    79   ar
    69    69    70    1
    70    86    85    1
    71    85    87    1
    72    85    82    1
    73    84    83    2
    74    73    74    1
    75    73    70    1
    76    71    70    1
    77    74    75   ar
    78    95    94   ar
    79    81    82    1
    80    79    80    1
    81    79    77   ar
    82    82    83    1
    83    83    89   am
    84    75    77   ar
    85    94    93    1
    86    94    96   ar
    87    93    90    1
    88    89    90    1
    89    90    91    1
    90   102   101    1
    91   102   103    1
    92   101    98    1
    93    91    92    2
    94   108   105    1
    95   108   109    1
    96   105   106    1
    97   105   104    1
    98   103    97    1
    99   106   107    2
   100    98    97    1
   101    98    99    1
   102   109   110   ar
   103   109   111   ar
   104   110   112   ar
   105    99   100    2
   106   111   113   ar
   107   112   114   ar
   108   113   114   ar
