@<TRIPOS>MOLECULE
tmp/3ec7F00.pdb
 202 194 0 0 0
SMALL
GASTEIGER

@<TRIPOS>ATOM
      1  N         53.9450   61.7990  -28.0920 N.3     7  VAL7       -0.1231
      2  CA        52.5630   61.2990  -28.0940 C.3     7  VAL7        0.1692
      3  C         51.8140   61.7680  -26.8510 C.2     7  VAL7        0.2592
      4  O         52.0940   61.3000  -25.7440 O.2     7  VAL7       -0.2718
      5  CB        52.5110   59.7540  -28.1650 C.3     7  VAL7        0.0266
      6  CG1       51.0700   59.2510  -28.0740 C.3     7  VAL7        0.0020
      7  CG2       53.1820   59.2600  -29.4310 C.3     7  VAL7        0.0020
      8  N         50.8830   62.7030  -27.0290 N.am    8  GLY8       -0.1957
      9  CA        50.0360   63.1920  -25.9380 C.3     8  GLY8        0.1869
     10  C         50.4060   64.5870  -25.4670 C.2     8  GLY8        0.2309
     11  O         51.3110   64.7450  -24.6400 O.2     8  GLY8       -0.2863
     12  N         48.9660   67.1150  -23.4200 N.3    10  GLY10      -0.1225
     13  CA        48.0890   67.6330  -22.3620 C.3    10  GLY10       0.1811
     14  C         48.8360   68.5660  -21.4200 C.2    10  GLY10       0.2280
     15  O         49.6820   69.3450  -21.8680 O.2    10  GLY10      -0.2866
     16  N         51.2200   68.0410  -19.0580 N.3    11  ILE11      -0.1231
     17  CA        52.6720   67.8160  -19.0360 C.3    11  ILE11       0.1692
     18  C         53.2290   67.6700  -20.4440 C.2    11  ILE11       0.2592
     19  O         54.3890   68.0120  -20.6900 O.2    11  ILE11      -0.2718
     20  CB        53.1180   66.6320  -18.1010 C.3    11  ILE11       0.0266
     21  CG1       54.6060   66.7590  -17.7370 C.3    11  ILE11       0.0019
     22  CG2       52.8420   65.2780  -18.7480 C.3    11  ILE11       0.0020
     23  CD1       55.0140   66.1730  -16.3400 C.3    11  ILE11       0.0001
     24  N         52.3940   67.2020  -21.3700 N.am   12  GLY12      -0.1957
     25  CA        52.7830   67.0630  -22.7630 C.3    12  GLY12       0.1869
     26  C         53.2980   68.3580  -23.3590 C.2    12  GLY12       0.2309
     27  O         54.3350   68.3500  -24.0290 O.2    12  GLY12      -0.2863
     28  N         51.4760   64.4580  -31.5410 N.3    32  CYS32      -0.1221
     29  CA        50.2880   63.6240  -31.6900 C.3    32  CYS32       0.1808
     30  C         49.3680   63.7120  -30.4850 C.2    32  CYS32       0.2601
     31  O         49.8100   63.5330  -29.3410 O.2    32  CYS32      -0.2717
     32  CB        50.6950   62.1640  -31.9340 C.3    32  CYS32       0.0970
     33  SG        49.3710   60.9600  -31.7090 S.3    32  CYS32      -0.0800
     34  N         48.0950   63.9920  -30.7420 N.am   33  ASP33      -0.1959
     35  CA        47.0630   63.9770  -29.7080 C.3    33  ASP33       0.1840
     36  C         45.7320   63.5910  -30.3600 C.2    33  ASP33       0.2622
     37  O         45.4500   63.9900  -31.4880 O.2    33  ASP33      -0.2715
     38  CB        46.9580   65.3430  -29.0210 C.3    33  ASP33       0.1450
     39  CG        46.2660   65.2700  -27.6600 C.2    33  ASP33       0.3671
     40  OD1       45.0410   65.0640  -27.6160 O.co2  33  ASP33      -0.2456
     41  OD2       46.9550   65.4200  -26.6240 O.co2  33  ASP33      -0.2456
     42  N         44.9200   62.8080  -29.6620 N.am   34  ILE34      -0.1963
     43  CA        43.6330   62.3850  -30.2160 C.3    34  ILE34       0.1727
     44  C         42.5710   63.4980  -30.2120 C.2    34  ILE34       0.2616
     45  O         41.5920   63.4260  -30.9490 O.2    34  ILE34      -0.2715
     46  CB        43.1000   61.1510  -29.4890 C.3    34  ILE34       0.0290
     47  CG1       43.5250   61.2090  -28.0170 C.3    34  ILE34       0.0022
     48  CG2       43.5990   59.8880  -30.1800 C.3    34  ILE34       0.0023
     49  CD1       42.7020   60.3610  -27.1040 C.3    34  ILE34       0.0001
     50  N         42.7670   64.5150  -29.3780 N.am   35  VAL35      -0.1977
     51  CA        41.8830   65.6790  -29.3490 C.3    35  VAL35       0.1596
     52  C         42.2450   66.6530  -30.4770 C.2    35  VAL35       0.2287
     53  O         43.3260   67.2620  -30.4680 O.2    35  VAL35      -0.2864
     54  CB        41.9340   66.3950  -27.9830 C.3    35  VAL35       0.0276
     55  CG1       41.1720   67.7130  -28.0260 C.3    35  VAL35       0.0022
     56  CG2       41.3790   65.4950  -26.9000 C.3    35  VAL35       0.0022
     57  N         44.3790   70.1900  -30.4220 N.3    38  ARG38      -0.1245
     58  CA        45.2010   70.2440  -29.2140 C.3    38  ARG38       0.1563
     59  C         46.7060   70.2560  -29.5060 C.2    38  ARG38       0.2260
     60  O         47.4130   71.1810  -29.0970 O.2    38  ARG38      -0.2867
     61  CB        44.8480   69.0860  -28.2890 C.3    38  ARG38       0.0307
     62  CG        45.3710   69.2360  -26.8840 C.3    38  ARG38       0.0489
     63  CD        44.7130   68.1980  -26.0290 C.3    38  ARG38       0.2205
     64  NE        43.5600   68.7150  -25.2960 N.pl3  38  ARG38      -0.0865
     65  CZ        42.8340   67.9790  -24.4540 C.cat  38  ARG38       0.5346
     66  NH1       43.1300   66.6930  -24.2680 N.pl3  38  ARG38       0.1354
     67  NH2       41.8150   68.5170  -23.7840 N.pl3  38  ARG38       0.1354
     68  N         47.5290   62.3920  -35.9410 N.3    54  ASN54      -0.1240
     69  CA        46.3790   62.0870  -35.0970 C.3    54  ASN54       0.1653
     70  C         46.4100   60.6740  -34.5380 C.2    54  ASN54       0.2266
     71  O         45.8620   60.4060  -33.4590 O.2    54  ASN54      -0.2867
     72  CB        45.0930   62.3480  -35.8620 C.3    54  ASN54       0.1155
     73  CG        44.8350   63.8180  -36.0410 C.2    54  ASN54       0.2627
     74  OD1       44.9700   64.6010  -35.0980 O.2    54  ASN54      -0.2716
     75  ND2       44.4760   64.2140  -37.2560 N.am   54  ASN54      -0.0877
     76  N         49.0290   57.8740  -33.2650 N.3    56  TYR56      -0.1241
     77  CA        50.3970   57.6400  -32.8360 C.3    56  TYR56       0.1605
     78  C         51.1180   56.5890  -33.6710 C.2    56  TYR56       0.2264
     79  O         52.3310   56.6870  -33.8570 O.2    56  TYR56      -0.2867
     80  CB        50.4790   57.2930  -31.3470 C.3    56  TYR56       0.0534
     81  CG        49.8400   55.9830  -30.9560 C.ar   56  TYR56      -0.0201
     82  CD1       50.4760   54.7600  -31.2130 C.ar   56  TYR56      -0.0009
     83  CD2       48.6160   55.9670  -30.3040 C.ar   56  TYR56      -0.0009
     84  CE1       49.8960   53.5580  -30.8520 C.ar   56  TYR56       0.0417
     85  CE2       48.0230   54.7720  -29.9280 C.ar   56  TYR56       0.0417
     86  CZ        48.6640   53.5690  -30.1990 C.ar   56  TYR56       0.1957
     87  OH        48.0610   52.3850  -29.8080 O.3    56  TYR56      -0.2866
     88  N         53.5870   61.0350  -23.3010 N.3    71  THR71      -0.1203
     89  CA        52.9560   61.9200  -22.3150 C.3    71  THR71       0.1994
     90  C         51.4440   61.8440  -22.4030 C.2    71  THR71       0.2618
     91  O         50.7370   62.7530  -21.9500 O.2    71  THR71      -0.2717
     92  CB        53.3950   63.3950  -22.4760 C.3    71  THR71       0.1784
     93  OG1       53.5040   63.7150  -23.8690 O.3    71  THR71      -0.2211
     94  CG2       54.7420   63.6540  -21.7370 C.3    71  THR71       0.0376
     95  N         50.9520   60.7570  -22.9970 N.am   72  ALA72      -0.1965
     96  CA        49.5120   60.5530  -23.1560 C.3    72  ALA72       0.1728
     97  C         48.9340   60.0120  -21.8560 C.2    72  ALA72       0.2617
     98  O         49.6750   59.7340  -20.9170 O.2    72  ALA72      -0.2715
     99  CB        49.2240   59.6270  -24.3210 C.3    72  ALA72       0.0334
    100  N         47.6140   59.8660  -21.7940 N.am   73  SER73      -0.1936
    101  CA        46.9700   59.2790  -20.6120 C.3    73  SER73       0.2055
    102  C         47.4650   57.8560  -20.3430 C.2    73  SER73       0.2643
    103  O         47.8290   57.1260  -21.2760 O.2    73  SER73      -0.2714
    104  CB        45.4640   59.2570  -20.8290 C.3    73  SER73       0.2130
    105  OG        45.0490   60.5170  -21.3100 O.3    73  SER73      -0.2179
    106  N         47.4580   57.4540  -19.0750 N.am   74  ASN74      -0.1971
    107  CA        47.9720   56.1400  -18.6830 C.3    74  ASN74       0.1688
    108  C         47.5240   54.9490  -19.5240 C.2    74  ASN74       0.2292
    109  O         48.3250   54.0660  -19.8080 O.2    74  ASN74      -0.2864
    110  CB        47.6290   55.8630  -17.2410 C.3    74  ASN74       0.1181
    111  CG        48.2970   56.8240  -16.3010 C.2    74  ASN74       0.2629
    112  OD1       47.9370   56.8980  -15.1280 O.2    74  ASN74      -0.2716
    113  ND2       49.2800   57.5700  -16.8010 N.am   74  ASN74      -0.0877
    114  N         46.8640   54.6580  -22.5560 N.3    76  ALA76      -0.1231
    115  CA        47.5240   54.6040  -23.8600 C.3    76  ALA76       0.1694
    116  C         48.9600   54.0900  -23.7660 C.2    76  ALA76       0.2592
    117  O         49.5070   53.5490  -24.7560 O.2    76  ALA76      -0.2718
    118  CB        47.5100   55.9760  -24.4880 C.3    76  ALA76       0.0304
    119  N         49.5660   54.2860  -22.5840 N.am   77  HIS77      -0.1976
    120  CA        51.0000   54.0680  -22.3570 C.3    77  HIS77       0.1656
    121  C         51.5260   52.7650  -22.9900 C.2    77  HIS77       0.2291
    122  O         52.4380   52.7960  -23.8380 O.2    77  HIS77      -0.2864
    123  CB        51.3090   54.0410  -20.8520 C.3    77  HIS77       0.0771
    124  CG        51.4040   55.3870  -20.1990 C.ar   77  HIS77       0.0820
    125  ND1       51.9680   55.5590  -18.9500 N.ar   77  HIS77      -0.2267
    126  CD2       51.0110   56.6200  -20.6030 C.ar   77  HIS77       0.1154
    127  CE1       51.9350   56.8380  -18.6220 C.ar   77  HIS77       0.1986
    128  NE2       51.3440   57.5030  -19.5970 N.ar   77  HIS77      -0.2212
    129  N         56.5150   58.8680  -19.5220 N.3    94  GLU94      -0.1231
    130  CA        56.1080   59.3940  -18.2190 C.3    94  GLU94       0.1699
    131  C         55.6050   58.3210  -17.2770 C.2    94  GLU94       0.2592
    132  O         55.0960   57.2780  -17.7130 O.2    94  GLU94      -0.2718
    133  CB        55.0480   60.4820  -18.3600 C.3    94  GLU94       0.0402
    134  CG        55.6330   61.8860  -18.4790 C.3    94  GLU94       0.1161
    135  CD        56.4210   62.3190  -17.2260 C.2    94  GLU94       0.3649
    136  OE1       56.2000   61.7250  -16.1300 O.co2  94  GLU94      -0.2457
    137  OE2       57.2820   63.2230  -17.3510 O.co2  94  GLU94      -0.2457
    138  N         55.8000   58.5540  -15.9800 N.am   95  LYS95      -0.1966
    139  CA        55.2700   57.6740  -14.9690 C.3    95  LYS95       0.1713
    140  C         53.7580   57.9130  -14.8470 C.2    95  LYS95       0.2458
    141  O         53.2720   59.0160  -15.1100 O.2    95  LYS95      -0.2730
    142  CB        55.9910   57.8920  -13.6000 C.3    95  LYS95       0.0311
    143  CG        55.7450   59.2340  -12.9720 C.3    95  LYS95       0.0038
    144  CD        54.5410   59.1650  -12.0180 C.3    95  LYS95       0.0206
    145  CE        53.8380   60.5040  -11.9380 C.3    95  LYS95       0.1093
    146  NZ        53.1070   60.7020  -10.6630 N.3    95  LYS95      -0.1314
    147  N         53.0050   56.8800  -14.4610 N.am   96  PRO96      -0.2727
    148  CA        53.4320   55.4940  -14.2280 C.3    96  PRO96       0.1402
    149  C         53.5670   54.8150  -15.5440 C.2    96  PRO96       0.2269
    150  O         52.8970   55.2320  -16.4910 O.2    96  PRO96      -0.2865
    151  CB        52.2550   54.8900  -13.4730 C.3    96  PRO96       0.0296
    152  CG        51.0750   55.7390  -13.8650 C.3    96  PRO96       0.0237
    153  CD        51.5530   57.0650  -14.3130 C.3    96  PRO96       0.0939
    154  N         59.7000   58.3680  -16.5860 N.3   121  GLY121     -0.1225
    155  CA        59.7830   59.7280  -16.0220 C.3   121  GLY121      0.1811
    156  C         59.6440   59.8760  -14.5210 C.2   121  GLY121      0.2280
    157  O         59.0650   60.8470  -14.0380 O.2   121  GLY121     -0.2866
    158  N         48.9900   57.9780   -7.7610 N.3   167  GLU167     -0.1245
    159  CA        49.4030   59.2750   -8.2430 C.3   167  GLU167      0.1567
    160  C         50.5130   59.8270   -7.3530 C.2   167  GLU167      0.2260
    161  O         51.5040   60.4070   -7.8330 O.2   167  GLU167     -0.2867
    162  CB        48.1800   60.2150   -8.2780 C.3   167  GLU167      0.0388
    163  CG        48.3940   61.5670   -8.9930 C.3   167  GLU167      0.1160
    164  CD        49.2890   62.5780   -8.2260 C.2   167  GLU167      0.3649
    165  OE1       49.2290   62.6680   -6.9780 O.co2 167  GLU167     -0.2457
    166  OE2       50.0630   63.3050   -8.8900 O.co2 167  GLU167     -0.2457
    167  N         55.6880   57.9580   -6.4100 N.3   171  HIS171     -0.1241
    168  CA        57.0110   58.5950   -6.3700 C.3   171  HIS171      0.1621
    169  C         57.9740   58.0240   -5.3410 C.2   171  HIS171      0.2264
    170  O         59.1230   57.7560   -5.6720 O.2   171  HIS171     -0.2867
    171  CB        56.9010   60.1230   -6.2330 C.3   171  HIS171      0.0745
    172  CG        56.2540   60.7670   -7.4110 C.ar  171  HIS171      0.0817
    173  ND1       56.9450   61.0420   -8.5780 N.ar  171  HIS171     -0.2268
    174  CD2       54.9630   61.1140   -7.6410 C.ar  171  HIS171      0.1154
    175  CE1       56.1110   61.5650   -9.4620 C.ar  171  HIS171      0.1986
    176  NE2       54.9010   61.6140   -8.9240 N.ar  171  HIS171     -0.2212
    177  N         52.6960   72.3210   -5.9780 N.3   263  TRP263     -0.1241
    178  CA        53.4380   71.0740   -6.1730 C.3   263  TRP263      0.1605
    179  C         54.3470   71.0300   -7.3980 C.2   263  TRP263      0.2264
    180  O         55.3910   70.4270   -7.3370 O.2   263  TRP263     -0.2867
    181  CB        52.5280   69.8340   -6.1320 C.3   263  TRP263      0.0550
    182  CG        51.7160   69.6300   -7.3230 C.ar  263  TRP263      0.0003
    183  CD1       50.4490   70.1050   -7.5490 C.ar  263  TRP263      0.0946
    184  CD2       52.0880   68.8740   -8.4980 C.ar  263  TRP263      0.0152
    185  NE1       50.0200   69.7020   -8.8060 N.ar  263  TRP263     -0.2442
    186  CE2       51.0040   68.9500   -9.4050 C.ar  263  TRP263      0.0810
    187  CE3       53.2220   68.1350   -8.8550 C.ar  263  TRP263      0.0012
    188  CZ2       51.0160   68.3030  -10.6630 C.ar  263  TRP263      0.0191
    189  CZ3       53.2420   67.5040  -10.1240 C.ar  263  TRP263      0.0001
    190  CH2       52.1430   67.5950  -11.0060 C.ar  263  TRP263      0.0015
    191  N         62.9850   67.6750  -14.4660 N.3   271  TYR271     -0.1241
    192  CA        62.5260   67.2380  -15.8020 C.3   271  TYR271      0.1605
    193  C         63.5830   67.5170  -16.8450 C.2   271  TYR271      0.2264
    194  O         63.8830   66.6640  -17.6800 O.2   271  TYR271     -0.2867
    195  CB        61.2070   67.8950  -16.2370 C.3   271  TYR271      0.0534
    196  CG        60.0420   67.6080  -15.3310 C.ar  271  TYR271     -0.0201
    197  CD1       59.5720   66.3060  -15.1330 C.ar  271  TYR271     -0.0009
    198  CD2       59.4210   68.6340  -14.6500 C.ar  271  TYR271     -0.0009
    199  CE1       58.5060   66.0470  -14.2720 C.ar  271  TYR271      0.0417
    200  CE2       58.3600   68.3770  -13.7750 C.ar  271  TYR271      0.0417
    201  CZ        57.9090   67.0890  -13.6050 C.ar  271  TYR271      0.1957
    202  OH        56.8500   66.8800  -12.7620 O.3   271  TYR271     -0.2866
@<TRIPOS>BOND
     1    75    73   am
     2    73    72    1
     3    73    74    2
     4    68    69    1
     5    72    69    1
     6    69    70    1
     7    70    71    2
     8    79    78    2
     9    78    77    1
    10    76    77    1
    11    77    80    1
    12    32    33    1
    13    32    29    1
    14    29    28    1
    15    29    30    1
    16    37    36    2
    17    80    81    1
    18    82    81   ar
    19    82    84   ar
    20    81    83   ar
    21    45    44    2
    22    84    86   ar
    23    34    30   am
    24    34    35    1
    25    30    31    2
    26    52    53    2
    27    52    51    1
    28    57    58    1
    29    36    35    1
    30    36    42   am
    31    83    85   ar
    32    43    44    1
    33    43    42    1
    34    43    46    1
    35    44    50   am
    36    86    85   ar
    37    86    87    1
    38    48    46    1
    39    35    38    1
    40    59    58    1
    41    59    60    2
    42    46    47    1
    43     7     5    1
    44    50    51    1
    45    51    54    1
    46    58    61    1
    47    38    39    1
    48    61    62    1
    49     5     2    1
    50     5     6    1
    51     2     1    1
    52     2     3    1
    53    55    54    1
    54    47    49    1
    55    54    56    1
    56    39    40   ar
    57    39    41   ar
    58     8     3   am
    59     8     9    1
    60    62    63    1
    61     3     4    2
    62    63    64    1
    63     9    10    1
    64    10    11    2
    65    64    65    2
    66   117   116    2
    67   118   115    1
    68    65    66    1
    69    65    67    1
    70    99    96    1
    71    27    26    2
    72    93    92    1
    73   115   116    1
    74   115   114    1
    75   122   121    2
    76   116   119   am
    77    12    13    1
    78    26    25    1
    79    88    89    1
    80    96    95    1
    81    96    97    1
    82    95    90   am
    83   121   120    1
    84    25    24    1
    85   119   120    1
    86    92    89    1
    87    92    94    1
    88    90    89    1
    89    90    91    2
    90    13    14    1
    91   120   123    1
    92    15    14    2
    93    97   100   am
    94    97    98    2
    95   100   101    1
    96    24    18   am
    97   105   104    1
    98   103   102    2
    99   123   124    1
   100   104   101    1
   101    19    18    2
   102   101   102    1
   103   126   124   ar
   104   126   128   ar
   105    18    17    1
   106   102   106   am
   107   124   125   ar
   108   109   108    2
   109   128   127   ar
   110   108   107    1
   111   129   130    1
   112   106   107    1
   113    16    17    1
   114    17    20    1
   115   125   127   ar
   116    22    20    1
   117   107   110    1
   118   134   133    1
   119   134   135    1
   120   133   130    1
   121   130   131    1
   122    20    21    1
   123    21    23    1
   124   132   131    2
   125   194   193    2
   126   137   135   ar
   127   131   138   am
   128   110   111    1
   129   135   136   ar
   130   193   192    1
   131   113   111   am
   132   154   155    1
   133   150   149    2
   134   111   112    2
   135   195   192    1
   136   195   196    1
   137   155   156    1
   138   138   139    1
   139   192   191    1
   140   149   148    1
   141   196   197   ar
   142   196   198   ar
   143   197   199   ar
   144   141   140    2
   145   139   140    1
   146   139   142    1
   147   140   147   am
   148   198   200   ar
   149   156   157    2
   150   147   153    1
   151   147   148    1
   152   153   152    1
   153   199   201   ar
   154   148   151    1
   155   152   151    1
   156   200   201   ar
   157   201   202    1
   158   142   143    1
   159   143   144    1
   160   144   145    1
   161   145   146    1
   162   190   188   ar
   163   190   189   ar
   164   188   186   ar
   165   189   187   ar
   166   175   176   ar
   167   175   173   ar
   168   186   185   ar
   169   186   184   ar
   170   163   162    1
   171   163   164    1
   172   176   174   ar
   173   166   164   ar
   174   187   184   ar
   175   185   183   ar
   176   173   172   ar
   177   184   182   ar
   178   162   159    1
   179   159   158    1
   180   159   160    1
   181   164   165   ar
   182   161   160    2
   183   174   172   ar
   184   183   182   ar
   185   172   171    1
   186   179   180    2
   187   179   178    1
   188   182   181    1
   189   167   168    1
   190   168   171    1
   191   168   169    1
   192   178   181    1
   193   178   177    1
   194   170   169    2
