@<TRIPOS>MOLECULE
tmp/3ec7F01.pdb
 118 114 0 0 0
SMALL
GASTEIGER

@<TRIPOS>ATOM
      1  N         55.8000   58.5540  -15.9800 N.3    95  LYS95      -0.1245
      2  CA        55.2700   57.6740  -14.9690 C.3    95  LYS95       0.1561
      3  C         53.7580   57.9130  -14.8470 C.2    95  LYS95       0.2260
      4  O         53.2720   59.0160  -15.1100 O.2    95  LYS95      -0.2867
      5  CB        55.9910   57.8920  -13.6000 C.3    95  LYS95       0.0271
      6  CG        55.7450   59.2340  -12.9720 C.3    95  LYS95       0.0035
      7  CD        54.5410   59.1650  -12.0180 C.3    95  LYS95       0.0206
      8  CE        53.8380   60.5040  -11.9380 C.3    95  LYS95       0.1093
      9  NZ        53.1070   60.7020  -10.6630 N.3    95  LYS95      -0.1314
     10  N         54.8560   62.7170    2.2030 N.3   150  HIS150     -0.1241
     11  CA        54.4140   63.3070    0.9130 C.3   150  HIS150      0.1621
     12  C         53.1530   64.1380    1.2350 C.2   150  HIS150      0.2264
     13  O         52.0190   63.6140    1.3020 O.2   150  HIS150     -0.2867
     14  CB        54.1840   62.2090   -0.1480 C.3   150  HIS150      0.0745
     15  CG        54.0810   62.7460   -1.5460 C.ar  150  HIS150      0.0817
     16  ND1       54.3680   61.9870   -2.6590 N.ar  150  HIS150     -0.2268
     17  CD2       53.7830   63.9850   -2.0050 C.ar  150  HIS150      0.1154
     18  CE1       54.2250   62.7250   -3.7460 C.ar  150  HIS150      0.1986
     19  NE2       53.8500   63.9360   -3.3780 N.ar  150  HIS150     -0.2212
     20  N         50.6760   67.5530    0.4600 N.3   152  ASN152     -0.1240
     21  CA        50.1920   68.4590   -0.5540 C.3   152  ASN152      0.1653
     22  C         49.0650   69.2770    0.1070 C.2   152  ASN152      0.2266
     23  O         48.3780   68.7830    1.0240 O.2   152  ASN152     -0.2867
     24  CB        49.7410   67.6150   -1.7520 C.3   152  ASN152      0.1155
     25  CG        49.0320   68.4040   -2.8120 C.2   152  ASN152      0.2627
     26  OD1       49.6750   69.0880   -3.6280 O.2   152  ASN152     -0.2716
     27  ND2       47.6890   68.2670   -2.8660 N.am  152  ASN152     -0.0877
     28  N         45.9940   70.7100   -0.8600 N.3   154  SER154     -0.1202
     29  CA        44.6470   70.1710   -1.0040 C.3   154  SER154      0.2020
     30  C         44.3650   69.5410   -2.3860 C.2   154  SER154      0.2619
     31  O         45.1030   69.7650   -3.3360 O.2   154  SER154     -0.2717
     32  CB        43.6070   71.2680   -0.7620 C.3   154  SER154      0.2103
     33  OG        43.6220   72.1160   -1.8640 O.3   154  SER154     -0.2182
     34  N         43.2870   68.7530   -2.4810 N.am  155  THR155     -0.1938
     35  CA        42.9290   68.0930   -3.7270 C.3   155  THR155      0.2028
     36  C         41.5250   68.4990   -4.1090 C.2   155  THR155      0.2642
     37  O         40.7070   68.8370   -3.2330 O.2   155  THR155     -0.2714
     38  CB        42.9880   66.5510   -3.6090 C.3   155  THR155      0.1808
     39  OG1       42.2290   66.1210   -2.4590 O.3   155  THR155     -0.2208
     40  CG2       44.4340   66.0960   -3.4190 C.3   155  THR155      0.0379
     41  N         41.2670   68.4830   -5.4120 N.am  156  VAL156     -0.1977
     42  CA        39.9440   68.6160   -5.9560 C.3   156  VAL156      0.1596
     43  C         39.0840   67.4020   -5.6220 C.2   156  VAL156      0.2287
     44  O         39.6210   66.3180   -5.3490 O.2   156  VAL156     -0.2864
     45  CB        39.9970   68.8220   -7.5160 C.3   156  VAL156      0.0276
     46  CG1       40.9670   69.9460   -7.8450 C.3   156  VAL156      0.0022
     47  CG2       40.4220   67.5240   -8.2350 C.3   156  VAL156      0.0022
     48  N         39.8030   63.6970   -7.0150 N.3   159  TYR159     -0.1241
     49  CA        40.9010   62.8790   -6.5290 C.3   159  TYR159      0.1605
     50  C         40.4470   61.8990   -5.4080 C.2   159  TYR159      0.2264
     51  O         40.0440   62.3180   -4.3070 O.2   159  TYR159     -0.2867
     52  CB        42.0450   63.8130   -6.1100 C.3   159  TYR159      0.0534
     53  CG        43.3220   63.1630   -5.5880 C.ar  159  TYR159     -0.0201
     54  CD1       43.3350   62.5330   -4.3540 C.ar  159  TYR159     -0.0009
     55  CD2       44.5260   63.2320   -6.3220 C.ar  159  TYR159     -0.0009
     56  CE1       44.4950   61.9660   -3.8550 C.ar  159  TYR159      0.0417
     57  CE2       45.6950   62.6650   -5.8450 C.ar  159  TYR159      0.0417
     58  CZ        45.6690   62.0190   -4.6060 C.ar  159  TYR159      0.1957
     59  OH        46.7990   61.4510   -4.0730 O.3   159  TYR159     -0.2866
     60  N         48.9900   57.9780   -7.7610 N.3   167  GLU167     -0.1231
     61  CA        49.4030   59.2750   -8.2430 C.3   167  GLU167      0.1699
     62  C         50.5130   59.8270   -7.3530 C.2   167  GLU167      0.2592
     63  O         51.5040   60.4070   -7.8330 O.2   167  GLU167     -0.2718
     64  CB        48.1800   60.2150   -8.2780 C.3   167  GLU167      0.0402
     65  CG        48.3940   61.5670   -8.9930 C.3   167  GLU167      0.1161
     66  CD        49.2890   62.5780   -8.2260 C.2   167  GLU167      0.3649
     67  OE1       49.2290   62.6680   -6.9780 O.co2 167  GLU167     -0.2457
     68  OE2       50.0630   63.3050   -8.8900 O.co2 167  GLU167     -0.2457
     69  N         50.3600   59.6190   -6.0550 N.am  168  THR168     -0.1953
     70  CA        51.1710   60.3200   -5.1060 C.3   168  THR168      0.1897
     71  C         52.3110   59.4190   -4.5700 C.2   168  THR168      0.2313
     72  O         53.4700   59.6410   -4.9080 O.2   168  THR168     -0.2863
     73  CB        50.2560   61.0040   -4.0160 C.3   168  THR168      0.1794
     74  OG1       49.4770   62.0410   -4.6380 O.3   168  THR168     -0.2208
     75  CG2       51.0550   61.5790   -2.8480 C.3   168  THR168      0.0378
     76  N         55.6880   57.9580   -6.4100 N.3   171  HIS171     -0.1241
     77  CA        57.0110   58.5950   -6.3700 C.3   171  HIS171      0.1621
     78  C         57.9740   58.0240   -5.3410 C.2   171  HIS171      0.2264
     79  O         59.1230   57.7560   -5.6720 O.2   171  HIS171     -0.2867
     80  CB        56.9010   60.1230   -6.2330 C.3   171  HIS171      0.0745
     81  CG        56.2540   60.7670   -7.4110 C.ar  171  HIS171      0.0817
     82  ND1       56.9450   61.0420   -8.5780 N.ar  171  HIS171     -0.2268
     83  CD2       54.9630   61.1140   -7.6410 C.ar  171  HIS171      0.1154
     84  CE1       56.1110   61.5650   -9.4620 C.ar  171  HIS171      0.1986
     85  NE2       54.9010   61.6140   -8.9240 N.ar  171  HIS171     -0.2212
     86  N         47.5170   64.5890    1.4930 N.3   221  VAL221     -0.1245
     87  CA        47.3370   65.3720    0.2850 C.3   221  VAL221      0.1561
     88  C         46.3570   66.5640    0.4720 C.2   221  VAL221      0.2260
     89  O         46.1000   67.3030   -0.4750 O.2   221  VAL221     -0.2867
     90  CB        46.9870   64.4820   -0.9120 C.3   221  VAL221      0.0252
     91  CG1       48.1780   63.4820   -1.2000 C.3   221  VAL221      0.0019
     92  CG2       45.6680   63.7150   -0.6740 C.3   221  VAL221      0.0019
     93  N         53.1490   72.1580    0.0340 N.3   227  TYR227     -0.1241
     94  CA        53.6550   70.9380   -0.6010 C.3   227  TYR227      0.1605
     95  C         54.9900   70.7100    0.0480 C.2   227  TYR227      0.2264
     96  O         55.8740   71.5840   -0.0390 O.2   227  TYR227     -0.2867
     97  CB        53.8260   71.1370   -2.1130 C.3   227  TYR227      0.0534
     98  CG        54.1450   69.8530   -2.8380 C.ar  227  TYR227     -0.0201
     99  CD1       53.1880   68.8530   -2.9600 C.ar  227  TYR227     -0.0009
    100  CD2       55.4260   69.6070   -3.3580 C.ar  227  TYR227     -0.0009
    101  CE1       53.4710   67.6570   -3.5990 C.ar  227  TYR227      0.0417
    102  CE2       55.7230   68.4040   -4.0060 C.ar  227  TYR227      0.0417
    103  CZ        54.7350   67.4310   -4.1310 C.ar  227  TYR227      0.1957
    104  OH        54.9860   66.2160   -4.7950 O.3   227  TYR227     -0.2866
    105  N         52.6960   72.3210   -5.9780 N.3   263  TRP263     -0.1241
    106  CA        53.4380   71.0740   -6.1730 C.3   263  TRP263      0.1605
    107  C         54.3470   71.0300   -7.3980 C.2   263  TRP263      0.2264
    108  O         55.3910   70.4270   -7.3370 O.2   263  TRP263     -0.2867
    109  CB        52.5280   69.8340   -6.1320 C.3   263  TRP263      0.0550
    110  CG        51.7160   69.6300   -7.3230 C.ar  263  TRP263      0.0003
    111  CD1       50.4490   70.1050   -7.5490 C.ar  263  TRP263      0.0946
    112  CD2       52.0880   68.8740   -8.4980 C.ar  263  TRP263      0.0152
    113  NE1       50.0200   69.7020   -8.8060 N.ar  263  TRP263     -0.2442
    114  CE2       51.0040   68.9500   -9.4050 C.ar  263  TRP263      0.0810
    115  CE3       53.2220   68.1350   -8.8550 C.ar  263  TRP263      0.0012
    116  CZ2       51.0160   68.3030  -10.6630 C.ar  263  TRP263      0.0191
    117  CZ3       53.2420   67.5040  -10.1240 C.ar  263  TRP263      0.0001
    118  CH2       52.1430   67.5950  -11.0060 C.ar  263  TRP263      0.0015
@<TRIPOS>BOND
     1     1     2    1
     2     4     3    2
     3     2     3    1
     4     2     5    1
     5     5     6    1
     6     6     7    1
     7     7     8    1
     8     8     9    1
     9   118   116   ar
    10   118   117   ar
    11   116   114   ar
    12   117   115   ar
    13    84    85   ar
    14    84    82   ar
    15   114   113   ar
    16   114   112   ar
    17    65    64    1
    18    65    66    1
    19    85    83   ar
    20    68    66   ar
    21   115   112   ar
    22   113   111   ar
    23    82    81   ar
    24   112   110   ar
    25    64    61    1
    26    61    60    1
    27    61    62    1
    28    47    45    1
    29    66    67   ar
    30    46    45    1
    31    63    62    2
    32    83    81   ar
    33   111   110   ar
    34    45    42    1
    35    81    80    1
    36   107   108    2
    37   107   106    1
    38    62    69   am
    39   110   109    1
    40    48    49    1
    41    49    52    1
    42    49    50    1
    43    76    77    1
    44    77    80    1
    45    77    78    1
    46    55    57   ar
    47    55    53   ar
    48   106   109    1
    49   106   105    1
    50    52    53    1
    51    69    70    1
    52    42    43    1
    53    42    41    1
    54    57    58   ar
    55    79    78    2
    56    43    44    2
    57    53    54   ar
    58    41    36   am
    59    50    51    2
    60    70    71    1
    61    70    73    1
    62    72    71    2
    63   104   103    1
    64    74    73    1
    65    58    59    1
    66    58    56   ar
    67    54    56   ar
    68   103   102   ar
    69   103   101   ar
    70    36    35    1
    71    36    37    2
    72    73    75    1
    73   102   100   ar
    74    18    19   ar
    75    18    16   ar
    76    35    38    1
    77    35    34    1
    78    26    25    2
    79    38    40    1
    80    38    39    1
    81   101    99   ar
    82    19    17   ar
    83   100    98   ar
    84    31    30    2
    85    99    98   ar
    86    27    25   am
    87    98    97    1
    88    25    24    1
    89    16    15   ar
    90    34    30   am
    91    30    29    1
    92    97    94    1
    93    17    15   ar
    94    33    32    1
    95    24    21    1
    96    15    14    1
    97    91    90    1
    98    29    28    1
    99    29    32    1
   100    90    92    1
   101    90    87    1
   102    94    93    1
   103    94    95    1
   104    21    22    1
   105    21    20    1
   106    89    88    2
   107    14    11    1
   108    96    95    2
   109    22    23    2
   110    87    88    1
   111    87    86    1
   112    11    12    1
   113    11    10    1
   114    12    13    2
