@<TRIPOS>MOLECULE
tmp/3eccA00.pdb
 137 135 0 0 0
SMALL
GASTEIGER

@<TRIPOS>ATOM
      1  N         32.2340   11.1870   33.4700 N.3     3  ARG3       -0.1231
      2  CA        32.8600   11.2150   32.1680 C.3     3  ARG3        0.1694
      3  C         33.2490   12.6690   31.8610 C.2     3  ARG3        0.2592
      4  O         34.1740   12.9320   31.0870 O.2     3  ARG3       -0.2718
      5  CB        31.9080   10.6720   31.1030 C.3     3  ARG3        0.0321
      6  CG        31.9130   11.4580   29.8140 C.3     3  ARG3        0.0489
      7  CD        31.2500   10.6930   28.6920 C.3     3  ARG3        0.2205
      8  NE        32.2230   10.0520   27.8160 N.pl3   3  ARG3       -0.0865
      9  CZ        32.5780    8.7770   27.9030 C.cat   3  ARG3        0.5346
     10  NH1       32.0290    8.0040   28.8240 N.pl3   3  ARG3        0.1354
     11  NH2       33.4750    8.2730   27.0670 N.pl3   3  ARG3        0.1354
     12  N         32.5510   13.6060   32.4980 N.am    4  TYR4       -0.1976
     13  CA        32.8450   15.0260   32.3450 C.3     4  TYR4        0.1639
     14  C         33.6030   15.5860   33.5560 C.2     4  TYR4        0.2290
     15  O         33.4060   16.7430   33.9390 O.2     4  TYR4       -0.2864
     16  CB        31.5540   15.8240   32.1210 C.3     4  TYR4        0.0560
     17  CG        30.6510   15.2860   31.0240 C.ar    4  TYR4       -0.0198
     18  CD1       30.7780   15.7260   29.7070 C.ar    4  TYR4       -0.0009
     19  CD2       29.6620   14.3440   31.3070 C.ar    4  TYR4       -0.0009
     20  CE1       29.9480   15.2380   28.7010 C.ar    4  TYR4        0.0417
     21  CE2       28.8350   13.8430   30.3030 C.ar    4  TYR4        0.0417
     22  CZ        28.9780   14.3040   29.0060 C.ar    4  TYR4        0.1957
     23  OH        28.1630   13.8250   28.0070 O.3     4  TYR4       -0.2866
     24  N         36.3260   16.5960   33.6400 N.3     6  ASN6       -0.1240
     25  CA        37.1880   17.6360   33.1000 C.3     6  ASN6        0.1653
     26  C         36.4000   18.7550   32.4320 C.2     6  ASN6        0.2266
     27  O         36.9800   19.6430   31.8080 O.2     6  ASN6       -0.2867
     28  CB        38.1200   17.0260   32.0610 C.3     6  ASN6        0.1155
     29  CG        37.3810   16.6170   30.7850 C.2     6  ASN6        0.2627
     30  OD1       36.5530   15.6940   30.7930 O.2     6  ASN6       -0.2716
     31  ND2       37.6560   17.3280   29.6900 N.am    6  ASN6       -0.0877
     32  N         38.5850   24.2050   30.2590 N.3    11  THR11      -0.1203
     33  CA        38.8430   23.1040   29.3340 C.3    11  THR11       0.1994
     34  C         38.0660   23.2800   28.0210 C.2    11  THR11       0.2618
     35  O         38.3290   22.5880   27.0260 O.2    11  THR11      -0.2717
     36  CB        38.4400   21.7540   29.9770 C.3    11  THR11       0.1784
     37  OG1       39.1450   21.5830   31.2130 O.3    11  THR11      -0.2211
     38  CG2       38.7560   20.5830   29.0470 C.3    11  THR11       0.0376
     39  N         37.1100   24.2090   28.0240 N.am   12  TYR12      -0.1961
     40  CA        36.2780   24.4470   26.8520 C.3    12  TYR12       0.1771
     41  C         36.9180   25.3860   25.8350 C.2    12  TYR12       0.2619
     42  O         37.1770   26.5650   26.1120 O.2    12  TYR12      -0.2715
     43  CB        34.8820   24.9410   27.2350 C.3    12  TYR12       0.0574
     44  CG        33.8670   24.6760   26.1550 C.ar   12  TYR12      -0.0198
     45  CD1       33.1690   23.4780   26.1150 C.ar   12  TYR12      -0.0009
     46  CD2       33.6280   25.6080   25.1510 C.ar   12  TYR12      -0.0009
     47  CE1       32.2520   23.2130   25.1120 C.ar   12  TYR12       0.0417
     48  CE2       32.7030   25.3560   24.1480 C.ar   12  TYR12       0.0417
     49  CZ        32.0140   24.1610   24.1390 C.ar   12  TYR12       0.1957
     50  OH        31.1020   23.9030   23.1410 O.3    12  TYR12      -0.2866
     51  N         37.1760   24.8390   24.6540 N.am   13  HIS13      -0.1973
     52  CA        37.6200   25.6210   23.5270 C.3    13  HIS13       0.1656
     53  C         36.5930   25.4750   22.4220 C.2    13  HIS13       0.2291
     54  O         36.5460   24.4540   21.7330 O.2    13  HIS13      -0.2864
     55  CB        39.0060   25.1670   23.0690 C.3    13  HIS13       0.0771
     56  CG        40.0510   25.2810   24.1330 C.ar   13  HIS13       0.0820
     57  ND1       40.3130   24.2670   25.0300 N.ar   13  HIS13      -0.2267
     58  CD2       40.8740   26.3040   24.4700 C.ar   13  HIS13       0.1154
     59  CE1       41.2660   24.6530   25.8620 C.ar   13  HIS13       0.1986
     60  NE2       41.6240   25.8850   25.5440 N.ar   13  HIS13      -0.2212
     61  N         34.4790   25.4330   19.1050 N.3    15  LYS15      -0.1245
     62  CA        34.9580   24.9870   17.8010 C.3    15  LYS15       0.1561
     63  C         34.2250   25.6510   16.6470 C.2    15  LYS15       0.2260
     64  O         34.4780   25.3310   15.4800 O.2    15  LYS15      -0.2867
     65  CB        34.8980   23.4610   17.6810 C.3    15  LYS15       0.0271
     66  CG        35.9230   22.7410   18.5540 C.3    15  LYS15       0.0035
     67  CD        36.6040   21.5970   17.8070 C.3    15  LYS15       0.0206
     68  CE        37.6740   20.9090   18.6650 C.3    15  LYS15       0.1093
     69  NZ        38.5450   21.8840   19.3960 N.3    15  LYS15      -0.1314
     70  N         29.4010   27.7750   19.4940 N.3    19  GLN19      -0.1245
     71  CA        30.0080   27.3690   20.7560 C.3    19  GLN19       0.1566
     72  C         30.6520   28.5450   21.4790 C.2    19  GLN19       0.2260
     73  O         30.7540   28.5500   22.7050 O.2    19  GLN19      -0.2867
     74  CB        31.0410   26.2670   20.5130 C.3    19  GLN19       0.0367
     75  CG        30.4330   24.9050   20.2500 C.3    19  GLN19       0.0905
     76  CD        31.4260   23.9190   19.6560 C.2    19  GLN19       0.2608
     77  OE1       32.5310   23.7390   20.1760 O.2    19  GLN19      -0.2717
     78  NE2       31.0260   23.2620   18.5630 N.am   19  GLN19      -0.0878
     79  N         23.5120   15.5180   18.5720 N.3    47  PRO47      -0.2102
     80  CA        24.4720   14.7290   19.3630 C.3    47  PRO47       0.1504
     81  C         25.9370   15.1340   19.1450 C.2    47  PRO47       0.2576
     82  O         26.2950   15.5850   18.0550 O.2    47  PRO47      -0.2718
     83  CB        24.2550   13.2990   18.8450 C.3    47  PRO47       0.0282
     84  CG        22.8360   13.2760   18.3800 C.3    47  PRO47       0.0208
     85  CD        22.5320   14.6620   17.8710 C.3    47  PRO47       0.0893
     86  N         26.7650   14.9820   20.1780 N.am   48  GLY48      -0.1943
     87  CA        28.2130   15.1970   20.0520 C.3    48  GLY48       0.2014
     88  C         28.6210   16.6590   19.9880 C.2    48  GLY48       0.2639
     89  O         29.8140   16.9870   19.9050 O.2    48  GLY48      -0.2714
     90  N         27.6220   17.5330   20.0280 N.am   49  VAL49      -0.1963
     91  CA        27.8350   18.9610   19.9030 C.3    49  VAL49       0.1727
     92  C         28.4450   19.6050   21.1640 C.2    49  VAL49       0.2617
     93  O         29.0910   20.6430   21.0770 O.2    49  VAL49      -0.2715
     94  CB        26.5210   19.6640   19.4830 C.3    49  VAL49       0.0290
     95  CG1       26.4620   21.0890   20.0010 C.3    49  VAL49       0.0023
     96  CG2       26.3630   19.6090   17.9530 C.3    49  VAL49       0.0023
     97  N         28.2600   18.9780   22.3230 N.am   50  GLY50      -0.1940
     98  CA        28.8460   19.4940   23.5700 C.3    50  GLY50       0.2014
     99  C         27.8690   20.0480   24.6000 C.2    50  GLY50       0.2639
    100  O         28.2830   20.6840   25.5640 O.2    50  GLY50      -0.2714
    101  N         26.5760   19.7890   24.4120 N.am   51  LYS51      -0.1963
    102  CA        25.5320   20.3670   25.2680 C.3    51  LYS51       0.1728
    103  C         25.7130   19.9880   26.7410 C.2    51  LYS51       0.2617
    104  O         25.7640   20.8630   27.6140 O.2    51  LYS51      -0.2715
    105  CB        24.1340   19.9720   24.7770 C.3    51  LYS51       0.0311
    106  CG        23.8210   20.4360   23.3650 C.3    51  LYS51       0.0038
    107  CD        22.3980   20.0930   22.9480 C.3    51  LYS51       0.0206
    108  CE        22.1600   18.5910   22.9150 C.3    51  LYS51       0.1093
    109  NZ        22.9370   17.9060   21.8380 N.3    51  LYS51      -0.1314
    110  N         25.8160   18.6880   27.0100 N.am   52  THR52      -0.1937
    111  CA        26.0210   18.2010   28.3710 C.3    52  THR52       0.2028
    112  C         27.3250   18.7520   28.9420 C.2    52  THR52       0.2642
    113  O         27.4140   19.0600   30.1300 O.2    52  THR52      -0.2714
    114  CB        26.0530   16.6730   28.4140 C.3    52  THR52       0.1808
    115  OG1       24.8910   16.1540   27.7460 O.3    52  THR52      -0.2208
    116  CG2       26.0870   16.1660   29.8560 C.3    52  THR52       0.0379
    117  N         28.3280   18.8880   28.0790 N.am   53  HIS53      -0.1973
    118  CA        29.6150   19.4390   28.4870 C.3    53  HIS53       0.1656
    119  C         29.4330   20.8230   29.1130 C.2    53  HIS53       0.2291
    120  O         29.9220   21.0900   30.2170 O.2    53  HIS53      -0.2864
    121  CB        30.5780   19.5180   27.2910 C.3    53  HIS53       0.0771
    122  CG        31.9810   19.8640   27.6740 C.ar   53  HIS53       0.0820
    123  ND1       32.9770   18.9180   27.7770 N.ar   53  HIS53      -0.2267
    124  CD2       32.5490   21.0470   28.0090 C.ar   53  HIS53       0.1154
    125  CE1       34.1040   19.5070   28.1380 C.ar   53  HIS53       0.1986
    126  NE2       33.8700   20.7980   28.2900 N.ar   53  HIS53      -0.2212
    127  N         30.6640   13.7820   18.0880 N.3   182  ARG182     -0.1245
    128  CA        31.6140   13.5390   19.1730 C.3   182  ARG182      0.1563
    129  C         33.0640   13.5320   18.7190 C.2   182  ARG182      0.2260
    130  O         33.9600   13.8280   19.5050 O.2   182  ARG182     -0.2867
    131  CB        31.2680   12.2390   19.9020 C.3   182  ARG182      0.0307
    132  CG        29.8500   12.2300   20.4530 C.3   182  ARG182      0.0489
    133  CD        29.6640   11.2210   21.5730 C.3   182  ARG182      0.2205
    134  NE        28.8710   11.7710   22.6740 N.pl3 182  ARG182     -0.0865
    135  CZ        27.5990   12.1550   22.5780 C.cat 182  ARG182      0.5346
    136  NH1       26.9470   12.0610   21.4280 N.pl3 182  ARG182      0.1354
    137  NH2       26.9750   12.6420   23.6400 N.pl3 182  ARG182      0.1354
@<TRIPOS>BOND
     1    64    63    2
     2    63    62    1
     3    65    62    1
     4    65    66    1
     5    62    61    1
     6    67    66    1
     7    67    68    1
     8    85    84    1
     9    85    79    1
    10    96    94    1
    11    82    81    2
    12   127   128    1
    13    84    83    1
    14    78    76   am
    15    79    80    1
    16    68    69    1
    17   129   128    1
    18   129   130    2
    19    83    80    1
    20    81    80    1
    21    81    86   am
    22   128   131    1
    23    94    91    1
    24    94    95    1
    25    70    71    1
    26    76    77    2
    27    76    75    1
    28   131   132    1
    29    91    90    1
    30    91    92    1
    31    89    88    2
    32    88    90   am
    33    88    87    1
    34    87    86    1
    35    75    74    1
    36   132   133    1
    37    74    71    1
    38    71    72    1
    39    93    92    2
    40    92    97   am
    41   136   135    1
    42    72    73    2
    43   133   134    1
    44    54    53    2
    45   109   108    1
    46    97    98    1
    47    53    52    1
    48   135   134    2
    49   135   137    1
    50   108   107    1
    51   107   106    1
    52    55    52    1
    53    55    56    1
    54    50    49    1
    55   106   105    1
    56    52    51    1
    57    98    99    1
    58    56    58   ar
    59    56    57   ar
    60    49    48   ar
    61    49    47   ar
    62    48    46   ar
    63   101    99   am
    64   101   102    1
    65    58    60   ar
    66    99   100    2
    67    51    41   am
    68   105   102    1
    69    57    59   ar
    70    47    45   ar
    71    46    44   ar
    72   102   103    1
    73    60    59   ar
    74    41    42    2
    75    41    40    1
    76    45    44   ar
    77    44    43    1
    78   103   110   am
    79   103   104    2
    80    40    43    1
    81    40    39    1
    82   110   111    1
    83    35    34    2
    84    11     9    1
    85   121   122    1
    86   121   118    1
    87   122   123   ar
    88   122   124   ar
    89   115   114    1
    90   123   125   ar
    91     8     9    2
    92     8     7    1
    93     9    10    1
    94    23    22    1
    95   124   126   ar
    96    34    39   am
    97    34    33    1
    98   117   118    1
    99   117   112   am
   100   125   126   ar
   101   111   114    1
   102   111   112    1
   103   114   116    1
   104   118   119    1
   105     7     6    1
   106    20    22   ar
   107    20    18   ar
   108   112   113    2
   109    22    21   ar
   110    38    36    1
   111   119   120    2
   112    33    36    1
   113    33    32    1
   114    31    29   am
   115    18    17   ar
   116     6     5    1
   117    36    37    1
   118    21    19   ar
   119    29    30    2
   120    29    28    1
   121    17    19   ar
   122    17    16    1
   123     4     3    2
   124     5     2    1
   125    27    26    2
   126     3     2    1
   127     3    12   am
   128    28    25    1
   129    16    13    1
   130     2     1    1
   131    13    12    1
   132    13    14    1
   133    26    25    1
   134    25    24    1
   135    14    15    2
