@<TRIPOS>MOLECULE
tmp/3ecgB00.pdb
 113 106 0 0 0
SMALL
GASTEIGER

@<TRIPOS>ATOM
      1  N         20.4400   -3.6930   17.0790 N.3     8  ARG8       -0.1245
      2  CA        21.3070   -2.5520   16.8780 C.3     8  ARG8        0.1563
      3  C         22.5730   -2.9160   16.1370 C.2     8  ARG8        0.2260
      4  O         23.1280   -3.9960   16.4530 O.2     8  ARG8       -0.2867
      5  CB        21.7280   -1.9760   18.2350 C.3     8  ARG8        0.0307
      6  CG        20.6160   -1.3870   19.0610 C.3     8  ARG8        0.0489
      7  CD        21.2220   -0.8200   20.3490 C.3     8  ARG8        0.2205
      8  NE        20.2690   -0.0040   21.0930 N.pl3   8  ARG8       -0.0865
      9  CZ        20.3770    0.4590   22.3350 C.cat   8  ARG8        0.5346
     10  NH1       21.4690    0.1940   23.0630 N.pl3   8  ARG8        0.1354
     11  NH2       19.3870    1.1830   22.8200 N.pl3   8  ARG8        0.1354
     12  N         28.0860    1.9360   18.2410 N.3    23  LEU23      -0.1245
     13  CA        26.8730    1.8670   17.4190 C.3    23  LEU23       0.1561
     14  C         27.1450    2.5590   16.1070 C.2    23  LEU23       0.2260
     15  O         27.5470    3.7310   16.1090 O.2    23  LEU23      -0.2867
     16  CB        25.7280    2.5370   18.1720 C.3    23  LEU23       0.0270
     17  CG        24.3800    2.7080   17.5270 C.3    23  LEU23       0.0019
     18  CD1       23.7300    1.3660   17.2090 C.3    23  LEU23       0.0001
     19  CD2       23.4820    3.5280   18.4380 C.3    23  LEU23       0.0001
     20  N         25.9540    4.5800   13.2710 N.3    25  ASP25      -0.1239
     21  CA        24.8350    5.4960   13.3970 C.3    25  ASP25       0.1674
     22  C         24.7420    6.4470   12.2080 C.2    25  ASP25       0.2266
     23  O         25.4050    7.4730   12.1310 O.2    25  ASP25      -0.2867
     24  CB        25.0620    6.3070   14.6860 C.3    25  ASP25       0.1410
     25  CG        23.8910    7.1150   15.1370 C.2    25  ASP25       0.3668
     26  OD1       22.9740    7.2040   14.2820 O.co2  25  ASP25      -0.2456
     27  OD2       23.9110    7.6550   16.2760 O.co2  25  ASP25      -0.2456
     28  N         22.3960    8.3780   11.5370 N.3    27  GLY27      -0.1210
     29  CA        21.8050    9.6210   12.0010 C.3    27  GLY27       0.1956
     30  C         22.7310   10.5860   12.7020 C.2    27  GLY27       0.2612
     31  O         22.2990   11.6410   13.1470 O.2    27  GLY27      -0.2717
     32  N         24.0050   10.2180   12.7800 N.am   28  ALA28      -0.1965
     33  CA        25.0190   11.0620   13.4070 C.3    28  ALA28       0.1728
     34  C         26.0120   11.5980   12.3720 C.2    28  ALA28       0.2616
     35  O         26.5680   10.8290   11.5810 O.2    28  ALA28      -0.2715
     36  CB        25.7730   10.2760   14.4580 C.3    28  ALA28       0.0334
     37  N         26.2120   12.9310   12.3660 N.am   29  ASP29      -0.1957
     38  CA        27.2520   13.4810   11.4970 C.3    29  ASP29       0.1840
     39  C         28.6560   13.1050   11.9760 C.2    29  ASP29       0.2622
     40  O         29.5590   12.8850   11.1500 O.2    29  ASP29      -0.2715
     41  CB        27.1780   15.0000   11.4870 C.3    29  ASP29       0.1450
     42  CG        25.8870   15.6300   11.0410 C.2    29  ASP29       0.3671
     43  OD1       25.0220   14.9900   10.4030 O.co2  29  ASP29      -0.2456
     44  OD2       25.7100   16.8170   11.3730 O.co2  29  ASP29      -0.2456
     45  N         28.8160   13.0950   13.2950 N.am   30  ASP30      -0.1971
     46  CA        30.0850   13.0090   13.9850 C.3    30  ASP30       0.1709
     47  C         30.1530   11.7280   14.7930 C.2    30  ASP30       0.2293
     48  O         29.1390   11.0600   14.9840 O.2    30  ASP30      -0.2864
     49  CB        30.2520   14.1880   14.9620 C.3    30  ASP30       0.1436
     50  CG        30.0670   15.5260   14.2480 C.2    30  ASP30       0.3671
     51  OD1       30.8000   15.8590   13.3030 O.co2  30  ASP30      -0.2456
     52  OD2       29.1250   16.2490   14.6250 O.co2  30  ASP30      -0.2456
     53  N         31.1370   10.1940   18.4790 N.3    32  ILE32      -0.1245
     54  CA        31.1400   10.6330   19.8620 C.3    32  ILE32       0.1561
     55  C         31.3600    9.4210   20.7560 C.2    32  ILE32       0.2260
     56  O         30.5660    8.4640   20.6590 O.2    32  ILE32      -0.2867
     57  CB        29.8310   11.3350   20.3140 C.3    32  ILE32       0.0252
     58  CG1       29.1890   12.2520   19.2820 C.3    32  ILE32       0.0019
     59  CG2       30.0940   12.0670   21.6240 C.3    32  ILE32       0.0019
     60  CD1       30.0250   13.4050   18.8280 C.3    32  ILE32       0.0001
     61  N         27.9720   19.8820   20.5590 N.3    47  VAL47      -0.1231
     62  CA        27.2210   18.8620   19.8240 C.3    47  VAL47       0.1692
     63  C         25.7930   18.8120   20.3380 C.2    47  VAL47       0.2593
     64  O         25.5580   18.7910   21.5430 O.2    47  VAL47      -0.2718
     65  CB        27.8970   17.4740   19.9910 C.3    47  VAL47       0.0266
     66  CG1       27.0030   16.3820   19.4320 C.3    47  VAL47       0.0020
     67  CG2       29.2630   17.4640   19.3180 C.3    47  VAL47       0.0020
     68  N         24.8410   18.8320   19.4160 N.am   48  GLY48      -0.1942
     69  CA        23.4620   18.7350   19.7940 C.3    48  GLY48       0.2014
     70  C         22.7920   17.4360   19.4380 C.2    48  GLY48       0.2639
     71  O         22.9580   16.9610   18.3230 O.2    48  GLY48      -0.2714
     72  N         22.0020   16.9040   20.3260 N.am   49  GLY49      -0.1939
     73  CA        21.2920   15.6480   20.2340 C.3    49  GLY49       0.2014
     74  C         19.8240   15.8320   20.5610 C.2    49  GLY49       0.2638
     75  O         19.3000   16.9110   20.7070 O.2    49  GLY49      -0.2714
     76  N         19.1890   14.6800   20.7660 N.am   50  ILE50      -0.1977
     77  CA        17.7690   14.6980   20.9840 C.3    50  ILE50       0.1596
     78  C         17.3700   15.5140   22.1760 C.2    50  ILE50       0.2287
     79  O         16.3010   16.1450   22.1060 O.2    50  ILE50      -0.2864
     80  CB        17.2260   13.2770   21.0910 C.3    50  ILE50       0.0276
     81  CG1       15.7550   13.3320   20.6530 C.3    50  ILE50       0.0022
     82  CG2       17.4040   12.6030   22.4200 C.3    50  ILE50       0.0022
     83  CD1       15.2480   11.9270   20.3280 C.3    50  ILE50       0.0001
     84  N         28.0660   11.0090   25.9110 N.3    80  THR80      -0.1204
     85  CA        27.0270   10.2940   25.1700 C.3    80  THR80       0.1979
     86  C         26.6520    9.0100   25.8700 C.2    80  THR80       0.2460
     87  O         27.5520    8.3330   26.3640 O.2    80  THR80      -0.2732
     88  CB        27.4950   10.0010   23.7140 C.3    80  THR80       0.1783
     89  OG1       26.4450    9.2950   23.0380 O.3    80  THR80      -0.2211
     90  CG2       28.7850    9.2140   23.6690 C.3    80  THR80       0.0376
     91  N         25.3660    8.6480   25.9460 N.am   81  PRO81      -0.2717
     92  CA        25.0230    7.3950   26.6290 C.3    81  PRO81       0.1535
     93  C         25.4070    6.1340   25.8710 C.2    81  PRO81       0.2598
     94  O         25.4490    5.0510   26.4530 O.2    81  PRO81      -0.2715
     95  CB        23.4910    7.5160   26.7210 C.3    81  PRO81       0.0310
     96  CG        23.0450    8.4210   25.6380 C.3    81  PRO81       0.0237
     97  CD        24.1980    9.4110   25.4880 C.3    81  PRO81       0.0939
     98  N         25.6610    6.2200   24.5770 N.am   82  ILE82      -0.1978
     99  CA        26.0650    5.1540   23.6860 C.3    82  ILE82       0.1596
    100  C         27.1810    5.6790   22.8040 C.2    82  ILE82       0.2287
    101  O         26.9990    6.7510   22.2700 O.2    82  ILE82      -0.2864
    102  CB        24.8940    4.6390   22.8210 C.3    82  ILE82       0.0276
    103  CG1       23.7050    4.1140   23.6460 C.3    82  ILE82       0.0022
    104  CG2       25.3670    3.5200   21.9250 C.3    82  ILE82       0.0022
    105  CD1       22.5160    3.6650   22.8210 C.3    82  ILE82       0.0001
    106  N         29.0890    6.2730   19.5170 N.3    84  ILE84      -0.1245
    107  CA        28.5500    6.2660   18.1720 C.3    84  ILE84       0.1561
    108  C         29.6400    6.6010   17.1520 C.2    84  ILE84       0.2260
    109  O         30.4480    7.5250   17.3120 O.2    84  ILE84      -0.2867
    110  CB        27.3330    7.1940   18.0290 C.3    84  ILE84       0.0252
    111  CG1       27.6000    8.6250   18.4910 C.3    84  ILE84       0.0019
    112  CG2       26.0840    6.6540   18.7550 C.3    84  ILE84       0.0019
    113  CD1       26.4990    9.6210   18.1720 C.3    84  ILE84       0.0001
@<TRIPOS>BOND
     1    43    42   ar
     2    42    44   ar
     3    42    41    1
     4    40    39    2
     5    41    38    1
     6    38    39    1
     7    38    37    1
     8    28    29    1
     9    35    34    2
    10    39    45   am
    11    29    30    1
    12    23    22    2
    13    22    21    1
    14    37    34   am
    15    34    33    1
    16    30    32   am
    17    30    31    2
    18    32    33    1
    19    20    21    1
    20    45    46    1
    21    51    50   ar
    22    21    24    1
    23    33    36    1
    24    46    47    1
    25    46    49    1
    26    50    52   ar
    27    50    49    1
    28    26    25   ar
    29    24    25    1
    30    47    48    2
    31    25    27   ar
    32    14    15    2
    33    14    13    1
    34     3     4    2
    35     3     2    1
    36     2     1    1
    37     2     5    1
    38   108   109    2
    39   108   107    1
    40    18    17    1
    41    13    16    1
    42    13    12    1
    43    17    16    1
    44    17    19    1
    45   110   107    1
    46   110   111    1
    47   110   112    1
    48   113   111    1
    49   107   106    1
    50     5     6    1
    51    71    70    2
    52    53    54    1
    53    60    58    1
    54     6     7    1
    55    58    57    1
    56    67    65    1
    57    68    69    1
    58    68    63   am
    59    66    65    1
    60    70    69    1
    61    70    72   am
    62    62    65    1
    63    62    63    1
    64    62    61    1
    65    54    57    1
    66    54    55    1
    67    73    72    1
    68    73    74    1
    69    57    59    1
    70    83    81    1
    71    63    64    2
    72     7     8    1
    73    74    75    2
    74    74    76   am
    75    81    80    1
    76    56    55    2
    77    76    77    1
    78    77    80    1
    79    77    78    1
    80    80    82    1
    81     8     9    2
    82   104   102    1
    83    79    78    2
    84   101   100    2
    85     9    11    1
    86     9    10    1
    87   100    99    1
    88   105   103    1
    89   102   103    1
    90   102    99    1
    91    89    88    1
    92    90    88    1
    93    99    98    1
    94    88    85    1
    95    98    93   am
    96    85    86    1
    97    85    84    1
    98    97    96    1
    99    97    91    1
   100    96    95    1
   101    86    91   am
   102    86    87    2
   103    93    94    2
   104    93    92    1
   105    91    92    1
   106    92    95    1
