@<TRIPOS>MOLECULE
tmp/3ecnB00.pdb
 140 134 0 0 0
SMALL
GASTEIGER

@<TRIPOS>ATOM
      1  N        -11.5510    8.5380  -22.7420 N.3    74  TYR74      -0.1227
      2  CA       -10.4590    7.5770  -22.8290 C.3    74  TYR74       0.1736
      3  C        -10.6900    6.2450  -22.1220 C.2    74  TYR74       0.2595
      4  O        -10.6550    5.1850  -22.7470 O.2    74  TYR74      -0.2718
      5  CB        -9.1730    8.2010  -22.2880 C.3    74  TYR74       0.0548
      6  CG        -7.9560    7.3370  -22.5020 C.ar   74  TYR74      -0.0200
      7  CD1       -7.2040    7.4380  -23.6700 C.ar   74  TYR74      -0.0009
      8  CD2       -7.5560    6.4120  -21.5330 C.ar   74  TYR74      -0.0009
      9  CE1       -6.0740    6.6380  -23.8710 C.ar   74  TYR74       0.0417
     10  CE2       -6.4400    5.6150  -21.7170 C.ar   74  TYR74       0.0417
     11  CZ        -5.6980    5.7300  -22.8910 C.ar   74  TYR74       0.1957
     12  OH        -4.5890    4.9390  -23.0700 O.3    74  TYR74      -0.2866
     13  N        -10.9140    6.3070  -20.8140 N.am   75  HIS75      -0.1975
     14  CA       -11.1030    5.1120  -20.0090 C.3    75  HIS75       0.1656
     15  C        -12.4450    4.4110  -20.1390 C.2    75  HIS75       0.2291
     16  O        -13.2150    4.3150  -19.1720 O.2    75  HIS75      -0.2864
     17  CB       -10.7970    5.4350  -18.5400 C.3    75  HIS75       0.0771
     18  CG        -9.3360    5.6220  -18.2690 C.ar   75  HIS75       0.0820
     19  ND1       -8.7800    6.8470  -17.9760 N.ar   75  HIS75      -0.2267
     20  CD2       -8.3090    4.7380  -18.2830 C.ar   75  HIS75       0.1154
     21  CE1       -7.4750    6.7130  -17.8190 C.ar   75  HIS75       0.1986
     22  NE2       -7.1640    5.4430  -18.0010 N.ar   75  HIS75      -0.2212
     23  N          0.4660    4.5580  -11.5320 N.3   189  MET189     -0.1245
     24  CA         1.6270    5.3220  -11.9760 C.3   189  MET189      0.1570
     25  C          2.6030    5.8750  -10.9410 C.2   189  MET189      0.2261
     26  O          3.7790    6.0640  -11.2580 O.2   189  MET189     -0.2867
     27  CB         1.1790    6.4350  -12.9310 C.3   189  MET189      0.0387
     28  CG         0.6980    5.8970  -14.2800 C.3   189  MET189      0.0595
     29  SD         1.8200    4.6370  -14.9720 S.3   189  MET189     -0.1393
     30  CE         2.9100    5.6460  -15.9670 C.3   189  MET189      0.0692
     31  N         -0.4010   -1.0960  -21.0900 N.3   245  ASP245     -0.1225
     32  CA        -1.2630   -0.0210  -20.6120 C.3   245  ASP245      0.1805
     33  C         -0.9690    1.3420  -21.2520 C.2   245  ASP245      0.2597
     34  O         -1.9010    2.0720  -21.5770 O.2   245  ASP245     -0.2718
     35  CB        -1.1420    0.0850  -19.0840 C.3   245  ASP245      0.1424
     36  CG        -2.2960    0.8590  -18.4410 C.2   245  ASP245      0.3668
     37  OD1       -3.2910    1.1570  -19.1370 O.co2 245  ASP245     -0.2456
     38  OD2       -2.2140    1.1510  -17.2260 O.co2 245  ASP245     -0.2456
     39  N          0.3090    1.6970  -21.4190 N.am  246  VAL246     -0.1980
     40  CA         0.6480    2.9920  -22.0260 C.3   246  VAL246      0.1595
     41  C          1.3950    2.8250  -23.3480 C.2   246  VAL246      0.2287
     42  O          2.3760    3.5150  -23.6180 O.2   246  VAL246     -0.2864
     43  CB         1.5070    3.8570  -21.0880 C.3   246  VAL246      0.0276
     44  CG1        0.7240    4.1770  -19.8190 C.3   246  VAL246      0.0022
     45  CG2        2.8000    3.1340  -20.7490 C.3   246  VAL246      0.0022
     46  N          0.1270    3.4580  -26.3300 N.3   248  ASN248     -0.1240
     47  CA        -0.4460    4.3110  -27.3790 C.3   248  ASN248      0.1653
     48  C          0.6220    4.9700  -28.2620 C.2   248  ASN248      0.2266
     49  O          0.4710    5.0230  -29.4800 O.2   248  ASN248     -0.2867
     50  CB        -1.3570    5.4040  -26.7830 C.3   248  ASN248      0.1155
     51  CG        -2.5320    4.8350  -25.9820 C.2   248  ASN248      0.2627
     52  OD1       -2.9000    3.6690  -26.1280 O.2   248  ASN248     -0.2716
     53  ND2       -3.1340    5.6740  -25.1460 N.am  248  ASN248     -0.0877
     54  N         -4.2500   10.2170  -27.9940 N.3   260  ALA260     -0.1245
     55  CA        -3.8290   11.4600  -27.3540 C.3   260  ALA260      0.1562
     56  C         -5.0020   12.4180  -27.2240 C.2   260  ALA260      0.2260
     57  O         -5.1400   13.0960  -26.2160 O.2   260  ALA260     -0.2867
     58  CB        -2.7010   12.1110  -28.1480 C.3   260  ALA260      0.0290
     59  N         -7.3500   10.9230  -24.2880 N.3   263  ILE263     -0.1231
     60  CA        -6.8320   11.1110  -22.9340 C.3   263  ILE263      0.1692
     61  C         -6.8090   12.5940  -22.5530 C.2   263  ILE263      0.2592
     62  O         -7.1370   12.9570  -21.4200 O.2   263  ILE263     -0.2718
     63  CB        -5.4100   10.5020  -22.7650 C.3   263  ILE263      0.0266
     64  CG1       -5.0500   10.4590  -21.2830 C.3   263  ILE263      0.0019
     65  CG2       -4.3640   11.3260  -23.5140 C.3   263  ILE263      0.0020
     66  CD1       -5.9620    9.5580  -20.4600 C.3   263  ILE263      0.0001
     67  N         -6.4290   13.4470  -23.5040 N.am  264  SER264     -0.1952
     68  CA        -6.3720   14.8890  -23.2720 C.3   264  SER264      0.1924
     69  C         -7.7540   15.4300  -22.8870 C.2   264  SER264      0.2314
     70  O         -7.8910   16.1620  -21.9080 O.2   264  SER264     -0.2863
     71  CB        -5.8630   15.6120  -24.5270 C.3   264  SER264      0.2116
     72  OG        -4.5430   15.2140  -24.8560 O.3   264  SER264     -0.2180
     73  N         -8.6530   14.5290  -19.3960 N.3   267  TYR267     -0.1241
     74  CA        -7.9330   15.3530  -18.4330 C.3   267  TYR267      0.1605
     75  C         -8.5080   16.7630  -18.3780 C.2   267  TYR267      0.2264
     76  O         -8.6410   17.3400  -17.2960 O.2   267  TYR267     -0.2867
     77  CB        -6.4510   15.4340  -18.7950 C.3   267  TYR267      0.0534
     78  CG        -5.6690   14.1780  -18.4980 C.ar  267  TYR267     -0.0201
     79  CD1       -4.3580   14.0320  -18.9500 C.ar  267  TYR267     -0.0009
     80  CD2       -6.2270   13.1420  -17.7420 C.ar  267  TYR267     -0.0009
     81  CE1       -3.6170   12.8850  -18.6540 C.ar  267  TYR267      0.0417
     82  CE2       -5.4950   11.9950  -17.4430 C.ar  267  TYR267      0.0417
     83  CZ        -4.1930   11.8760  -17.9010 C.ar  267  TYR267      0.1957
     84  OH        -3.4640   10.7540  -17.5950 O.3   267  TYR267     -0.2866
     85  N         -3.7090   18.8720  -12.2200 N.3   283  MET283     -0.1245
     86  CA        -3.1320   18.8850  -13.5660 C.3   283  MET283      0.1570
     87  C         -3.2060   20.2890  -14.1600 C.2   283  MET283      0.2261
     88  O         -3.8110   20.4890  -15.2160 O.2   283  MET283     -0.2867
     89  CB        -3.8990   17.9360  -14.4860 C.3   283  MET283      0.0387
     90  CG        -4.2460   16.5990  -13.8750 C.3   283  MET283      0.0595
     91  SD        -5.1400   15.5710  -15.0480 S.3   283  MET283     -0.1393
     92  CE        -3.8570   14.4280  -15.5110 C.3   283  MET283      0.0692
     93  N         -2.8290   20.6150  -17.7800 N.3   286  PHE286     -0.1241
     94  CA        -3.8780   20.0170  -18.5930 C.3   286  PHE286      0.1605
     95  C         -5.1810   20.8020  -18.5800 C.2   286  PHE286      0.2264
     96  O         -6.2390   20.2830  -18.2130 O.2   286  PHE286     -0.2867
     97  CB        -4.1110   18.5690  -18.1570 C.3   286  PHE286      0.0534
     98  CG        -2.9490   17.6590  -18.4540 C.ar  286  PHE286     -0.0203
     99  CD1       -2.5610   16.6830  -17.5460 C.ar  286  PHE286     -0.0042
    100  CD2       -2.2340   17.7900  -19.6410 C.ar  286  PHE286     -0.0042
    101  CE1       -1.4720   15.8500  -17.8130 C.ar  286  PHE286     -0.0003
    102  CE2       -1.1460   16.9630  -19.9180 C.ar  286  PHE286     -0.0003
    103  CZ        -0.7640   15.9930  -19.0010 C.ar  286  PHE286     -0.0000
    104  N          2.6360   18.1850  -24.8780 N.3   296  SER296     -0.1202
    105  CA         2.3450   17.3370  -23.7200 C.3   296  SER296      0.2020
    106  C          2.7190   15.8870  -24.0220 C.2   296  SER296      0.2618
    107  O          3.2730   15.1890  -23.1730 O.2   296  SER296     -0.2717
    108  CB         0.8570   17.4160  -23.3590 C.3   296  SER296      0.2103
    109  OG         0.5180   18.7140  -22.9060 O.3   296  SER296     -0.2182
    110  N          2.4110   15.4390  -25.2340 N.am  297  GLN297     -0.1979
    111  CA         2.7300   14.0800  -25.6330 C.3   297  GLN297      0.1601
    112  C          4.2370   13.8650  -25.6350 C.2   297  GLN297      0.2287
    113  O          4.7360   12.8480  -25.1480 O.2   297  GLN297     -0.2864
    114  CB         2.1440   13.7880  -27.0110 C.3   297  GLN297      0.0394
    115  CG         0.6360   13.6320  -26.9940 C.3   297  GLN297      0.0908
    116  CD         0.1770   12.5530  -26.0200 C.2   297  GLN297      0.2608
    117  OE1        0.5910   11.3990  -26.1160 O.2   297  GLN297     -0.2717
    118  NE2       -0.6820   12.9290  -25.0760 N.am  297  GLN297     -0.0878
    119  N          5.3930   13.6810  -22.1800 N.3   300  PHE300     -0.1241
    120  CA         4.9310   12.4170  -21.6380 C.3   300  PHE300      0.1605
    121  C          5.8610   11.2990  -22.1090 C.2   300  PHE300      0.2264
    122  O          6.3420   10.4890  -21.3090 O.2   300  PHE300     -0.2867
    123  CB         3.5030   12.1540  -22.1200 C.3   300  PHE300      0.0534
    124  CG         2.9910   10.7800  -21.7970 C.ar  300  PHE300     -0.0203
    125  CD1        2.8580   10.3630  -20.4780 C.ar  300  PHE300     -0.0042
    126  CD2        2.6420    9.9000  -22.8160 C.ar  300  PHE300     -0.0042
    127  CE1        2.3820    9.0840  -20.1770 C.ar  300  PHE300     -0.0003
    128  CE2        2.1650    8.6190  -22.5270 C.ar  300  PHE300     -0.0003
    129  CZ         2.0360    8.2120  -21.2030 C.ar  300  PHE300     -0.0000
    130  N          8.0870    9.1570  -19.3540 N.3   304  PHE304     -0.1241
    131  CA         7.7420    7.7760  -19.0460 C.3   304  PHE304      0.1605
    132  C          8.0710    6.7460  -20.1330 C.2   304  PHE304      0.2264
    133  O          8.7490    5.7500  -19.8810 O.2   304  PHE304     -0.2867
    134  CB         6.2460    7.6550  -18.7430 C.3   304  PHE304      0.0534
    135  CG         5.7780    8.4870  -17.5840 C.ar  304  PHE304     -0.0203
    136  CD1        5.3100    9.7800  -17.7820 C.ar  304  PHE304     -0.0042
    137  CD2        5.7670    7.9620  -16.2950 C.ar  304  PHE304     -0.0042
    138  CE1        4.8310   10.5400  -16.7120 C.ar  304  PHE304     -0.0003
    139  CE2        5.2920    8.7110  -15.2160 C.ar  304  PHE304     -0.0003
    140  CZ         4.8220   10.0010  -15.4240 C.ar  304  PHE304     -0.0000
@<TRIPOS>BOND
     1    49    48    2
     2    48    47    1
     3    58    55    1
     4    54    55    1
     5    47    50    1
     6    47    46    1
     7    55    56    1
     8    56    57    2
     9   114   115    1
    10   114   111    1
    11   115   116    1
    12    50    51    1
    13    52    51    2
    14   117   116    2
    15   116   118   am
    16    51    53   am
    17   112   111    1
    18   112   113    2
    19   111   110    1
    20   110   106   am
    21   104   105    1
    22    72    71    1
    23    71    68    1
    24    59    60    1
    25   106   105    1
    26   106   107    2
    27     9     7   ar
    28     9    11   ar
    29   105   108    1
    30     7     6   ar
    31    42    41    2
    32    65    63    1
    33    67    68    1
    34    67    61   am
    35   108   109    1
    36    41    40    1
    37    68    69    1
    38    12    11    1
    39    60    63    1
    40    60    61    1
    41    11    10   ar
    42    69    70    2
    43     2     1    1
    44     2     5    1
    45     2     3    1
    46   126   128   ar
    47   126   124   ar
    48    63    64    1
    49     4     3    2
    50    61    62    2
    51   128   129   ar
    52     6     5    1
    53     6     8   ar
    54   119   120    1
    55     3    13   am
    56   123   124    1
    57   123   120    1
    58   121   120    1
    59   121   122    2
    60    40    39    1
    61    40    43    1
    62   124   125   ar
    63    10     8   ar
    64    34    33    2
    65    39    33   am
    66    64    66    1
    67    33    32    1
    68   129   127   ar
    69    31    32    1
    70    43    45    1
    71    43    44    1
    72    13    14    1
    73    32    35    1
    74   125   127   ar
    75    15    14    1
    76    15    16    2
    77   132   133    2
    78   132   131    1
    79    14    17    1
    80   102   100   ar
    81   102   103   ar
    82   100    98   ar
    83    73    74    1
    84   130   131    1
    85    37    36   ar
    86    35    36    1
    87   131   134    1
    88   103   101   ar
    89    79    81   ar
    90    79    78   ar
    91    77    78    1
    92    77    74    1
    93   134   135    1
    94    81    83   ar
    95    94    95    1
    96    94    97    1
    97    94    93    1
    98    95    96    2
    99    17    18    1
   100    78    80   ar
   101    98    97    1
   102    98    99   ar
   103    36    38   ar
   104    74    75    1
   105    75    76    2
   106    20    18   ar
   107    20    22   ar
   108    18    19   ar
   109    22    21   ar
   110    19    21   ar
   111    83    84    1
   112    83    82   ar
   113   101    99   ar
   114   136   135   ar
   115   136   138   ar
   116    80    82   ar
   117   135   137   ar
   118   138   140   ar
   119   137   139   ar
   120    30    29    1
   121    92    91    1
   122   140   139   ar
   123    88    87    2
   124    91    90    1
   125    29    28    1
   126    89    90    1
   127    89    86    1
   128    28    27    1
   129    87    86    1
   130    86    85    1
   131    27    24    1
   132    24    23    1
   133    24    25    1
   134    26    25    2
