@<TRIPOS>MOLECULE
tmp/3ed0C00.pdb
 145 143 0 0 0
SMALL
GASTEIGER

@<TRIPOS>ATOM
      1  N        -29.6450   19.2570  -31.0470 N.3    12  ILE12      -0.1231
      2  CA       -30.1860   19.3020  -32.3990 C.3    12  ILE12       0.1692
      3  C        -31.2450   18.2240  -32.6250 C.2    12  ILE12       0.2592
      4  O        -32.3070   18.4910  -33.1950 O.2    12  ILE12      -0.2718
      5  CB       -29.0590   19.1480  -33.4590 C.3    12  ILE12       0.0266
      6  CG1      -27.9920   20.2340  -33.2600 C.3    12  ILE12       0.0019
      7  CG2      -29.6390   19.2410  -34.8600 C.3    12  ILE12       0.0020
      8  CD1      -28.5090   21.6480  -33.3850 C.3    12  ILE12       0.0001
      9  N        -30.9460   17.0070  -32.1840 N.am   13  LEU13      -0.1966
     10  CA       -31.8810   15.8970  -32.3320 C.3    13  LEU13       0.1713
     11  C        -32.8520   15.8530  -31.1580 C.2    13  LEU13       0.2458
     12  O        -32.4810   16.1400  -30.0270 O.2    13  LEU13      -0.2730
     13  CB       -31.1350   14.5580  -32.4160 C.3    13  LEU13       0.0310
     14  CG       -30.2420   14.2770  -33.6280 C.3    13  LEU13       0.0022
     15  CD1      -29.7980   12.8110  -33.6060 C.3    13  LEU13       0.0001
     16  CD2      -31.0120   14.5510  -34.8980 C.3    13  LEU13       0.0001
     17  N        -34.1190   15.5050  -31.4210 N.am   14  PRO14      -0.2716
     18  CA       -35.1350   15.4210  -30.3710 C.3    14  PRO14       0.1536
     19  C        -35.0590   14.0770  -29.6290 C.2    14  PRO14       0.2598
     20  O        -35.5110   13.9600  -28.4880 O.2    14  PRO14      -0.2715
     21  CB       -36.4360   15.5690  -31.1550 C.3    14  PRO14       0.0310
     22  CG       -36.1250   14.8140  -32.4060 C.3    14  PRO14       0.0237
     23  CD       -34.7300   15.3270  -32.7520 C.3    14  PRO14       0.0939
     24  N        -34.4850   13.0710  -30.2890 N.am   15  HIS15      -0.1974
     25  CA       -34.3550   11.7310  -29.7130 C.3    15  HIS15       0.1656
     26  C        -33.6290   11.7380  -28.3740 C.2    15  HIS15       0.2291
     27  O        -32.6810   12.4900  -28.1700 O.2    15  HIS15      -0.2864
     28  CB       -33.5780   10.8020  -30.6490 C.3    15  HIS15       0.0771
     29  CG       -34.1110   10.7530  -32.0430 C.ar   15  HIS15       0.0820
     30  ND1      -34.1400   11.8560  -32.8640 N.ar   15  HIS15      -0.2267
     31  CD2      -34.6130    9.7280  -32.7690 C.ar   15  HIS15       0.1154
     32  CE1      -34.6360   11.5130  -34.0380 C.ar   15  HIS15       0.1986
     33  NE2      -34.9300   10.2260  -34.0070 N.ar   15  HIS15      -0.2212
     34  N        -31.7300    2.9650  -38.0800 N.3    64  GLU64      -0.1245
     35  CA       -32.2500    4.1060  -37.3320 C.3    64  GLU64       0.1567
     36  C        -31.1170    5.0880  -37.0530 C.2    64  GLU64       0.2260
     37  O        -31.3060    6.3010  -37.1240 O.2    64  GLU64      -0.2867
     38  CB       -32.8700    3.6390  -36.0150 C.3    64  GLU64       0.0388
     39  CG       -33.2310    4.7690  -35.0540 C.3    64  GLU64       0.1160
     40  CD       -34.3750    5.6360  -35.5410 C.2    64  GLU64       0.3649
     41  OE1      -34.5660    6.7240  -34.9680 O.co2  64  GLU64      -0.2457
     42  OE2      -35.0910    5.2330  -36.4810 O.co2  64  GLU64      -0.2457
     43  N        -30.3320    6.9100  -40.0740 N.3    67  ALA67      -0.1231
     44  CA       -31.3930    7.8900  -40.3050 C.3    67  ALA67       0.1694
     45  C        -31.1650    9.1360  -39.4500 C.2    67  ALA67       0.2591
     46  O        -31.3450   10.2640  -39.9110 O.2    67  ALA67      -0.2718
     47  CB       -32.7540    7.2810  -39.9870 C.3    67  ALA67       0.0304
     48  N        -30.7640    8.9280  -38.2020 N.am   68  GLN68      -0.1979
     49  CA       -30.5070   10.0530  -37.3240 C.3    68  GLN68       0.1601
     50  C        -29.3520   10.8760  -37.8860 C.2    68  GLN68       0.2287
     51  O        -29.4000   12.1070  -37.8820 O.2    68  GLN68      -0.2864
     52  CB       -30.2110    9.5640  -35.8980 C.3    68  GLN68       0.0394
     53  CG       -31.4830    9.3520  -35.0680 C.3    68  GLN68       0.0908
     54  CD       -31.2830    8.4980  -33.8160 C.2    68  GLN68       0.2608
     55  OE1      -30.3180    8.6710  -33.0680 O.2    68  GLN68      -0.2717
     56  NE2      -32.2140    7.5800  -33.5790 N.am   68  GLN68      -0.0878
     57  N        -30.5510   12.9520  -40.6780 N.3    71  GLY71      -0.1210
     58  CA       -31.3400   14.0490  -40.1510 C.3    71  GLY71       0.1956
     59  C        -30.4640   15.1900  -39.6640 C.2    71  GLY71       0.2611
     60  O        -30.7230   16.3530  -39.9650 O.2    71  GLY71      -0.2717
     61  N        -29.4240   14.8600  -38.9090 N.am   72  PHE72      -0.1976
     62  CA       -28.5040   15.8670  -38.3970 C.3    72  PHE72       0.1639
     63  C        -27.8510   16.6050  -39.5740 C.2    72  PHE72       0.2290
     64  O        -27.6740   17.8190  -39.5470 O.2    72  PHE72      -0.2864
     65  CB       -27.4230   15.1940  -37.5540 C.3    72  PHE72       0.0560
     66  CG       -26.5500   16.1530  -36.7990 C.ar   72  PHE72      -0.0200
     67  CD1      -26.8530   16.5020  -35.4850 C.ar   72  PHE72      -0.0042
     68  CD2      -25.4110   16.6910  -37.3920 C.ar   72  PHE72      -0.0042
     69  CE1      -26.0330   17.3710  -34.7640 C.ar   72  PHE72      -0.0003
     70  CE2      -24.5790   17.5640  -36.6850 C.ar   72  PHE72      -0.0003
     71  CZ       -24.8910   17.9030  -35.3640 C.ar   72  PHE72      -0.0000
     72  N        -30.5710   18.8800  -41.2680 N.3    75  PHE75      -0.1241
     73  CA       -30.8040   20.0450  -40.4240 C.3    75  PHE75       0.1605
     74  C        -29.6600   21.0460  -40.3690 C.2    75  PHE75       0.2264
     75  O        -29.8760   22.2470  -40.5310 O.2    75  PHE75      -0.2867
     76  CB       -31.1370   19.6580  -38.9910 C.3    75  PHE75       0.0534
     77  CG       -31.4870   20.8410  -38.1370 C.ar   75  PHE75      -0.0203
     78  CD1      -32.7860   21.3360  -38.1130 C.ar   75  PHE75      -0.0042
     79  CD2      -30.5020   21.5110  -37.4160 C.ar   75  PHE75      -0.0042
     80  CE1      -33.0960   22.4860  -37.3820 C.ar   75  PHE75      -0.0003
     81  CE2      -30.8060   22.6600  -36.6880 C.ar   75  PHE75      -0.0003
     82  CZ       -32.1040   23.1480  -36.6700 C.ar   75  PHE75      -0.0000
     83  N        -33.8690   24.2140  -33.9530 N.3    86  ALA86      -0.1245
     84  CA       -34.0070   22.7550  -33.9320 C.3    86  ALA86       0.1562
     85  C        -35.2850   22.3340  -33.2090 C.2    86  ALA86       0.2260
     86  O        -35.9610   21.3910  -33.6200 O.2    86  ALA86      -0.2867
     87  CB       -32.7910   22.1200  -33.2570 C.3    86  ALA86       0.0290
     88  N        -38.5150   22.0950  -35.4800 N.3    89  LYS89      -0.1231
     89  CA       -38.5400   21.2460  -36.6680 C.3    89  LYS89       0.1693
     90  C        -38.6200   19.7560  -36.3450 C.2    89  LYS89       0.2592
     91  O        -38.3380   19.3310  -35.2200 O.2    89  LYS89      -0.2718
     92  CB       -37.2680   21.4700  -37.4950 C.3    89  LYS89       0.0285
     93  CG       -36.9490   22.9180  -37.8250 C.3    89  LYS89       0.0035
     94  CD       -37.9910   23.5160  -38.7520 C.3    89  LYS89       0.0206
     95  CE       -37.7150   24.9900  -39.0010 C.3    89  LYS89       0.1093
     96  NZ       -38.7480   25.6080  -39.8680 N.3    89  LYS89      -0.1314
     97  N        -39.0160   18.9710  -37.3410 N.am   90  ILE90      -0.1966
     98  CA       -39.0600   17.5210  -37.2080 C.3    90  ILE90       0.1727
     99  C        -38.6850   16.9770  -38.5730 C.2    90  ILE90       0.2616
    100  O        -38.9260   17.6270  -39.5870 O.2    90  ILE90      -0.2715
    101  CB       -40.4660   16.9410  -36.8090 C.3    90  ILE90       0.0290
    102  CG1      -41.3090   16.6490  -38.0490 C.3    90  ILE90       0.0022
    103  CG2      -41.2150   17.9060  -35.9190 C.3    90  ILE90       0.0023
    104  CD1      -41.7650   17.8810  -38.7930 C.3    90  ILE90       0.0001
    105  N        -38.0820   15.7950  -38.5930 N.am   91  VAL91      -0.1963
    106  CA       -37.6860   15.1450  -39.8360 C.3    91  VAL91       0.1727
    107  C        -38.4390   13.8220  -39.9200 C.2    91  VAL91       0.2616
    108  O        -38.0170   12.8470  -39.2930 O.2    91  VAL91      -0.2715
    109  CB       -36.1590   14.8550  -39.8430 C.3    91  VAL91       0.0290
    110  CG1      -35.7650   14.1040  -41.1110 C.3    91  VAL91       0.0023
    111  CG2      -35.3810   16.1570  -39.7360 C.3    91  VAL91       0.0023
    112  N        -39.5590   13.7770  -40.6490 N.am   92  TYR92      -0.1960
    113  CA       -40.3050   12.5160  -40.7700 C.3    92  TYR92       0.1771
    114  C        -39.6020   11.6520  -41.8110 C.2    92  TYR92       0.2619
    115  O        -39.3300   12.1100  -42.9250 O.2    92  TYR92      -0.2715
    116  CB       -41.7440   12.6840  -41.2930 C.3    92  TYR92       0.0574
    117  CG       -42.6590   13.7160  -40.6670 C.ar   92  TYR92      -0.0198
    118  CD1      -42.7910   13.8410  -39.2820 C.ar   92  TYR92      -0.0009
    119  CD2      -43.4780   14.5130  -41.4800 C.ar   92  TYR92      -0.0009
    120  CE1      -43.7360   14.7440  -38.7200 C.ar   92  TYR92       0.0417
    121  CE2      -44.4150   15.4070  -40.9370 C.ar   92  TYR92       0.0417
    122  CZ       -44.5420   15.5200  -39.5600 C.ar   92  TYR92       0.1957
    123  OH       -45.4770   16.4070  -39.0280 O.3    92  TYR92      -0.2866
    124  N        -39.3020   10.4090  -41.4670 N.am   93  PHE93      -0.1974
    125  CA       -38.6920    9.5360  -42.4510 C.3    93  PHE93       0.1639
    126  C        -39.8260    8.8310  -43.1660 C.2    93  PHE93       0.2290
    127  O        -40.6460    8.1440  -42.5480 O.2    93  PHE93      -0.2864
    128  CB       -37.7120    8.5630  -41.8070 C.3    93  PHE93       0.0560
    129  CG       -36.3130    9.1050  -41.7570 C.ar   93  PHE93      -0.0200
    130  CD1      -35.8750    9.8490  -40.6660 C.ar   93  PHE93      -0.0042
    131  CD2      -35.4640    8.9590  -42.8590 C.ar   93  PHE93      -0.0042
    132  CE1      -34.6200   10.4460  -40.6670 C.ar   93  PHE93      -0.0003
    133  CE2      -34.2080    9.5490  -42.8760 C.ar   93  PHE93      -0.0003
    134  CZ       -33.7840   10.2980  -41.7740 C.ar   93  PHE93      -0.0000
    135  N        -42.4300   21.4820  -36.2930 N.3   150  ARG150     -0.1245
    136  CA       -42.8600   20.5800  -35.2250 C.3   150  ARG150      0.1563
    137  C        -44.2430   21.0000  -34.7530 C.2   150  ARG150      0.2260
    138  O        -44.5550   22.1950  -34.9810 O.2   150  ARG150     -0.2867
    139  CB       -41.8820   20.6120  -34.0400 C.3   150  ARG150      0.0307
    140  CG       -42.2360   19.6030  -32.9410 C.3   150  ARG150      0.0489
    141  CD       -41.1510   19.4860  -31.8750 C.3   150  ARG150      0.2205
    142  NE       -39.8450   19.1680  -32.4520 N.pl3 150  ARG150     -0.0865
    143  CZ       -38.7250   19.0150  -31.7480 C.cat 150  ARG150      0.5346
    144  NH1      -38.7430   19.1430  -30.4220 N.pl3 150  ARG150      0.1354
    145  NH2      -37.5790   18.7580  -32.3750 N.pl3 150  ARG150      0.1354
@<TRIPOS>BOND
     1   126   127    2
     2   126   125    1
     3   115   114    2
     4   133   131   ar
     5   133   134   ar
     6   131   129   ar
     7   125   128    1
     8   125   124    1
     9   114   124   am
    10   114   113    1
    11   128   129    1
    12   134   132   ar
    13   129   130   ar
    14   119   121   ar
    15   119   117   ar
    16   116   113    1
    17   116   117    1
    18    72    73    1
    19   110   109    1
    20   121   122   ar
    21   113   112    1
    22    57    58    1
    23   132   130   ar
    24   117   118   ar
    25   112   107   am
    26    75    74    2
    27    73    74    1
    28    73    76    1
    29    44    43    1
    30    44    47    1
    31    44    45    1
    32    58    59    1
    33    60    59    2
    34   107   106    1
    35   107   108    2
    36    46    45    2
    37    96    95    1
    38   109   106    1
    39   109   111    1
    40   106   105    1
    41    59    61   am
    42   100    99    2
    43    63    64    2
    44    63    62    1
    45   122   123    1
    46   122   120   ar
    47    45    48   am
    48   118   120   ar
    49    95    94    1
    50    76    77    1
    51    61    62    1
    52   104   102    1
    53    94    93    1
    54   105    99   am
    55    99    98    1
    56    62    65    1
    57    48    49    1
    58    77    78   ar
    59    77    79   ar
    60    78    80   ar
    61    34    35    1
    62   102   101    1
    63    50    51    2
    64    50    49    1
    65    93    92    1
    66    65    66    1
    67    92    89    1
    68    79    81   ar
    69    68    66   ar
    70    68    70   ar
    71    80    82   ar
    72    97    98    1
    73    97    90   am
    74    35    36    1
    75    35    38    1
    76    49    52    1
    77    98   101    1
    78    37    36    2
    79   101   103    1
    80    66    67   ar
    81    81    82   ar
    82    70    71   ar
    83    89    90    1
    84    89    88    1
    85    42    40   ar
    86    90    91    2
    87   135   136    1
    88    38    39    1
    89    52    53    1
    90    40    39    1
    91    40    41   ar
    92    67    69   ar
    93    71    69   ar
    94   136   137    1
    95   136   139    1
    96    53    54    1
    97   138   137    2
    98    16    14    1
    99     7     5    1
   100   139   140    1
   101    32    33   ar
   102    32    30   ar
   103    33    31   ar
   104    83    84    1
   105    84    87    1
   106    84    85    1
   107    54    56   am
   108    54    55    2
   109    14    15    1
   110    14    13    1
   111    86    85    2
   112     5     6    1
   113     5     2    1
   114     8     6    1
   115     4     3    2
   116   140   141    1
   117    30    29   ar
   118    31    29   ar
   119    23    22    1
   120    23    17    1
   121     3     2    1
   122     3     9   am
   123   142   141    1
   124   142   143    2
   125    13    10    1
   126    22    21    1
   127     2     1    1
   128   145   143    1
   129    10     9    1
   130    10    11    1
   131    29    28    1
   132   143   144    1
   133    17    11   am
   134    17    18    1
   135    11    12    2
   136    21    18    1
   137    28    25    1
   138    18    19    1
   139    24    25    1
   140    24    19   am
   141    25    26    1
   142    19    20    2
   143    26    27    2
