@<TRIPOS>MOLECULE
tmp/3edcA00.pdb
 133 124 0 0 0
SMALL
GASTEIGER

@<TRIPOS>ATOM
      1  N         43.7800    5.5480    9.4740 N.3     9  SER9       -0.1217
      2  CA        43.2000    6.4120    8.4090 C.3     9  SER9        0.1889
      3  C         43.1760    7.8850    8.8780 C.2     9  SER9        0.2288
      4  O         42.8750    8.1230   10.0390 O.2     9  SER9       -0.2866
      5  CB        41.7460    5.9420    8.1210 C.3     9  SER9        0.2089
      6  OG        41.5380    4.4960    8.2570 O.3     9  SER9       -0.2183
      7  N         41.5260   10.7720    7.4420 N.3    11  LEU11      -0.1245
      8  CA        40.4980   11.4410    6.7120 C.3    11  LEU11       0.1561
      9  C         39.4410   12.0290    7.6700 C.2    11  LEU11       0.2260
     10  O         38.4350   12.5940    7.1850 O.2    11  LEU11      -0.2867
     11  CB        39.8270   10.4470    5.7160 C.3    11  LEU11       0.0270
     12  CG        40.6190    9.9240    4.5040 C.3    11  LEU11       0.0019
     13  CD1       39.8390    8.8640    3.6740 C.3    11  LEU11       0.0001
     14  CD2       41.0170   11.0940    3.6290 C.3    11  LEU11       0.0001
     15  N         37.3490   10.6430    9.2310 N.3    13  LEU13      -0.1245
     16  CA        36.0980    9.9020    9.0960 C.3    13  LEU13       0.1561
     17  C         35.6840    9.4380   10.4800 C.2    13  LEU13       0.2260
     18  O         36.5230    9.1570   11.3500 O.2    13  LEU13      -0.2867
     19  CB        36.2800    8.7580    8.1100 C.3    13  LEU13       0.0270
     20  CG        36.5590    9.3370    6.7140 C.3    13  LEU13       0.0019
     21  CD1       36.9990    8.2350    5.7700 C.3    13  LEU13       0.0001
     22  CD2       35.3230   10.0410    6.1780 C.3    13  LEU13       0.0001
     23  N         34.1020    6.8150   11.7860 N.3    15  ALA15      -0.1231
     24  CA        34.2810    5.4500   12.2720 C.3    15  ALA15       0.1679
     25  C         35.7070    5.2390   12.7840 C.2    15  ALA15       0.2434
     26  O         35.8870    4.7160   13.8730 O.2    15  ALA15      -0.2733
     27  CB        33.8930    4.4430   11.2020 C.3    15  ALA15       0.0304
     28  N         36.7390    5.6140   11.9920 N.am   16  PRO16      -0.2729
     29  CA        38.1120    5.4410   12.5110 C.3    16  PRO16       0.1401
     30  C         38.4360    6.2160   13.7970 C.2    16  PRO16       0.2269
     31  O         39.1750    5.7010   14.6470 O.2    16  PRO16      -0.2865
     32  CB        39.0240    5.8650   11.3300 C.3    16  PRO16       0.0296
     33  CG        38.1340    5.9380   10.1530 C.3    16  PRO16       0.0237
     34  CD        36.7210    6.1030   10.6090 C.3    16  PRO16       0.0939
     35  N         36.9410    4.3410   16.6220 N.3    19  ILE19      -0.1245
     36  CA        37.7710    3.1580   16.8750 C.3    19  ILE19       0.1561
     37  C         39.0020    3.5140   17.6920 C.2    19  ILE19       0.2260
     38  O         39.3280    2.7970   18.6480 O.2    19  ILE19      -0.2867
     39  CB        38.1710    2.4280   15.5700 C.3    19  ILE19       0.0252
     40  CG1       36.9350    1.7400   14.9720 C.3    19  ILE19       0.0019
     41  CG2       39.2200    1.4090   15.8310 C.3    19  ILE19       0.0019
     42  CD1       37.1190    1.2450   13.5340 C.3    19  ILE19       0.0001
     43  N         46.3480    8.8900    2.3630 N.3    41  ARG41      -0.1245
     44  CA        45.4370    8.1090    1.4950 C.3    41  ARG41       0.1563
     45  C         46.1300    7.0330    0.6250 C.2    41  ARG41       0.2260
     46  O         45.4690    6.1590    0.0580 O.2    41  ARG41      -0.2867
     47  CB        44.6870    9.0540    0.5130 C.3    41  ARG41       0.0307
     48  CG        43.4840    9.8420    1.0550 C.3    41  ARG41       0.0489
     49  CD        42.5810   10.4060   -0.0890 C.3    41  ARG41       0.2205
     50  NE        41.6060   11.3940    0.4120 N.pl3  41  ARG41      -0.0865
     51  CZ        40.4490   11.7220   -0.1810 C.cat  41  ARG41       0.5346
     52  NH1       40.0740   11.1620   -1.3280 N.pl3  41  ARG41       0.1354
     53  NH2       39.6410   12.6260    0.3810 N.pl3  41  ARG41       0.1354
     54  N         43.5970    0.5760    9.0280 N.3    66  TYR66      -0.1228
     55  CA        43.8640    1.1690    7.7260 C.3    66  TYR66       0.1721
     56  C         43.6090    0.1350    6.6480 C.2    66  TYR66       0.2437
     57  O         44.0180   -1.0260    6.7980 O.2    66  TYR66      -0.2733
     58  CB        45.3030    1.6530    7.6190 C.3    66  TYR66       0.0547
     59  CG        45.5580    2.4870    6.3690 C.ar   66  TYR66      -0.0200
     60  CD1       45.2770    3.8480    6.3340 C.ar   66  TYR66      -0.0009
     61  CD2       46.0910    1.8920    5.2200 C.ar   66  TYR66      -0.0009
     62  CE1       45.5040    4.5890    5.1640 C.ar   66  TYR66       0.0417
     63  CE2       46.3260    2.5960    4.0840 C.ar   66  TYR66       0.0417
     64  CZ        46.0500    3.9460    4.0450 C.ar   66  TYR66       0.1957
     65  OH        46.3440    4.6230    2.8820 O.3    66  TYR66      -0.2866
     66  N         42.8590    0.5170    5.5970 N.am   67  PRO67      -0.2729
     67  CA        42.4380   -0.5330    4.6790 C.3    67  PRO67       0.1401
     68  C         43.5940   -1.0560    3.8900 C.2    67  PRO67       0.2269
     69  O         44.2990   -0.2710    3.2770 O.2    67  PRO67      -0.2865
     70  CB        41.4480    0.1670    3.7670 C.3    67  PRO67       0.0296
     71  CG        41.7640    1.5850    3.8470 C.3    67  PRO67       0.0237
     72  CD        42.2990    1.8190    5.2290 C.3    67  PRO67       0.0939
     73  N         41.2740   -3.6660    9.1860 N.3    89  ASP89      -0.1239
     74  CA        40.6230   -3.2790    7.9270 C.3    89  ASP89       0.1674
     75  C         41.2540   -4.0320    6.7530 C.2    89  ASP89       0.2266
     76  O         42.0080   -3.4860    5.9480 O.2    89  ASP89      -0.2867
     77  CB        40.6820   -1.7520    7.7330 C.3    89  ASP89       0.1410
     78  CG        39.6850   -1.2320    6.7030 C.2    89  ASP89       0.3668
     79  OD1       39.0850   -2.0580    6.0060 O.co2  89  ASP89      -0.2456
     80  OD2       39.5250    0.0120    6.5580 O.co2  89  ASP89      -0.2456
     81  N         39.2590    0.7350   -1.1140 N.3   131  SER131     -0.1217
     82  CA        39.1440    0.1800    0.2170 C.3   131  SER131      0.1889
     83  C         38.6230   -1.2270    0.1490 C.2   131  SER131      0.2288
     84  O         37.5450   -1.4540   -0.3490 O.2   131  SER131     -0.2866
     85  CB        38.1510    0.9910    1.0780 C.3   131  SER131      0.2089
     86  OG        37.6540    0.2370    2.1870 O.3   131  SER131     -0.2183
     87  N         37.3150   -2.9860    2.5740 N.3   133  SER133     -0.1217
     88  CA        36.0100   -3.0030    3.2570 C.3   133  SER133      0.1889
     89  C         34.8770   -2.5070    2.3720 C.2   133  SER133      0.2288
     90  O         33.8170   -3.1180    2.3650 O.2   133  SER133     -0.2866
     91  CB        36.0470   -2.2330    4.5950 C.3   133  SER133      0.2089
     92  OG        36.8960   -2.9320    5.4800 O.3   133  SER133     -0.2183
     93  N         31.7380   -4.8940    1.2390 N.3   137  ARG137     -0.1245
     94  CA        30.3710   -4.4670    1.4150 C.3   137  ARG137      0.1563
     95  C         29.5880   -4.4890    0.1270 C.2   137  ARG137      0.2260
     96  O         28.4620   -4.9810    0.1040 O.2   137  ARG137     -0.2867
     97  CB        30.3170   -3.0630    2.0310 C.3   137  ARG137      0.0307
     98  CG        30.5040   -3.1190    3.5030 C.3   137  ARG137      0.0489
     99  CD        30.7150   -1.7940    4.1970 C.3   137  ARG137      0.2205
    100  NE        31.5750   -1.9430    5.3660 N.pl3 137  ARG137     -0.0865
    101  CZ        31.9780   -0.9250    6.1090 C.cat 137  ARG137      0.5346
    102  NH1       31.5690    0.3040    5.8090 N.pl3 137  ARG137      0.1354
    103  NH2       32.7750   -1.1310    7.1570 N.pl3 137  ARG137      0.1354
    104  N         33.3580    8.0230    1.0470 N.3   160  TRP160     -0.1241
    105  CA        33.0590    7.9780    2.4960 C.3   160  TRP160      0.1605
    106  C         32.5050    9.3100    3.0600 C.2   160  TRP160      0.2264
    107  O         31.9760    9.3730    4.1920 O.2   160  TRP160     -0.2867
    108  CB        34.2860    7.5920    3.3140 C.3   160  TRP160      0.0550
    109  CG        34.9350    6.2770    3.0620 C.ar  160  TRP160      0.0003
    110  CD1       36.2710    6.0580    2.8050 C.ar  160  TRP160      0.0946
    111  CD2       34.3330    4.9740    3.1620 C.ar  160  TRP160      0.0152
    112  NE1       36.5260    4.7110    2.7160 N.ar  160  TRP160     -0.2442
    113  CE2       35.3570    4.0230    2.9440 C.ar  160  TRP160      0.0810
    114  CE3       33.0350    4.5180    3.4220 C.ar  160  TRP160      0.0012
    115  CZ2       35.1190    2.6640    2.9560 C.ar  160  TRP160      0.0191
    116  CZ3       32.8100    3.1400    3.4590 C.ar  160  TRP160      0.0001
    117  CH2       33.8410    2.2370    3.2160 C.ar  160  TRP160      0.0015
    118  N         28.3600    3.7680    4.3290 N.3   186  ASN186     -0.1240
    119  CA        28.6000    4.3130    5.6460 C.3   186  ASN186      0.1653
    120  C         27.5620    5.3680    5.9890 C.2   186  ASN186      0.2266
    121  O         26.7840    5.7250    5.1730 O.2   186  ASN186     -0.2867
    122  CB        30.0290    4.8320    5.8210 C.3   186  ASN186      0.1155
    123  CG        30.2410    6.1990    5.2200 C.2   186  ASN186      0.2627
    124  OD1       29.4270    6.6950    4.4330 O.2   186  ASN186     -0.2716
    125  ND2       31.3210    6.8350    5.6140 N.am  186  ASN186     -0.0877
    126  N         27.4440    1.4680   10.0190 N.3   214  ASP214     -0.1239
    127  CA        28.3860    1.7890   11.1090 C.3   214  ASP214      0.1674
    128  C         27.6110    2.0700   12.4210 C.2   214  ASP214      0.2266
    129  O         28.0240    1.6580   13.5000 O.2   214  ASP214     -0.2867
    130  CB        29.2400    3.0530   10.8400 C.3   214  ASP214      0.1410
    131  CG        30.4020    2.8340    9.9140 C.2   214  ASP214      0.3668
    132  OD1       30.8310    1.6780    9.7190 O.co2 214  ASP214     -0.2456
    133  OD2       30.8790    3.8710    9.3970 O.co2 214  ASP214     -0.2456
@<TRIPOS>BOND
     1    52    51    1
     2    81    82    1
     3    84    83    2
     4    51    53    1
     5    51    50    2
     6    49    50    1
     7    49    48    1
     8    46    45    2
     9    96    95    2
    10    95    94    1
    11    83    82    1
    12    82    85    1
    13    47    48    1
    14    47    44    1
    15    45    44    1
    16   104   105    1
    17    85    86    1
    18    93    94    1
    19    94    97    1
    20    44    43    1
    21    97    98    1
    22    90    89    2
    23    89    88    1
    24   105   106    1
    25   105   108    1
    26    87    88    1
    27   112   110   ar
    28   112   113   ar
    29   110   109   ar
    30    65    64    1
    31   113   115   ar
    32   113   111   ar
    33   115   117   ar
    34   106   107    2
    35   109   111   ar
    36   109   108    1
    37   111   114   ar
    38   117   116   ar
    39    88    91    1
    40    69    68    2
    41   114   116   ar
    42    98    99    1
    43    14    12    1
    44    13    12    1
    45    70    71    1
    46    70    67    1
    47    71    72    1
    48    68    67    1
    49    64    63   ar
    50    64    62   ar
    51    63    61   ar
    52    99   100    1
    53   118   119    1
    54   124   123    2
    55    12    11    1
    56    91    92    1
    57    67    66    1
    58    62    60   ar
    59   121   120    2
    60   123   125   am
    61   123   122    1
    62    61    59   ar
    63    72    66    1
    64   100   101    2
    65    66    56   am
    66   119   122    1
    67   119   120    1
    68    11     8    1
    69    21    20    1
    70   102   101    1
    71    76    75    2
    72    79    78   ar
    73   101   103    1
    74    22    20    1
    75    60    59   ar
    76    59    58    1
    77    80    78   ar
    78    56    57    2
    79    56    55    1
    80    78    77    1
    81     8     7    1
    82     8     9    1
    83    20    19    1
    84    75    74    1
    85    10     9    2
    86    58    55    1
    87    55    54    1
    88    77    74    1
    89    74    73    1
    90    19    16    1
    91     5     6    1
    92     5     2    1
    93     2     3    1
    94     2     1    1
    95     3     4    2
    96    16    15    1
    97    16    17    1
    98   133   131   ar
    99   132   131   ar
   100   131   130    1
   101   126   127    1
   102    33    34    1
   103    33    32    1
   104    17    18    2
   105    34    28    1
   106   130   127    1
   107   127   128    1
   108    27    24    1
   109    32    29    1
   110    23    24    1
   111    28    29    1
   112    28    25   am
   113    24    25    1
   114   128   129    2
   115    29    30    1
   116    25    26    2
   117    42    40    1
   118    30    31    2
   119    40    39    1
   120    39    41    1
   121    39    36    1
   122    35    36    1
   123    36    37    1
   124    37    38    2
