@<TRIPOS>MOLECULE
tmp/3edfB01.pdb
 200 194 0 0 0
SMALL
GASTEIGER

@<TRIPOS>ATOM
      1  N        100.2840   39.5850   97.0250 N.3   178  TYR178     -0.1227
      2  CA        99.3030   40.6440   96.8820 C.3   178  TYR178      0.1736
      3  C         98.3660   40.4180   95.6880 C.2   178  TYR178      0.2595
      4  O         97.2380   40.9370   95.6850 O.2   178  TYR178     -0.2718
      5  CB        99.9860   42.0140   96.7200 C.3   178  TYR178      0.0548
      6  CG       100.5060   42.2640   95.3090 C.ar  178  TYR178     -0.0200
      7  CD1      101.7230   41.7360   94.8890 C.ar  178  TYR178     -0.0009
      8  CD2       99.7800   43.0480   94.4050 C.ar  178  TYR178     -0.0009
      9  CE1      102.2030   41.9330   93.5690 C.ar  178  TYR178      0.0417
     10  CE2      100.2480   43.2830   93.1070 C.ar  178  TYR178      0.0417
     11  CZ       101.4580   42.7390   92.6960 C.ar  178  TYR178      0.1957
     12  OH       101.9090   42.9820   91.4230 O.3   178  TYR178     -0.2866
     13  N         98.8460   39.6820   94.6750 N.am  179  HIS179     -0.1975
     14  CA        98.1230   39.6650   93.3700 C.3   179  HIS179      0.1656
     15  C         96.9120   38.7110   93.3570 C.2   179  HIS179      0.2291
     16  O         95.9670   38.8930   92.5750 O.2   179  HIS179     -0.2864
     17  CB        99.0620   39.4250   92.1820 C.3   179  HIS179      0.0771
     18  CG        99.7450   38.0980   92.2160 C.ar  179  HIS179      0.0820
     19  ND1      101.1150   37.9590   92.2890 N.ar  179  HIS179     -0.2267
     20  CD2       99.2440   36.8420   92.1650 C.ar  179  HIS179      0.1154
     21  CE1      101.4320   36.6750   92.2600 C.ar  179  HIS179      0.1986
     22  NE2      100.3110   35.9740   92.2020 N.ar  179  HIS179     -0.2212
     23  N         96.5390   35.4810   92.6160 N.3   181  TYR181     -0.1241
     24  CA        96.3850   34.4080   91.6130 C.3   181  TYR181      0.1605
     25  C         96.9250   33.0500   92.0320 C.2   181  TYR181      0.2264
     26  O         96.9190   32.1220   91.2280 O.2   181  TYR181     -0.2867
     27  CB        96.9340   34.8250   90.2120 C.3   181  TYR181      0.0534
     28  CG        96.0450   35.8650   89.5900 C.ar  181  TYR181     -0.0201
     29  CD1       94.8360   35.4940   88.9590 C.ar  181  TYR181     -0.0009
     30  CD2       96.3430   37.2300   89.7100 C.ar  181  TYR181     -0.0009
     31  CE1       93.9490   36.4580   88.4440 C.ar  181  TYR181      0.0417
     32  CE2       95.4820   38.2060   89.1910 C.ar  181  TYR181      0.0417
     33  CZ        94.2710   37.8000   88.5470 C.ar  181  TYR181      0.1957
     34  OH        93.4270   38.7670   88.0440 O.3   181  TYR181     -0.2866
     35  N         95.3050   26.3990   88.6160 N.3   221  HIS221     -0.1241
     36  CA        96.4090   26.3200   89.5850 C.3   221  HIS221      0.1621
     37  C         96.0890   26.8880   90.9720 C.2   221  HIS221      0.2264
     38  O         95.1360   27.6430   91.1900 O.2   221  HIS221     -0.2867
     39  CB        97.6530   27.0270   89.0300 C.3   221  HIS221      0.0745
     40  CG        97.4440   28.4800   88.7110 C.ar  221  HIS221      0.0817
     41  ND1       97.1420   28.9160   87.4400 N.ar  221  HIS221     -0.2268
     42  CD2       97.5510   29.5930   89.4740 C.ar  221  HIS221      0.1154
     43  CE1       97.0440   30.2370   87.4350 C.ar  221  HIS221      0.1986
     44  NE2       97.2930   30.6740   88.6570 N.ar  221  HIS221     -0.2212
     45  N        103.6370   27.0000   77.3990 N.3   249  HIS249     -0.1241
     46  CA       102.5890   27.9360   76.9240 C.3   249  HIS249      0.1621
     47  C        102.2150   27.8490   75.4390 C.2   249  HIS249      0.2264
     48  O        101.9090   28.8900   74.7980 O.2   249  HIS249     -0.2867
     49  CB       103.0030   29.3990   77.2180 C.3   249  HIS249      0.0745
     50  CG       103.2160   29.6950   78.6680 C.ar  249  HIS249      0.0817
     51  ND1      104.4590   29.6810   79.2660 N.ar  249  HIS249     -0.2268
     52  CD2      102.3370   30.0450   79.6330 C.ar  249  HIS249      0.1154
     53  CE1      104.3310   29.9990   80.5470 C.ar  249  HIS249      0.1986
     54  NE2      103.0530   30.2450   80.7890 N.ar  249  HIS249     -0.2212
     55  N         99.6620   27.5770   73.5390 N.3   251  ARG251     -0.1245
     56  CA        98.1830   27.6970   73.6860 C.3   251  ARG251      0.1563
     57  C         97.4320   27.1340   72.4960 C.2   251  ARG251      0.2260
     58  O         96.3280   26.5870   72.6710 O.2   251  ARG251     -0.2867
     59  CB        97.6910   29.1090   74.0390 C.3   251  ARG251      0.0307
     60  CG        97.6890   30.1140   72.9310 C.3   251  ARG251      0.0489
     61  CD        97.2410   31.4720   73.4390 C.3   251  ARG251      0.2205
     62  NE        98.2900   32.0200   74.3110 N.pl3 251  ARG251     -0.0865
     63  CZ        98.1490   32.2810   75.6110 C.cat 251  ARG251      0.5346
     64  NH1       99.1890   32.7820   76.2630 N.pl3 251  ARG251      0.1354
     65  NH2       96.9890   32.0990   76.2550 N.pl3 251  ARG251      0.1354
     66  N        102.2560   26.6630   85.6410 N.3   272  PHE272     -0.1227
     67  CA       102.4160   28.0490   85.1540 C.3   272  PHE272      0.1736
     68  C        103.7890   28.6210   85.5360 C.2   272  PHE272      0.2595
     69  O        104.5410   29.1100   84.6680 O.2   272  PHE272     -0.2718
     70  CB       101.3000   28.9520   85.6510 C.3   272  PHE272      0.0547
     71  CG       101.1840   30.2190   84.8600 C.ar  272  PHE272     -0.0202
     72  CD1      101.8740   31.3730   85.2420 C.ar  272  PHE272     -0.0042
     73  CD2      100.4100   30.2390   83.7080 C.ar  272  PHE272     -0.0042
     74  CE1      101.7760   32.5640   84.5050 C.ar  272  PHE272     -0.0003
     75  CE2      100.2930   31.4040   82.9440 C.ar  272  PHE272     -0.0003
     76  CZ       100.9840   32.5870   83.3440 C.ar  272  PHE272     -0.0000
     77  N        104.1020   28.4940   86.8340 N.am  273  VAL273     -0.1980
     78  CA       105.4310   28.7690   87.3800 C.3   273  VAL273      0.1595
     79  C        105.6250   27.7700   88.5120 C.2   273  VAL273      0.2287
     80  O        104.6750   27.0810   88.9190 O.2   273  VAL273     -0.2864
     81  CB       105.5850   30.2450   87.8940 C.3   273  VAL273      0.0276
     82  CG1      105.6280   31.2230   86.6970 C.3   273  VAL273      0.0022
     83  CG2      104.4780   30.6130   88.8970 C.3   273  VAL273      0.0022
     84  N        103.2110   27.7800   91.3890 N.3   276  MET276     -0.1245
     85  CA       101.7890   27.5380   91.0460 C.3   276  MET276      0.1570
     86  C        101.4660   26.0820   90.6430 C.2   276  MET276      0.2261
     87  O        101.3450   25.7500   89.4510 O.2   276  MET276     -0.2867
     88  CB       101.3260   28.5270   89.9560 C.3   276  MET276      0.0387
     89  CG       101.1780   29.9410   90.4580 C.3   276  MET276      0.0595
     90  SD       100.7640   31.0470   89.0760 S.3   276  MET276     -0.1393
     91  CE       100.3340   32.4440   90.0610 C.3   276  MET276      0.0692
     92  N         84.9910   36.1870   86.1230 N.3   307  ARG307     -0.1245
     93  CA        86.0820   36.3380   85.1610 C.3   307  ARG307      0.1563
     94  C         86.9990   35.1530   85.4280 C.2   307  ARG307      0.2260
     95  O         87.4250   34.9240   86.5670 O.2   307  ARG307     -0.2867
     96  CB        86.8240   37.6590   85.3980 C.3   307  ARG307      0.0307
     97  CG        87.9860   37.9470   84.4810 C.3   307  ARG307      0.0489
     98  CD        89.2720   37.4900   85.1220 C.3   307  ARG307      0.2205
     99  NE        90.4420   37.8720   84.3260 N.pl3 307  ARG307     -0.0865
    100  CZ        91.6720   37.4360   84.5580 C.cat 307  ARG307      0.5346
    101  NH1       92.6770   37.8700   83.7780 N.pl3 307  ARG307      0.1354
    102  NH2       91.9200   36.5720   85.5560 N.pl3 307  ARG307      0.1354
    103  N         90.3200   33.1050   85.0090 N.3   309  ASP309     -0.1225
    104  CA        91.7380   33.2890   84.7050 C.3   309  ASP309      0.1805
    105  C         92.3080   32.1560   83.8190 C.2   309  ASP309      0.2598
    106  O         91.7530   31.0430   83.7730 O.2   309  ASP309     -0.2718
    107  CB        92.5040   33.3260   86.0340 C.3   309  ASP309      0.1424
    108  CG        93.9550   33.7380   85.8630 C.2   309  ASP309      0.3668
    109  OD1       94.1210   34.8750   85.3810 O.co2 309  ASP309     -0.2456
    110  OD2       94.8880   32.9210   86.1520 O.co2 309  ASP309     -0.2456
    111  N         93.3820   32.4440   83.1030 N.am  310  THR310     -0.1953
    112  CA        94.2050   31.3780   82.4950 C.3   310  THR310      0.1897
    113  C         93.3270   30.3050   81.8290 C.2   310  THR310      0.2313
    114  O         93.4720   29.0980   82.0730 O.2   310  THR310     -0.2863
    115  CB        95.1800   30.7150   83.5510 C.3   310  THR310      0.1794
    116  OG1       94.5630   30.6690   84.8540 O.3   310  THR310     -0.2208
    117  CG2       96.4730   31.5320   83.6350 C.3   310  THR310      0.0378
    118  N         94.3990   26.9680   80.0600 N.3   313  TYR313     -0.1241
    119  CA        95.3490   26.1690   80.8520 C.3   313  TYR313      0.1605
    120  C         94.6380   25.0770   81.6660 C.2   313  TYR313      0.2264
    121  O         95.3250   24.2440   82.2740 O.2   313  TYR313     -0.2867
    122  CB        96.1590   27.0570   81.8080 C.3   313  TYR313      0.0534
    123  CG        97.1310   27.9920   81.1260 C.ar  313  TYR313     -0.0201
    124  CD1       98.4790   27.6470   80.9680 C.ar  313  TYR313     -0.0009
    125  CD2       96.6960   29.2340   80.6130 C.ar  313  TYR313     -0.0009
    126  CE1       99.3770   28.5190   80.3380 C.ar  313  TYR313      0.0417
    127  CE2       97.5860   30.0960   79.9990 C.ar  313  TYR313      0.0417
    128  CZ        98.9090   29.7620   79.8790 C.ar  313  TYR313      0.1957
    129  OH        99.7950   30.6460   79.2640 O.3   313  TYR313     -0.2866
    130  N         89.6010   34.4170   80.1880 N.3   338  GLN338     -0.1245
    131  CA        90.8350   35.0730   79.7460 C.3   338  GLN338      0.1566
    132  C         91.6780   34.1390   78.8860 C.2   338  GLN338      0.2260
    133  O         92.4750   33.3380   79.4120 O.2   338  GLN338     -0.2867
    134  CB        91.6290   35.5380   80.9640 C.3   338  GLN338      0.0367
    135  CG        92.7930   36.4160   80.5200 C.3   338  GLN338      0.0905
    136  CD        94.0670   36.1200   81.2830 C.2   338  GLN338      0.2608
    137  OE1       94.2670   35.0180   81.7500 O.2   338  GLN338     -0.2717
    138  NE2       94.9430   37.1200   81.3960 N.am  338  GLN338     -0.0878
    139  N         94.4320   34.6040   76.5540 N.3   340  TRP340     -0.1241
    140  CA        95.2890   35.7310   76.1870 C.3   340  TRP340      0.1605
    141  C         96.0070   35.4880   74.8420 C.2   340  TRP340      0.2264
    142  O         97.1880   35.0970   74.7870 O.2   340  TRP340     -0.2867
    143  CB        96.3080   36.1450   77.2610 C.3   340  TRP340      0.0550
    144  CG        96.9570   37.5090   76.9300 C.ar  340  TRP340      0.0003
    145  CD1       97.1220   38.0860   75.6810 C.ar  340  TRP340      0.0946
    146  CD2       97.5590   38.4180   77.8630 C.ar  340  TRP340      0.0152
    147  NE1       97.7680   39.3070   75.7950 N.ar  340  TRP340     -0.2442
    148  CE2       98.0400   39.5340   77.1200 C.ar  340  TRP340      0.0810
    149  CE3       97.7150   38.4080   79.2460 C.ar  340  TRP340      0.0012
    150  CZ2       98.6690   40.6240   77.7320 C.ar  340  TRP340      0.0191
    151  CZ3       98.3500   39.4820   79.8530 C.ar  340  TRP340      0.0001
    152  CH2       98.8080   40.5830   79.0960 C.ar  340  TRP340      0.0015
    153  N         95.3610   44.8230   84.6250 N.3   415  HIS415     -0.1226
    154  CA        96.5100   44.7580   85.5570 C.3   415  HIS415      0.1752
    155  C         97.7180   44.0780   84.9210 C.2   415  HIS415      0.2596
    156  O         98.7970   44.0100   85.5430 O.2   415  HIS415     -0.2718
    157  CB        96.0760   43.9570   86.7890 C.3   415  HIS415      0.0759
    158  CG        95.6420   42.5560   86.4630 C.ar  415  HIS415      0.0818
    159  ND1       94.5760   42.2740   85.6190 N.ar  415  HIS415     -0.2268
    160  CD2       96.1420   41.3540   86.8460 C.ar  415  HIS415      0.1154
    161  CE1       94.4420   40.9660   85.5100 C.ar  415  HIS415      0.1986
    162  NE2       95.3830   40.3810   86.2330 N.ar  415  HIS415     -0.2212
    163  N         97.5530   43.5820   83.6890 N.am  416  ASP416     -0.1974
    164  CA        98.6250   42.8310   83.0010 C.3   416  ASP416      0.1709
    165  C         99.2800   43.6010   81.8480 C.2   416  ASP416      0.2293
    166  O        100.1670   43.0790   81.1650 O.2   416  ASP416     -0.2864
    167  CB        98.1010   41.4980   82.4310 C.3   416  ASP416      0.1436
    168  CG        97.7420   40.4900   83.5070 C.2   416  ASP416      0.3671
    169  OD1       98.3650   40.4510   84.6220 O.co2 416  ASP416     -0.2456
    170  OD2       96.7770   39.7460   83.2360 O.co2 416  ASP416     -0.2456
    171  N        106.7280   42.9190   79.7320 N.3   462  ARG462     -0.1245
    172  CA       105.8980   42.6590   80.9220 C.3   462  ARG462      0.1563
    173  C        106.5560   43.2170   82.1840 C.2   462  ARG462      0.2260
    174  O        107.6330   42.7740   82.5780 O.2   462  ARG462     -0.2867
    175  CB       105.6150   41.1510   81.1180 C.3   462  ARG462      0.0307
    176  CG       104.9270   40.8500   82.4690 C.3   462  ARG462      0.0489
    177  CD       104.0830   39.5530   82.4920 C.3   462  ARG462      0.2205
    178  NE       103.1380   39.5060   81.3620 N.pl3 462  ARG462     -0.0865
    179  CZ       102.0580   40.2890   81.2370 C.cat 462  ARG462      0.5346
    180  NH1      101.3070   40.1950   80.1570 N.pl3 462  ARG462      0.1354
    181  NH2      101.7660   41.1900   82.1370 N.pl3 462  ARG462      0.1354
    182  N        104.8880   44.0350   85.5610 N.3   464  ASP464     -0.1239
    183  CA       103.6330   44.0260   86.2860 C.3   464  ASP464      0.1674
    184  C        103.5310   45.0970   87.3590 C.2   464  ASP464      0.2266
    185  O        102.4980   45.7500   87.4740 O.2   464  ASP464     -0.2867
    186  CB       103.3950   42.6410   86.9070 C.3   464  ASP464      0.1410
    187  CG       103.0330   41.5970   85.8660 C.2   464  ASP464      0.3668
    188  OD1      102.6730   41.9740   84.7400 O.co2 464  ASP464     -0.2456
    189  OD2      103.1280   40.4090   86.1770 O.co2 464  ASP464     -0.2456
    190  N        100.2790   48.5390   88.4350 N.3   468  ARG468     -0.1245
    191  CA        99.4670   48.2930   89.6350 C.3   468  ARG468      0.1563
    192  C         99.7720   49.2730   90.7710 C.2   468  ARG468      0.2260
    193  O         99.6490   48.9310   91.9630 O.2   468  ARG468     -0.2867
    194  CB        99.7360   46.8100   89.9850 C.3   468  ARG468      0.0307
    195  CG        99.0480   45.7910   88.9700 C.3   468  ARG468      0.0489
    196  CD        99.8400   44.8680   87.9800 C.3   468  ARG468      0.2205
    197  NE       100.2210   43.6340   88.6490 N.pl3 468  ARG468     -0.0865
    198  CZ       100.0900   42.3250   88.3490 C.cat 468  ARG468      0.5346
    199  NH1      100.5560   41.5620   89.2940 N.pl3 468  ARG468      0.1354
    200  NH2       99.6470   41.7130   87.2130 N.pl3 468  ARG468      0.1354
@<TRIPOS>BOND
     1    57    58    2
     2    57    56    1
     3    60    61    1
     4    60    59    1
     5    61    62    1
     6    55    56    1
     7    56    59    1
     8    62    63    2
     9   142   141    2
    10    48    47    2
    11   141   140    1
    12    47    46    1
    13    63    65    1
    14    63    64    1
    15   145   147   ar
    16   145   144   ar
    17   147   148   ar
    18   140   139    1
    19   140   143    1
    20    46    49    1
    21    46    45    1
    22   144   143    1
    23   144   146   ar
    24   148   150   ar
    25   148   146   ar
    26    49    50    1
    27   150   152   ar
    28   146   149   ar
    29    50    51   ar
    30    50    52   ar
    31   132   133    2
    32   132   131    1
    33   152   151   ar
    34   149   151   ar
    35   129   128    1
    36    51    53   ar
    37    52    54   ar
    38   171   172    1
    39   131   130    1
    40   131   134    1
    41   128   127   ar
    42   128   126   ar
    43   127   125   ar
    44   118   119    1
    45   180   179    1
    46   126   124   ar
    47   135   134    1
    48   135   136    1
    49    53    54   ar
    50   125   123   ar
    51   119   120    1
    52   119   122    1
    53   172   175    1
    54   172   173    1
    55   124   123   ar
    56   175   176    1
    57   123   122    1
    58   166   165    2
    59   179   178    2
    60   179   181    1
    61   136   138   am
    62   136   137    2
    63   178   177    1
    64   120   121    2
    65   113   114    2
    66   113   112    1
    67   165   164    1
    68   173   174    2
    69   167   164    1
    70   167   168    1
    71   176   177    1
    72   112   111    1
    73   112   115    1
    74    75    76   ar
    75    75    73   ar
    76   164   163    1
    77   111   105   am
    78   170   168   ar
    79    76    74   ar
    80   168   169   ar
    81   115   117    1
    82   115   116    1
    83   163   155   am
    84    73    71   ar
    85   106   105    2
    86   101   100    1
    87   105   104    1
    88    99   100    2
    89    99    98    1
    90    97    98    1
    91    97    96    1
    92    74    72   ar
    93   100   102    1
    94   153   154    1
    95    69    68    2
    96   104   103    1
    97   104   107    1
    98   188   187   ar
    99    71    72   ar
   100    71    70    1
   101   155   156    2
   102   155   154    1
   103    67    68    1
   104    67    66    1
   105    67    70    1
   106    93    96    1
   107    93    94    1
   108    93    92    1
   109   109   108   ar
   110    94    95    2
   111   161   159   ar
   112   161   162   ar
   113    68    77   am
   114   154   157    1
   115   182   183    1
   116   159   158   ar
   117   108   107    1
   118   108   110   ar
   119   187   189   ar
   120   187   186    1
   121   162   160   ar
   122   183   186    1
   123   183   184    1
   124   158   157    1
   125   158   160   ar
   126    82    81    1
   127    77    78    1
   128   200   198    1
   129   184   185    2
   130    78    81    1
   131    78    79    1
   132    43    41   ar
   133    43    44   ar
   134    41    40   ar
   135    81    83    1
   136   196   197    1
   137   196   195    1
   138    34    33    1
   139   198   197    2
   140   198   199    1
   141   190   191    1
   142    31    33   ar
   143    31    29   ar
   144    79    80    2
   145    33    32   ar
   146    35    36    1
   147    44    42   ar
   148    40    39    1
   149    40    42   ar
   150    29    28   ar
   151   195   194    1
   152    39    36    1
   153    90    91    1
   154    90    89    1
   155    32    30   ar
   156    87    86    2
   157    36    37    1
   158    28    30   ar
   159    28    27    1
   160   191   194    1
   161   191   192    1
   162    88    89    1
   163    88    85    1
   164    27    24    1
   165    86    85    1
   166   192   193    2
   167    37    38    2
   168    85    84    1
   169    26    25    2
   170    12    11    1
   171    24    25    1
   172    24    23    1
   173    20    22   ar
   174    20    18   ar
   175    17    18    1
   176    17    14    1
   177    22    21   ar
   178    18    19   ar
   179    21    19   ar
   180    16    15    2
   181    11    10   ar
   182    11     9   ar
   183    10     8   ar
   184    15    14    1
   185    14    13    1
   186     9     7   ar
   187     8     6   ar
   188    13     3   am
   189     7     6   ar
   190     6     5    1
   191     4     3    2
   192     3     2    1
   193     5     2    1
   194     2     1    1
