@<TRIPOS>MOLECULE
tmp/3edjA00.pdb
 230 225 0 0 0
SMALL
GASTEIGER

@<TRIPOS>ATOM
      1  N        104.7820   50.7890   30.7110 N.3   176  TYR176     -0.1241
      2  CA       104.5090   49.6880   31.6500 C.3   176  TYR176      0.1605
      3  C        103.6990   48.5780   31.0020 C.2   176  TYR176      0.2264
      4  O        102.8800   47.9180   31.6750 O.2   176  TYR176     -0.2867
      5  CB       103.8400   50.1980   32.9490 C.3   176  TYR176      0.0534
      6  CG       104.6620   51.2920   33.5990 C.ar  176  TYR176     -0.0201
      7  CD1      105.8910   51.0130   34.1990 C.ar  176  TYR176     -0.0009
      8  CD2      104.2400   52.6260   33.5400 C.ar  176  TYR176     -0.0009
      9  CE1      106.6730   52.0510   34.7880 C.ar  176  TYR176      0.0417
     10  CE2      105.0080   53.6600   34.1040 C.ar  176  TYR176      0.0417
     11  CZ       106.2200   53.3630   34.7210 C.ar  176  TYR176      0.1957
     12  OH       106.9940   54.3940   35.2850 O.3   176  TYR176     -0.2866
     13  N        105.0840   45.8900   29.9900 N.3   178  TYR178     -0.1227
     14  CA       105.8290   44.6310   30.1720 C.3   178  TYR178      0.1736
     15  C        105.1680   43.6320   31.1330 C.2   178  TYR178      0.2595
     16  O        105.4180   42.4340   31.0270 O.2   178  TYR178     -0.2718
     17  CB       107.2730   44.8880   30.6330 C.3   178  TYR178      0.0548
     18  CG       107.4110   45.0990   32.1300 C.ar  178  TYR178     -0.0200
     19  CD1      107.1590   46.3510   32.7050 C.ar  178  TYR178     -0.0009
     20  CD2      107.7980   44.0340   32.9780 C.ar  178  TYR178     -0.0009
     21  CE1      107.2640   46.5520   34.0690 C.ar  178  TYR178      0.0417
     22  CE2      107.9370   44.2170   34.3400 C.ar  178  TYR178      0.0417
     23  CZ       107.6730   45.4720   34.8930 C.ar  178  TYR178      0.1957
     24  OH       107.8150   45.6860   36.2320 O.3   178  TYR178     -0.2866
     25  N        104.3830   44.1320   32.0850 N.am  179  HIS179     -0.1975
     26  CA       103.9960   43.2650   33.2070 C.3   179  HIS179      0.1656
     27  C        102.8000   42.3880   32.8450 C.2   179  HIS179      0.2291
     28  O        102.5950   41.3260   33.4680 O.2   179  HIS179     -0.2864
     29  CB       103.7950   44.0680   34.4980 C.3   179  HIS179      0.0771
     30  CG       102.7130   45.0940   34.4080 C.ar  179  HIS179      0.0820
     31  ND1      102.9490   46.4550   34.5190 N.ar  179  HIS179     -0.2267
     32  CD2      101.3770   44.9580   34.2140 C.ar  179  HIS179      0.1154
     33  CE1      101.7990   47.1040   34.4170 C.ar  179  HIS179      0.1986
     34  NE2      100.8350   46.2210   34.2350 N.ar  179  HIS179     -0.2212
     35  N         99.4670   42.9040   33.0600 N.3   181  TYR181     -0.1241
     36  CA        98.2290   42.9500   33.8920 C.3   181  TYR181      0.1605
     37  C         97.1500   43.9220   33.4200 C.2   181  TYR181      0.2264
     38  O         96.1140   44.1040   34.0950 O.2   181  TYR181     -0.2867
     39  CB        98.5540   43.1450   35.3920 C.3   181  TYR181      0.0534
     40  CG        99.2050   41.8990   35.9750 C.ar  181  TYR181     -0.0201
     41  CD1       98.4270   40.8010   36.3630 C.ar  181  TYR181     -0.0009
     42  CD2      100.5850   41.8000   36.0920 C.ar  181  TYR181     -0.0009
     43  CE1       99.0190   39.6140   36.8650 C.ar  181  TYR181      0.0417
     44  CE2      101.1830   40.6440   36.5930 C.ar  181  TYR181      0.0417
     45  CZ       100.4000   39.5620   36.9800 C.ar  181  TYR181      0.1957
     46  OH       100.9860   38.4200   37.4690 O.3   181  TYR181     -0.2866
     47  N         89.8210   43.7970   35.6500 N.3   221  HIS221     -0.1241
     48  CA        90.2020   44.9660   34.8590 C.3   221  HIS221      0.1621
     49  C         90.8970   44.6660   33.5440 C.2   221  HIS221      0.2264
     50  O         91.3830   43.5440   33.2740 O.2   221  HIS221     -0.2867
     51  CB        91.0900   45.9090   35.6920 C.3   221  HIS221      0.0745
     52  CG        92.3690   45.2800   36.1700 C.ar  221  HIS221      0.0817
     53  ND1       92.4750   44.6660   37.3980 N.ar  221  HIS221     -0.2268
     54  CD2       93.5760   45.1410   35.5750 C.ar  221  HIS221      0.1154
     55  CE1       93.7030   44.2010   37.5540 C.ar  221  HIS221      0.1986
     56  NE2       94.3950   44.4840   36.4670 N.ar  221  HIS221     -0.2212
     57  N         90.5530   49.8840   48.1910 N.3   249  HIS249     -0.1241
     58  CA        91.1290   48.5960   48.5630 C.3   249  HIS249      0.1621
     59  C         90.6210   48.0400   49.9000 C.2   249  HIS249      0.2264
     60  O         91.3650   47.3580   50.6000 O.2   249  HIS249     -0.2867
     61  CB        92.6610   48.7180   48.5760 C.3   249  HIS249      0.0745
     62  CG        93.2490   49.0610   47.2380 C.ar  249  HIS249      0.0817
     63  ND1       93.6960   50.3270   46.9110 N.ar  249  HIS249     -0.2268
     64  CD2       93.4550   48.2950   46.1420 C.ar  249  HIS249      0.1154
     65  CE1       94.1840   50.3160   45.6810 C.ar  249  HIS249      0.1986
     66  NE2       94.0400   49.0950   45.1890 N.ar  249  HIS249     -0.2212
     67  N         89.3440   45.4210   51.2090 N.3   251  ARG251     -0.1245
     68  CA        89.0220   44.0450   50.7880 C.3   251  ARG251      0.1563
     69  C         88.0920   43.3070   51.7350 C.2   251  ARG251      0.2260
     70  O         87.3160   42.4580   51.2980 O.2   251  ARG251     -0.2867
     71  CB        90.2960   43.2060   50.5580 C.3   251  ARG251      0.0307
     72  CG        90.8420   42.4990   51.7680 C.3   251  ARG251      0.0489
     73  CD        92.3140   42.1250   51.5800 C.3   251  ARG251      0.2205
     74  NE        92.6620   41.8050   50.1970 N.pl3 251  ARG251     -0.0865
     75  CZ        93.3330   42.6130   49.3770 C.cat 251  ARG251      0.5346
     76  NH1       93.6010   42.2140   48.1490 N.pl3 251  ARG251      0.1354
     77  NH2       93.7360   43.8190   49.7790 N.pl3 251  ARG251      0.1354
     78  N         91.4270   49.8890   39.7740 N.3   272  PHE272     -0.1227
     79  CA        92.6660   49.5690   40.4780 C.3   272  PHE272      0.1736
     80  C         93.6430   50.7450   40.4260 C.2   272  PHE272      0.2595
     81  O         94.1800   51.1580   41.4670 O.2   272  PHE272     -0.2718
     82  CB        93.3110   48.3040   39.8990 C.3   272  PHE272      0.0547
     83  CG        94.3170   47.6910   40.8180 C.ar  272  PHE272     -0.0202
     84  CD1       95.6760   47.9960   40.6700 C.ar  272  PHE272     -0.0042
     85  CD2       93.9130   46.8550   41.8660 C.ar  272  PHE272     -0.0042
     86  CE1       96.6290   47.4730   41.5390 C.ar  272  PHE272     -0.0003
     87  CE2       94.8550   46.3220   42.7490 C.ar  272  PHE272     -0.0003
     88  CZ        96.2150   46.6300   42.5890 C.ar  272  PHE272     -0.0000
     89  N         93.8410   51.2640   39.2140 N.am  273  VAL273     -0.1980
     90  CA        94.5770   52.5030   38.9440 C.3   273  VAL273      0.1595
     91  C         93.9280   53.1630   37.7180 C.2   273  VAL273      0.2287
     92  O         93.1200   52.5460   37.0070 O.2   273  VAL273     -0.2864
     93  CB        96.1130   52.2780   38.6830 C.3   273  VAL273      0.0276
     94  CG1       96.8300   51.8590   39.9730 C.3   273  VAL273      0.0022
     95  CG2       96.3450   51.3000   37.5330 C.3   273  VAL273      0.0022
     96  N         93.7360   51.2810   34.3980 N.3   276  MET276     -0.1245
     97  CA        93.1130   49.9290   34.4230 C.3   276  MET276      0.1570
     98  C         91.5900   49.9580   34.5840 C.2   276  MET276      0.2261
     99  O         91.0510   49.7440   35.6940 O.2   276  MET276     -0.2867
    100  CB        93.7430   49.0480   35.5110 C.3   276  MET276      0.0387
    101  CG        95.1480   48.5840   35.2050 C.3   276  MET276      0.0595
    102  SD        95.8370   47.7470   36.6560 S.3   276  MET276     -0.1393
    103  CE        97.3520   47.1060   35.9550 C.3   276  MET276      0.0692
    104  N         96.0680   30.8400   37.4640 N.3   307  ARG307     -0.1245
    105  CA        96.3270   31.7010   38.6150 C.3   307  ARG307      0.1563
    106  C         95.4790   32.9580   38.3630 C.2   307  ARG307      0.2260
    107  O         95.5710   33.5550   37.2870 O.2   307  ARG307     -0.2867
    108  CB        97.8190   32.0290   38.7020 C.3   307  ARG307      0.0307
    109  CG        98.2400   32.9500   39.8420 C.3   307  ARG307      0.0489
    110  CD        98.1910   34.4280   39.3970 C.3   307  ARG307      0.2205
    111  NE        98.7230   35.3230   40.4290 N.pl3 307  ARG307     -0.0865
    112  CZ        98.6720   36.6490   40.3530 C.cat 307  ARG307      0.5346
    113  NH1       99.1860   37.3810   41.3500 N.pl3 307  ARG307      0.1354
    114  NH2       98.0980   37.2410   39.2950 N.pl3 307  ARG307      0.1354
    115  N         94.2950   36.6390   39.1710 N.3   309  ASP309     -0.1225
    116  CA        94.8020   37.8670   39.7450 C.3   309  ASP309      0.1805
    117  C         93.7340   38.5780   40.5640 C.2   309  ASP309      0.2598
    118  O         92.5320   38.3400   40.3440 O.2   309  ASP309     -0.2718
    119  CB        95.1880   38.7740   38.5690 C.3   309  ASP309      0.1424
    120  CG        95.9810   40.0000   39.0160 C.2   309  ASP309      0.3668
    121  OD1       97.0250   39.7990   39.6590 O.co2 309  ASP309     -0.2456
    122  OD2       95.5110   41.1370   38.7470 O.co2 309  ASP309     -0.2456
    123  N         94.1650   39.4720   41.4640 N.am  310  THR310     -0.1953
    124  CA        93.2470   40.4790   42.0770 C.3   310  THR310      0.1897
    125  C         91.9030   39.8400   42.4350 C.2   310  THR310      0.2313
    126  O         90.8510   40.3050   41.9990 O.2   310  THR310     -0.2863
    127  CB        93.0470   41.7810   41.1600 C.3   310  THR310      0.1794
    128  OG1       92.9510   41.4290   39.7780 O.3   310  THR310     -0.2208
    129  CG2       94.2240   42.7310   41.3350 C.3   310  THR310      0.0378
    130  N         88.5860   41.5580   43.8610 N.3   313  TYR313     -0.1241
    131  CA        88.2660   42.8070   43.1550 C.3   313  TYR313      0.1605
    132  C         87.2290   42.5800   42.0630 C.2   313  TYR313      0.2264
    133  O         86.7530   43.5430   41.4310 O.2   313  TYR313     -0.2867
    134  CB        89.5000   43.4310   42.5460 C.3   313  TYR313      0.0534
    135  CG        90.5000   43.9870   43.5160 C.ar  313  TYR313     -0.0201
    136  CD1       90.4960   45.3530   43.8530 C.ar  313  TYR313     -0.0009
    137  CD2       91.5000   43.1680   44.0580 C.ar  313  TYR313     -0.0009
    138  CE1       91.4460   45.8840   44.7150 C.ar  313  TYR313      0.0417
    139  CE2       92.4540   43.6880   44.9540 C.ar  313  TYR313      0.0417
    140  CZ        92.4220   45.0440   45.2700 C.ar  313  TYR313      0.1957
    141  OH        93.3710   45.5830   46.1140 O.3   313  TYR313     -0.2866
    142  N         94.5140   34.9170   43.8970 N.3   338  GLN338     -0.1245
    143  CA        95.3860   35.8360   44.6060 C.3   338  GLN338      0.1566
    144  C         94.5420   36.7740   45.4750 C.2   338  GLN338      0.2260
    145  O         94.0630   37.8160   45.0070 O.2   338  GLN338     -0.2867
    146  CB        96.3080   36.5980   43.6170 C.3   338  GLN338      0.0367
    147  CG        97.3110   37.4860   44.3880 C.3   338  GLN338      0.0905
    148  CD        97.4720   38.8630   43.7800 C.2   338  GLN338      0.2608
    149  OE1       96.5110   39.4490   43.2520 O.2   338  GLN338     -0.2717
    150  NE2       98.6680   39.4210   43.9180 N.am  338  GLN338     -0.0878
    151  N         95.2180   38.9570   48.4150 N.3   340  TRP340     -0.1227
    152  CA        96.4270   39.3890   49.1420 C.3   340  TRP340      0.1737
    153  C         96.0700   39.9370   50.5170 C.2   340  TRP340      0.2596
    154  O         95.8390   41.1610   50.6890 O.2   340  TRP340     -0.2718
    155  CB        97.2570   40.3850   48.3380 C.3   340  TRP340      0.0564
    156  CG        98.6410   40.5840   48.9180 C.ar  340  TRP340      0.0003
    157  CD1       99.0210   40.5060   50.2330 C.ar  340  TRP340      0.0946
    158  CD2       99.8010   40.9510   48.1920 C.ar  340  TRP340      0.0152
    159  NE1      100.3700   40.7980   50.3640 N.ar  340  TRP340     -0.2442
    160  CE2      100.8680   41.0780   49.1230 C.ar  340  TRP340      0.0810
    161  CE3      100.0500   41.1920   46.8440 C.ar  340  TRP340      0.0012
    162  CZ2      102.1700   41.4190   48.7340 C.ar  340  TRP340      0.0191
    163  CZ3      101.3370   41.5340   46.4620 C.ar  340  TRP340      0.0001
    164  CH2      102.3840   41.6460   47.4050 C.ar  340  TRP340      0.0015
    165  N         96.0260   39.0240   51.5000 N.am  341  SER341     -0.1952
    166  CA        95.8110   39.3290   52.9090 C.3   341  SER341      0.1924
    167  C         96.7000   38.4190   53.7450 C.2   341  SER341      0.2314
    168  O         96.8570   37.2390   53.4120 O.2   341  SER341     -0.2863
    169  CB        94.3590   39.0910   53.3220 C.3   341  SER341      0.2116
    170  OG        94.1670   39.3670   54.7140 O.3   341  SER341     -0.2180
    171  N        106.6310   38.1280   42.0040 N.3   415  HIS415     -0.1226
    172  CA       107.0330   39.3590   41.3220 C.3   415  HIS415      0.1752
    173  C        106.5420   40.6230   42.0480 C.2   415  HIS415      0.2596
    174  O        106.8600   41.7250   41.6210 O.2   415  HIS415     -0.2718
    175  CB       106.4840   39.3220   39.8970 C.3   415  HIS415      0.0759
    176  CG       104.9850   39.2800   39.8460 C.ar  415  HIS415      0.0818
    177  ND1      104.2490   38.2550   40.4030 N.ar  415  HIS415     -0.2268
    178  CD2      104.0840   40.1490   39.3230 C.ar  415  HIS415      0.1154
    179  CE1      102.9610   38.4800   40.2030 C.ar  415  HIS415      0.1986
    180  NE2      102.8350   39.6240   39.5490 N.ar  415  HIS415     -0.2212
    181  N        105.7650   40.4700   43.1270 N.am  416  ASP416     -0.1974
    182  CA       105.2130   41.6180   43.8620 C.3   416  ASP416      0.1709
    183  C        105.8370   41.8910   45.2300 C.2   416  ASP416      0.2293
    184  O        105.3730   42.7830   45.9520 O.2   416  ASP416     -0.2864
    185  CB       103.7000   41.4360   44.0790 C.3   416  ASP416      0.1436
    186  CG       102.9190   41.3830   42.7830 C.2   416  ASP416      0.3671
    187  OD1      103.2530   42.1460   41.8460 O.co2 416  ASP416     -0.2456
    188  OD2      101.9470   40.5810   42.7240 O.co2 416  ASP416     -0.2456
    189  N        109.2970   48.7610   51.7640 N.3   461  GLY461     -0.1210
    190  CA       108.2270   49.3140   50.9540 C.3   461  GLY461      0.1956
    191  C        107.9300   48.5350   49.6960 C.2   461  GLY461      0.2612
    192  O        107.9120   47.2950   49.6890 O.2   461  GLY461     -0.2717
    193  N        107.7140   49.2730   48.6150 N.am  462  ARG462     -0.1965
    194  CA       107.2480   48.6830   47.3820 C.3   462  ARG462      0.1729
    195  C        108.0950   49.2010   46.2230 C.2   462  ARG462      0.2616
    196  O        108.1950   50.4130   45.9890 O.2   462  ARG462     -0.2715
    197  CB       105.7630   49.0090   47.2170 C.3   462  ARG462      0.0348
    198  CG       105.2320   48.8810   45.8350 C.3   462  ARG462      0.0492
    199  CD       104.5240   47.5870   45.6630 C.3   462  ARG462      0.2205
    200  NE       103.8830   47.5490   44.3550 N.pl3 462  ARG462     -0.0865
    201  CZ       102.6070   47.8420   44.1300 C.cat 462  ARG462      0.5346
    202  NH1      101.8020   48.2110   45.1310 N.pl3 462  ARG462      0.1354
    203  NH2      102.1430   47.7730   42.8920 N.pl3 462  ARG462      0.1354
    204  N        108.7330   48.2750   45.5100 N.am  463  ASP463     -0.1957
    205  CA       109.6950   48.6440   44.4890 C.3   463  ASP463      0.1840
    206  C        109.6780   47.5600   43.4230 C.2   463  ASP463      0.2622
    207  O        110.5680   46.7160   43.3560 O.2   463  ASP463     -0.2715
    208  CB       111.0740   48.8140   45.1390 C.3   463  ASP463      0.1450
    209  CG       112.1600   49.2470   44.1640 C.2   463  ASP463      0.3671
    210  OD1      111.9220   49.3880   42.9270 O.co2 463  ASP463     -0.2456
    211  OD2      113.3000   49.4080   44.6590 O.co2 463  ASP463     -0.2456
    212  N        108.6290   47.5980   42.6020 N.am  464  ASP464     -0.1971
    213  CA       108.3340   46.5070   41.6600 C.3   464  ASP464      0.1709
    214  C        109.5100   46.1700   40.7450 C.2   464  ASP464      0.2293
    215  O        109.8190   44.9980   40.5070 O.2   464  ASP464     -0.2864
    216  CB       107.0740   46.8460   40.8510 C.3   464  ASP464      0.1436
    217  CG       105.8190   46.8440   41.7160 C.2   464  ASP464      0.3671
    218  OD1      105.8700   46.2970   42.8450 O.co2 464  ASP464     -0.2456
    219  OD2      104.7750   47.3960   41.2670 O.co2 464  ASP464     -0.2456
    220  N        112.1620   42.2520   39.6790 N.3   468  ARG468     -0.1245
    221  CA       111.8840   41.7400   38.3470 C.3   468  ARG468      0.1563
    222  C        113.0780   41.8600   37.4080 C.2   468  ARG468      0.2260
    223  O        112.9080   41.9500   36.1920 O.2   468  ARG468     -0.2867
    224  CB       110.6530   42.4680   37.7720 C.3   468  ARG468      0.0307
    225  CG       109.4050   42.3050   38.6760 C.3   468  ARG468      0.0489
    226  CD       108.3260   43.2370   38.2650 C.3   468  ARG468      0.2205
    227  NE       107.1790   43.1190   39.1740 N.pl3 468  ARG468     -0.0865
    228  CZ       106.0180   43.7280   38.9710 C.cat 468  ARG468      0.5346
    229  NH1      105.8560   44.4930   37.8950 N.pl3 468  ARG468      0.1354
    230  NH2      105.0220   43.5770   39.8430 N.pl3 468  ARG468      0.1354
@<TRIPOS>BOND
     1    13    14    1
     2    14    17    1
     3    14    15    1
     4    17    18    1
     5     1     2    1
     6     3     2    1
     7     3     4    2
     8    16    15    2
     9    15    25   am
    10     2     5    1
    11    25    26    1
    12    18    19   ar
    13    18    20   ar
    14    19    21   ar
    15    27    26    1
    16    27    28    2
    17     5     6    1
    18    20    22   ar
    19    35    36    1
    20    26    29    1
    21    50    49    2
    22    37    36    1
    23    37    38    2
    24     8     6   ar
    25     8    10   ar
    26    49    48    1
    27     6     7   ar
    28    36    39    1
    29    21    23   ar
    30    10    11   ar
    31     7     9   ar
    32    32    34   ar
    33    32    30   ar
    34    34    33   ar
    35    22    23   ar
    36    96    97    1
    37    30    29    1
    38    30    31   ar
    39    33    31   ar
    40    97    98    1
    41    97   100    1
    42    98    99    2
    43    11     9   ar
    44    11    12    1
    45    48    47    1
    46    48    51    1
    47    23    24    1
    48   101   100    1
    49   101   102    1
    50    39    40    1
    51    54    52   ar
    52    54    56   ar
    53    51    52    1
    54   103   102    1
    55    40    42   ar
    56    40    41   ar
    57    42    44   ar
    58    52    53   ar
    59   223   222    2
    60    41    43   ar
    61    56    55   ar
    62    44    45   ar
    63    43    45   ar
    64    45    46    1
    65    92    91    2
    66   107   106    2
    67    53    55   ar
    68   222   221    1
    69   104   105    1
    70    95    93    1
    71    91    90    1
    72   224   221    1
    73   224   225    1
    74   229   228    1
    75   226   225    1
    76   226   227    1
    77   221   220    1
    78   106   105    1
    79   119   120    1
    80   119   116    1
    81   105   108    1
    82    93    90    1
    83    93    94    1
    84   108   109    1
    85   122   120   ar
    86    90    89    1
    87   228   227    2
    88   228   230    1
    89   120   121   ar
    90   115   116    1
    91    89    80   am
    92   114   112    1
    93   178   180   ar
    94   178   176   ar
    95   110   109    1
    96   110   111    1
    97   180   179   ar
    98   116   117    1
    99    78    79    1
   100   128   127    1
   101   176   175    1
   102   176   177   ar
   103   175   172    1
   104    82    79    1
   105    82    83    1
   106   179   177   ar
   107   118   117    2
   108   112   111    2
   109   112   113    1
   110    80    79    1
   111    80    81    2
   112   215   214    2
   113   117   123   am
   114    84    83   ar
   115    84    86   ar
   116   214   213    1
   117    83    85   ar
   118   216   213    1
   119   216   217    1
   120   127   129    1
   121   127   124    1
   122   219   217   ar
   123   172   171    1
   124   172   173    1
   125   133   132    2
   126   123   124    1
   127    86    88   ar
   128   174   173    2
   129   213   212    1
   130   217   218   ar
   131   187   186   ar
   132    85    87   ar
   133   126   125    2
   134   173   181   am
   135   132   131    1
   136   124   125    1
   137   134   131    1
   138   134   135    1
   139    88    87   ar
   140   212   206   am
   141   188   186   ar
   142   186   185    1
   143   203   201    1
   144   210   209   ar
   145   181   182    1
   146   131   130    1
   147   149   148    2
   148   207   206    2
   149   206   205    1
   150   135   136   ar
   151   135   137   ar
   152   146   147    1
   153   146   143    1
   154   148   150   am
   155   148   147    1
   156   136   138   ar
   157   182   185    1
   158   182   183    1
   159   142   143    1
   160   137   139   ar
   161   201   200    2
   162   201   202    1
   163   209   211   ar
   164   209   208    1
   165   200   199    1
   166   205   208    1
   167   205   204    1
   168   143   144    1
   169   138   140   ar
   170   139   140   ar
   171   145   144    2
   172    66    65   ar
   173    66    64   ar
   174   183   184    2
   175   140   141    1
   176   204   195   am
   177   199   198    1
   178    65    63   ar
   179   198   197    1
   180   196   195    2
   181    64    62   ar
   182   195   194    1
   183   163   161   ar
   184   163   164   ar
   185   161   158   ar
   186    63    62   ar
   187   197   194    1
   188    62    61    1
   189   194   193    1
   190   164   162   ar
   191    76    75    1
   192    57    58    1
   193   158   156   ar
   194   158   160   ar
   195   155   156    1
   196   155   152    1
   197   151   152    1
   198    58    61    1
   199    58    59    1
   200   193   191   am
   201   162   160   ar
   202   156   157   ar
   203   160   159   ar
   204   152   153    1
   205    75    77    1
   206    75    74    2
   207   192   191    2
   208   191   190    1
   209    59    60    2
   210    74    73    1
   211   157   159   ar
   212   153   154    2
   213   153   165   am
   214    71    68    1
   215    71    72    1
   216    68    67    1
   217    68    69    1
   218   190   189    1
   219    70    69    2
   220   165   166    1
   221    73    72    1
   222   166   169    1
   223   166   167    1
   224   169   170    1
   225   168   167    2
