@<TRIPOS>MOLECULE
tmp/3edkA00.pdb
 249 244 0 0 0
SMALL
GASTEIGER

@<TRIPOS>ATOM
      1  N        104.4650   50.5970   30.4940 N.3   176  TYR176     -0.1241
      2  CA       104.1790   49.5150   31.4360 C.3   176  TYR176      0.1605
      3  C        103.3660   48.4070   30.7880 C.2   176  TYR176      0.2264
      4  O        102.6120   47.7010   31.4750 O.2   176  TYR176     -0.2867
      5  CB       103.5120   50.0260   32.7170 C.3   176  TYR176      0.0534
      6  CG       104.3470   51.1050   33.3730 C.ar  176  TYR176     -0.0201
      7  CD1      105.5590   50.8030   33.9920 C.ar  176  TYR176     -0.0009
      8  CD2      103.9480   52.4410   33.3100 C.ar  176  TYR176     -0.0009
      9  CE1      106.3470   51.8210   34.5860 C.ar  176  TYR176      0.0417
     10  CE2      104.7240   53.4610   33.8870 C.ar  176  TYR176      0.0417
     11  CZ       105.9130   53.1440   34.5160 C.ar  176  TYR176      0.1957
     12  OH       106.6830   54.1630   35.0750 O.3   176  TYR176     -0.2866
     13  N        104.7690   45.7120   29.7270 N.3   178  TYR178     -0.1227
     14  CA       105.5020   44.4530   29.9260 C.3   178  TYR178      0.1736
     15  C        104.8220   43.4630   30.8950 C.2   178  TYR178      0.2595
     16  O        105.0050   42.2440   30.7710 O.2   178  TYR178     -0.2718
     17  CB       106.9400   44.7290   30.3890 C.3   178  TYR178      0.0548
     18  CG       107.0860   44.9390   31.8800 C.ar  178  TYR178     -0.0200
     19  CD1      106.8710   46.1970   32.4460 C.ar  178  TYR178     -0.0009
     20  CD2      107.4550   43.8700   32.7300 C.ar  178  TYR178     -0.0009
     21  CE1      107.0030   46.4080   33.8280 C.ar  178  TYR178      0.0417
     22  CE2      107.5880   44.0660   34.0890 C.ar  178  TYR178      0.0417
     23  CZ       107.3770   45.3390   34.6340 C.ar  178  TYR178      0.1957
     24  OH       107.5190   45.5540   35.9700 O.3   178  TYR178     -0.2866
     25  N        104.0780   43.9690   31.8690 N.am  179  HIS179     -0.1975
     26  CA       103.6830   43.0960   32.9790 C.3   179  HIS179      0.1656
     27  C        102.4800   42.2240   32.6380 C.2   179  HIS179      0.2291
     28  O        102.2680   41.1730   33.2650 O.2   179  HIS179     -0.2864
     29  CB       103.4740   43.8890   34.2720 C.3   179  HIS179      0.0771
     30  CG       102.3960   44.9150   34.1840 C.ar  179  HIS179      0.0820
     31  ND1      102.6420   46.2680   34.3110 N.ar  179  HIS179     -0.2267
     32  CD2      101.0610   44.7890   34.0000 C.ar  179  HIS179      0.1154
     33  CE1      101.5010   46.9280   34.1930 C.ar  179  HIS179      0.1986
     34  NE2      100.5320   46.0550   34.0000 N.ar  179  HIS179     -0.2212
     35  N         99.1700   42.7160   32.8960 N.3   181  TYR181     -0.1241
     36  CA        97.9270   42.7760   33.6880 C.3   181  TYR181      0.1605
     37  C         96.8550   43.7540   33.2030 C.2   181  TYR181      0.2264
     38  O         95.8010   43.8840   33.8360 O.2   181  TYR181     -0.2867
     39  CB        98.2290   42.9720   35.1890 C.3   181  TYR181      0.0534
     40  CG        98.8890   41.7400   35.7530 C.ar  181  TYR181     -0.0201
     41  CD1       98.1230   40.6370   36.1300 C.ar  181  TYR181     -0.0009
     42  CD2      100.2790   41.6500   35.8500 C.ar  181  TYR181     -0.0009
     43  CE1       98.7270   39.4590   36.6360 C.ar  181  TYR181      0.0417
     44  CE2      100.8920   40.4840   36.3420 C.ar  181  TYR181      0.0417
     45  CZ       100.1120   39.4030   36.7260 C.ar  181  TYR181      0.1957
     46  OH       100.7110   38.2610   37.1910 O.3   181  TYR181     -0.2866
     47  N         89.5510   43.5870   35.4620 N.3   221  HIS221     -0.1241
     48  CA        89.9340   44.7690   34.6740 C.3   221  HIS221      0.1621
     49  C         90.6290   44.4730   33.3570 C.2   221  HIS221      0.2264
     50  O         91.0890   43.3500   33.0830 O.2   221  HIS221     -0.2867
     51  CB        90.8170   45.7100   35.5180 C.3   221  HIS221      0.0745
     52  CG        92.1010   45.0860   35.9870 C.ar  221  HIS221      0.0817
     53  ND1       92.2180   44.4470   37.1980 N.ar  221  HIS221     -0.2268
     54  CD2       93.3080   44.9680   35.3880 C.ar  221  HIS221      0.1154
     55  CE1       93.4510   44.0070   37.3560 C.ar  221  HIS221      0.1986
     56  NE2       94.1330   44.3030   36.2670 N.ar  221  HIS221     -0.2212
     57  N         90.2160   49.7690   47.9340 N.3   249  HIS249     -0.1241
     58  CA        90.7830   48.4710   48.3220 C.3   249  HIS249      0.1621
     59  C         90.2940   47.8910   49.6720 C.2   249  HIS249      0.2264
     60  O         91.0620   47.2170   50.3660 O.2   249  HIS249     -0.2867
     61  CB        92.3170   48.5790   48.3290 C.3   249  HIS249      0.0745
     62  CG        92.9060   48.9500   47.0070 C.ar  249  HIS249      0.0817
     63  ND1       93.3390   50.2260   46.7090 N.ar  249  HIS249     -0.2268
     64  CD2       93.1630   48.1990   45.9100 C.ar  249  HIS249      0.1154
     65  CE1       93.8300   50.2450   45.4830 C.ar  249  HIS249      0.1986
     66  NE2       93.7400   49.0250   44.9800 N.ar  249  HIS249     -0.2212
     67  N         89.0300   45.2740   50.9910 N.3   251  ARG251     -0.1245
     68  CA        88.7440   43.8920   50.5840 C.3   251  ARG251      0.1563
     69  C         87.8270   43.1330   51.5090 C.2   251  ARG251      0.2260
     70  O         87.0720   42.2860   51.0530 O.2   251  ARG251     -0.2867
     71  CB        90.0470   43.0860   50.3710 C.3   251  ARG251      0.0307
     72  CG        90.8260   42.8600   51.6370 C.3   251  ARG251      0.0489
     73  CD        91.8880   41.7620   51.4840 C.3   251  ARG251      0.2205
     74  NE        92.3170   41.5890   50.1000 N.pl3 251  ARG251     -0.0865
     75  CZ        93.1010   42.4450   49.4440 C.cat 251  ARG251      0.5346
     76  NH1       93.4410   42.1850   48.2000 N.pl3 251  ARG251      0.1354
     77  NH2       93.5340   43.5680   50.0320 N.pl3 251  ARG251      0.1354
     78  N         91.0960   49.6460   39.5670 N.3   272  PHE272     -0.1227
     79  CA        92.3210   49.3230   40.2850 C.3   272  PHE272      0.1736
     80  C         93.2890   50.5200   40.2580 C.2   272  PHE272      0.2595
     81  O         93.8010   50.9460   41.3170 O.2   272  PHE272     -0.2718
     82  CB        92.9790   48.0710   39.7040 C.3   272  PHE272      0.0547
     83  CG        93.9830   47.4580   40.6340 C.ar  272  PHE272     -0.0202
     84  CD1       95.3440   47.7120   40.4700 C.ar  272  PHE272     -0.0042
     85  CD2       93.5550   46.6890   41.7210 C.ar  272  PHE272     -0.0042
     86  CE1       96.2830   47.1720   41.3590 C.ar  272  PHE272     -0.0003
     87  CE2       94.4630   46.1550   42.6140 C.ar  272  PHE272     -0.0003
     88  CZ        95.8440   46.3910   42.4280 C.ar  272  PHE272     -0.0000
     89  N         93.5010   51.0470   39.0550 N.am  273  VAL273     -0.1980
     90  CA        94.2240   52.3000   38.7850 C.3   273  VAL273      0.1595
     91  C         93.5690   52.9570   37.5690 C.2   273  VAL273      0.2287
     92  O         92.7880   52.3190   36.8560 O.2   273  VAL273     -0.2864
     93  CB        95.7610   52.0960   38.5080 C.3   273  VAL273      0.0276
     94  CG1       96.5220   51.6870   39.8000 C.3   273  VAL273      0.0022
     95  CG2       96.0110   51.1100   37.3670 C.3   273  VAL273      0.0022
     96  N         93.4410   51.0650   34.2670 N.3   276  MET276     -0.1245
     97  CA        92.8030   49.7180   34.2800 C.3   276  MET276      0.1570
     98  C         91.2800   49.7700   34.4530 C.2   276  MET276      0.2261
     99  O         90.7490   49.5560   35.5840 O.2   276  MET276     -0.2867
    100  CB        93.4310   48.8240   35.3500 C.3   276  MET276      0.0387
    101  CG        94.8620   48.3990   35.0290 C.3   276  MET276      0.0595
    102  SD        95.5190   47.5060   36.4480 S.3   276  MET276     -0.1393
    103  CE        97.0170   46.8370   35.7240 C.3   276  MET276      0.0692
    104  N         95.7900   30.7080   37.2870 N.3   307  ARG307     -0.1245
    105  CA        96.0730   31.5740   38.4320 C.3   307  ARG307      0.1563
    106  C         95.2280   32.8240   38.1630 C.2   307  ARG307      0.2260
    107  O         95.3120   33.4180   37.0820 O.2   307  ARG307     -0.2867
    108  CB        97.5700   31.9050   38.4790 C.3   307  ARG307      0.0307
    109  CG        98.0070   32.8050   39.6250 C.3   307  ARG307      0.0489
    110  CD        98.0090   34.2840   39.1550 C.3   307  ARG307      0.2205
    111  NE        98.5260   35.1850   40.1930 N.pl3 307  ARG307     -0.0865
    112  CZ        98.4250   36.5110   40.1200 C.cat 307  ARG307      0.5346
    113  NH1       98.9240   37.2510   41.1030 N.pl3 307  ARG307      0.1354
    114  NH2       97.8210   37.0890   39.0710 N.pl3 307  ARG307      0.1354
    115  N         94.0450   36.4900   38.9550 N.3   309  ASP309     -0.1225
    116  CA        94.5080   37.7440   39.5120 C.3   309  ASP309      0.1805
    117  C         93.4420   38.4300   40.3410 C.2   309  ASP309      0.2598
    118  O         92.2500   38.1750   40.1320 O.2   309  ASP309     -0.2718
    119  CB        94.8390   38.6720   38.3590 C.3   309  ASP309      0.1424
    120  CG        95.6520   39.8730   38.7990 C.2   309  ASP309      0.3668
    121  OD1       96.7270   39.6530   39.3770 O.co2 309  ASP309     -0.2456
    122  OD2       95.2030   41.0100   38.5330 O.co2 309  ASP309     -0.2456
    123  N         93.8870   39.3180   41.2440 N.am  310  THR310     -0.1953
    124  CA        93.0040   40.3060   41.9160 C.3   310  THR310      0.1897
    125  C         91.6650   39.6730   42.2420 C.2   310  THR310      0.2313
    126  O         90.6120   40.1570   41.8030 O.2   310  THR310     -0.2863
    127  CB        92.7840   41.6180   41.0230 C.3   310  THR310      0.1794
    128  OG1       92.6940   41.2890   39.6340 O.3   310  THR310     -0.2208
    129  CG2       93.9320   42.6160   41.2050 C.3   310  THR310      0.0378
    130  N         88.3740   41.4010   43.7280 N.3   313  TYR313     -0.1241
    131  CA        88.0160   42.6070   42.9720 C.3   313  TYR313      0.1605
    132  C         86.9890   42.3450   41.8680 C.2   313  TYR313      0.2264
    133  O         86.4860   43.2840   41.2510 O.2   313  TYR313     -0.2867
    134  CB        89.2470   43.2410   42.3570 C.3   313  TYR313      0.0534
    135  CG        90.2400   43.8180   43.3110 C.ar  313  TYR313     -0.0201
    136  CD1       90.1840   45.1910   43.6630 C.ar  313  TYR313     -0.0009
    137  CD2       91.2730   43.0260   43.8450 C.ar  313  TYR313     -0.0009
    138  CE1       91.1230   45.7490   44.5110 C.ar  313  TYR313      0.0417
    139  CE2       92.2330   43.5780   44.7060 C.ar  313  TYR313      0.0417
    140  CZ        92.1470   44.9290   45.0380 C.ar  313  TYR313      0.1957
    141  OH        93.0770   45.4840   45.8700 O.3   313  TYR313     -0.2866
    142  N         94.3190   34.7300   43.6270 N.3   338  GLN338     -0.1245
    143  CA        95.1990   35.6440   44.3390 C.3   338  GLN338      0.1566
    144  C         94.3360   36.5680   45.2110 C.2   338  GLN338      0.2260
    145  O         93.8550   37.6010   44.7550 O.2   338  GLN338     -0.2867
    146  CB        96.1020   36.4240   43.3540 C.3   338  GLN338      0.0367
    147  CG        97.1630   37.2820   44.1000 C.3   338  GLN338      0.0905
    148  CD        97.2600   38.6870   43.5420 C.2   338  GLN338      0.2608
    149  OE1       96.2930   39.2040   42.9750 O.2   338  GLN338     -0.2717
    150  NE2       98.4170   39.3310   43.7390 N.am  338  GLN338     -0.0878
    151  N         94.9730   38.7390   48.1660 N.3   340  TRP340     -0.1227
    152  CA        96.1620   39.1570   48.9140 C.3   340  TRP340      0.1737
    153  C         95.8020   39.7470   50.2740 C.2   340  TRP340      0.2596
    154  O         95.5740   40.9730   50.4360 O.2   340  TRP340     -0.2718
    155  CB        97.0250   40.1020   48.0950 C.3   340  TRP340      0.0564
    156  CG        98.4060   40.3290   48.7030 C.ar  340  TRP340      0.0003
    157  CD1       98.7970   40.1520   50.0140 C.ar  340  TRP340      0.0946
    158  CD2       99.5400   40.8050   48.0080 C.ar  340  TRP340      0.0152
    159  NE1      100.1330   40.5140   50.1590 N.ar  340  TRP340     -0.2442
    160  CE2      100.6030   40.9180   48.9410 C.ar  340  TRP340      0.0810
    161  CE3       99.7730   41.1480   46.6740 C.ar  340  TRP340      0.0012
    162  CZ2      101.8900   41.3470   48.5690 C.ar  340  TRP340      0.0191
    163  CZ3      101.0460   41.6070   46.3160 C.ar  340  TRP340      0.0001
    164  CH2      102.0790   41.6940   47.2550 C.ar  340  TRP340      0.0015
    165  N         95.7300   38.8420   51.2480 N.am  341  SER341     -0.1938
    166  CA        95.5050   39.1640   52.6510 C.3   341  SER341      0.2055
    167  C         96.3830   38.2480   53.4760 C.2   341  SER341      0.2643
    168  O         96.5260   37.0470   53.1580 O.2   341  SER341     -0.2714
    169  CB        94.0550   38.9440   53.0630 C.3   341  SER341      0.2130
    170  OG        93.8880   39.1980   54.4480 O.3   341  SER341     -0.2179
    171  N         96.9120   38.7870   54.5600 N.am  342  THR342     -0.1950
    172  CA        97.6350   37.9390   55.5290 C.3   342  THR342      0.1897
    173  C         96.7260   37.3540   56.6110 C.2   342  THR342      0.2313
    174  O         97.1840   36.6680   57.5460 O.2   342  THR342     -0.2863
    175  CB        98.8630   38.6350   56.1980 C.3   342  THR342      0.1794
    176  OG1       98.4580   39.8330   56.8680 O.3   342  THR342     -0.2208
    177  CG2       99.9740   38.9020   55.1640 C.3   342  THR342      0.0378
    178  N        106.3730   37.9510   41.7060 N.3   415  HIS415     -0.1226
    179  CA       106.7520   39.2050   41.0560 C.3   415  HIS415      0.1752
    180  C        106.2390   40.4690   41.7890 C.2   415  HIS415      0.2596
    181  O        106.5300   41.5780   41.3210 O.2   415  HIS415     -0.2718
    182  CB       106.1910   39.1780   39.6370 C.3   415  HIS415      0.0759
    183  CG       104.6940   39.1250   39.6040 C.ar  415  HIS415      0.0818
    184  ND1      103.9720   38.0820   40.1420 N.ar  415  HIS415     -0.2268
    185  CD2      103.7880   39.9720   39.0580 C.ar  415  HIS415      0.1154
    186  CE1      102.6820   38.3060   39.9630 C.ar  415  HIS415      0.1986
    187  NE2      102.5470   39.4460   39.3050 N.ar  415  HIS415     -0.2212
    188  N        105.4960   40.3180   42.8990 N.am  416  ASP416     -0.1960
    189  CA       104.9050   41.4710   43.6250 C.3   416  ASP416      0.1840
    190  C        105.5380   41.7650   44.9740 C.2   416  ASP416      0.2621
    191  O        105.1070   42.6710   45.6710 O.2   416  ASP416     -0.2715
    192  CB       103.3860   41.2820   43.8500 C.3   416  ASP416      0.1450
    193  CG       102.6060   41.2250   42.5540 C.2   416  ASP416      0.3671
    194  OD1      102.9370   42.0120   41.6330 O.co2 416  ASP416     -0.2456
    195  OD2      101.6300   40.4180   42.4850 O.co2 416  ASP416     -0.2456
    196  N        106.5210   40.9640   45.3740 N.am  417  MET417     -0.1977
    197  CA       107.0910   41.0980   46.7080 C.3   417  MET417      0.1605
    198  C        108.6000   40.9420   46.6390 C.2   417  MET417      0.2287
    199  O        109.1600   40.5170   45.6000 O.2   417  MET417     -0.2864
    200  CB       106.4720   40.1040   47.7090 C.3   417  MET417      0.0413
    201  CG       106.7450   38.6640   47.4210 C.3   417  MET417      0.0598
    202  SD       105.9820   37.5830   48.6750 S.3   417  MET417     -0.1393
    203  CE       104.3210   38.1590   48.5460 C.3   417  MET417      0.0692
    204  N        108.9770   48.6880   51.4980 N.3   461  GLY461     -0.1210
    205  CA       107.9220   49.2530   50.6860 C.3   461  GLY461      0.1956
    206  C        107.5690   48.4080   49.4890 C.2   461  GLY461      0.2611
    207  O        107.5060   47.1650   49.5530 O.2   461  GLY461     -0.2717
    208  N        107.3400   49.0920   48.3810 N.am  462  ARG462     -0.1979
    209  CA       107.0230   48.4020   47.1620 C.3   462  ARG462      0.1597
    210  C        107.8640   48.9370   46.0250 C.2   462  ARG462      0.2287
    211  O        107.9750   50.1550   45.8150 O.2   462  ARG462     -0.2864
    212  CB       105.5400   48.5160   46.8510 C.3   462  ARG462      0.0334
    213  CG       105.1900   47.9120   45.5190 C.3   462  ARG462      0.0492
    214  CD       103.7270   48.0170   45.3160 C.3   462  ARG462      0.2205
    215  NE       103.3350   47.6630   43.9610 N.pl3 462  ARG462     -0.0865
    216  CZ       102.0980   47.8260   43.5040 C.cat 462  ARG462      0.5346
    217  NH1      101.1650   48.3450   44.3010 N.pl3 462  ARG462      0.1354
    218  NH2      101.7950   47.4850   42.2600 N.pl3 462  ARG462      0.1354
    219  N        108.2610   47.3490   42.3830 N.3   464  ASP464     -0.1239
    220  CA       107.9870   46.2930   41.3860 C.3   464  ASP464      0.1674
    221  C        109.1500   45.9830   40.4550 C.2   464  ASP464      0.2266
    222  O        109.4540   44.8230   40.1830 O.2   464  ASP464     -0.2867
    223  CB       106.7570   46.6540   40.5480 C.3   464  ASP464      0.1410
    224  CG       105.4850   46.6770   41.3670 C.2   464  ASP464      0.3668
    225  OD1      105.4860   46.2340   42.5460 O.co2 464  ASP464     -0.2456
    226  OD2      104.4810   47.1660   40.8280 O.co2 464  ASP464     -0.2456
    227  N        111.8270   43.5950   41.6530 N.3   467  TYR467     -0.1227
    228  CA       111.4770   42.1540   41.7810 C.3   467  TYR467      0.1736
    229  C        111.5450   41.3890   40.4650 C.2   467  TYR467      0.2595
    230  O        111.2780   40.1720   40.4220 O.2   467  TYR467     -0.2718
    231  CB       110.0560   41.9880   42.3600 C.3   467  TYR467      0.0548
    232  CG       109.6980   42.9090   43.5210 C.ar  467  TYR467     -0.0200
    233  CD1      110.6280   43.2230   44.5310 C.ar  467  TYR467     -0.0009
    234  CD2      108.4100   43.4280   43.6370 C.ar  467  TYR467     -0.0009
    235  CE1      110.2780   44.0620   45.5970 C.ar  467  TYR467      0.0417
    236  CE2      108.0440   44.2460   44.7150 C.ar  467  TYR467      0.0417
    237  CZ       108.9700   44.5630   45.6700 C.ar  467  TYR467      0.1957
    238  OH       108.5920   45.3640   46.7300 O.3   467  TYR467     -0.2866
    239  N        111.8420   42.0970   39.3780 N.am  468  ARG468     -0.1980
    240  CA       111.5740   41.5380   38.0560 C.3   468  ARG468      0.1597
    241  C        112.7580   41.6630   37.1350 C.2   468  ARG468      0.2287
    242  O        112.6000   41.7040   35.9140 O.2   468  ARG468     -0.2864
    243  CB       110.3250   42.1820   37.4240 C.3   468  ARG468      0.0334
    244  CG       109.0900   42.0610   38.3120 C.3   468  ARG468      0.0492
    245  CD       108.0630   43.0590   37.9730 C.3   468  ARG468      0.2205
    246  NE       106.9000   42.9500   38.8590 N.pl3 468  ARG468     -0.0865
    247  CZ       105.7410   43.5710   38.6590 C.cat 468  ARG468      0.5346
    248  NH1      105.5500   44.3440   37.5730 N.pl3 468  ARG468      0.1354
    249  NH2      104.7540   43.4080   39.5280 N.pl3 468  ARG468      0.1354
@<TRIPOS>BOND
     1    13    14    1
     2    14    17    1
     3    14    15    1
     4    17    18    1
     5     1     2    1
     6    16    15    2
     7     3     2    1
     8     3     4    2
     9    15    25   am
    10     2     5    1
    11    25    26    1
    12    18    19   ar
    13    18    20   ar
    14    19    21   ar
    15    27    26    1
    16    27    28    2
    17     5     6    1
    18    20    22   ar
    19    35    36    1
    20    26    29    1
    21    50    49    2
    22    37    36    1
    23    37    38    2
    24     8     6   ar
    25     8    10   ar
    26    49    48    1
    27     6     7   ar
    28    36    39    1
    29    21    23   ar
    30    10    11   ar
    31     7     9   ar
    32    34    32   ar
    33    34    33   ar
    34    32    30   ar
    35    22    23   ar
    36    30    29    1
    37    30    31   ar
    38    33    31   ar
    39    96    97    1
    40    97    98    1
    41    97   100    1
    42    98    99    2
    43    11     9   ar
    44    11    12    1
    45    23    24    1
    46    48    47    1
    47    48    51    1
    48   101   100    1
    49   101   102    1
    50    39    40    1
    51    54    52   ar
    52    54    56   ar
    53    51    52    1
    54   103   102    1
    55    40    42   ar
    56    40    41   ar
    57    42    44   ar
    58   242   241    2
    59    52    53   ar
    60    41    43   ar
    61    56    55   ar
    62    44    45   ar
    63    43    45   ar
    64    45    46    1
    65    92    91    2
    66   107   106    2
    67   241   240    1
    68    53    55   ar
    69   104   105    1
    70    95    93    1
    71   243   240    1
    72   243   244    1
    73    91    90    1
    74   248   247    1
    75   245   244    1
    76   245   246    1
    77   240   239    1
    78   106   105    1
    79   119   120    1
    80   119   116    1
    81   105   108    1
    82   108   109    1
    83    93    90    1
    84    93    94    1
    85   122   120   ar
    86   247   246    2
    87   247   249    1
    88    90    89    1
    89   120   121   ar
    90   115   116    1
    91    89    80   am
    92   185   187   ar
    93   185   183   ar
    94   114   112    1
    95   110   109    1
    96   110   111    1
    97   187   186   ar
    98   239   229   am
    99   116   117    1
   100    78    79    1
   101   183   182    1
   102   183   184   ar
   103   128   127    1
   104   182   179    1
   105    82    79    1
   106    82    83    1
   107   186   184   ar
   108   112   111    2
   109   112   113    1
   110   118   117    2
   111   222   221    2
   112    80    79    1
   113    80    81    2
   114   117   123   am
   115   230   229    2
   116   221   220    1
   117   229   228    1
   118    84    83   ar
   119    84    86   ar
   120   223   224    1
   121   223   220    1
   122    83    85   ar
   123   226   224   ar
   124   127   129    1
   125   127   124    1
   126   179   178    1
   127   179   180    1
   128   123   124    1
   129   133   132    2
   130   181   180    2
   131    86    88   ar
   132   224   225   ar
   133   220   219    1
   134   194   193   ar
   135   227   228    1
   136    85    87   ar
   137   228   231    1
   138   180   188   am
   139   126   125    2
   140   132   131    1
   141   124   125    1
   142   218   216    1
   143   134   131    1
   144   134   135    1
   145   231   232    1
   146    88    87   ar
   147   195   193   ar
   148   193   192    1
   149   188   189    1
   150   131   130    1
   151   149   148    2
   152   135   136   ar
   153   135   137   ar
   154   146   147    1
   155   146   143    1
   156   216   215    2
   157   216   217    1
   158   232   234   ar
   159   232   233   ar
   160   148   150   am
   161   148   147    1
   162   189   192    1
   163   189   190    1
   164   142   143    1
   165   234   236   ar
   166   136   138   ar
   167   137   139   ar
   168   215   214    1
   169   143   144    1
   170   138   140   ar
   171   233   235   ar
   172   139   140   ar
   173   236   237   ar
   174   145   144    2
   175   190   196   am
   176   190   191    2
   177    66    65   ar
   178    66    64   ar
   179   140   141    1
   180   214   213    1
   181   196   197    1
   182    65    63   ar
   183   213   212    1
   184   235   237   ar
   185   199   198    2
   186   237   238    1
   187   211   210    2
   188    64    62   ar
   189   210   209    1
   190   163   161   ar
   191   163   164   ar
   192   198   197    1
   193   161   158   ar
   194   197   200    1
   195    63    62   ar
   196   212   209    1
   197    62    61    1
   198   209   208    1
   199   164   162   ar
   200   201   200    1
   201   201   202    1
   202    57    58    1
   203   158   156   ar
   204   158   160   ar
   205   155   156    1
   206   155   152    1
   207   151   152    1
   208    76    75    1
   209    58    61    1
   210    58    59    1
   211   208   206   am
   212   203   202    1
   213   162   160   ar
   214   156   157   ar
   215   152   153    1
   216   160   159   ar
   217    75    77    1
   218    75    74    2
   219   206   207    2
   220   206   205    1
   221    59    60    2
   222   157   159   ar
   223    74    73    1
   224   153   154    2
   225   153   165   am
   226    71    68    1
   227    71    72    1
   228    68    67    1
   229    68    69    1
   230   205   204    1
   231    70    69    2
   232   165   166    1
   233    73    72    1
   234   166   169    1
   235   166   167    1
   236   169   170    1
   237   168   167    2
   238   167   171   am
   239   171   172    1
   240   177   175    1
   241   172   175    1
   242   172   173    1
   243   175   176    1
   244   173   174    2
