@<TRIPOS>MOLECULE
tmp/3edlE00.pdb
 172 161 0 0 0
SMALL
GASTEIGER

@<TRIPOS>ATOM
      1  N        146.5230  441.1670  108.3320 N.3   199  TYR199     -0.1241
      2  CA       146.1290  441.9960  107.2060 C.3   199  TYR199      0.1605
      3  C        147.2170  443.0190  107.0500 C.2   199  TYR199      0.2264
      4  O        147.6680  443.5800  108.0460 O.2   199  TYR199     -0.2867
      5  CB       144.8130  442.7260  107.5000 C.3   199  TYR199      0.0534
      6  CG       143.6460  441.8060  107.5870 C.ar  199  TYR199     -0.0201
      7  CD1      143.3130  441.2420  108.7800 C.ar  199  TYR199     -0.0009
      8  CD2      142.9040  441.4800  106.4660 C.ar  199  TYR199     -0.0009
      9  CE1      142.2660  440.3730  108.8790 C.ar  199  TYR199      0.0417
     10  CE2      141.8570  440.6150  106.5360 C.ar  199  TYR199      0.0417
     11  CZ       141.5300  440.0490  107.7530 C.ar  199  TYR199      0.1957
     12  OH       140.4600  439.1570  107.8950 O.3   199  TYR199     -0.2866
     13  N        136.1310  444.2280  106.0060 N.3   235  VAL235     -0.1245
     14  CA       136.7210  442.9560  106.3210 C.3   235  VAL235      0.1561
     15  C        136.0150  442.2030  107.4490 C.2   235  VAL235      0.2260
     16  O        136.0540  440.9760  107.4780 O.2   235  VAL235     -0.2867
     17  CB       138.1710  443.1570  106.7090 C.3   235  VAL235      0.0252
     18  CG1      138.7390  441.9020  107.2870 C.3   235  VAL235      0.0019
     19  CG2      138.9730  443.5730  105.5160 C.3   235  VAL235      0.0019
     20  N        130.9040  440.3030  107.8380 N.3   238  CYS238     -0.1221
     21  CA       130.3850  438.9500  108.0210 C.3   238  CYS238      0.1808
     22  C        130.4700  438.4360  109.4670 C.2   238  CYS238      0.2601
     23  O        129.6360  437.6240  109.8620 O.2   238  CYS238     -0.2717
     24  CB       131.0850  438.0120  107.0530 C.3   238  CYS238      0.0970
     25  SG       132.5220  438.8220  106.2990 S.3   238  CYS238     -0.0800
     26  N        131.4370  438.8770  110.2710 N.am  239  LEU239     -0.1979
     27  CA       131.3660  438.4430  111.6600 C.3   239  LEU239      0.1596
     28  C        130.5210  439.3240  112.5540 C.2   239  LEU239      0.2287
     29  O        130.1300  438.8790  113.6290 O.2   239  LEU239     -0.2864
     30  CB       132.7030  438.1380  112.3340 C.3   239  LEU239      0.0297
     31  CG       134.1050  438.3600  111.8240 C.3   239  LEU239      0.0022
     32  CD1      134.7220  439.5320  112.5470 C.3   239  LEU239      0.0001
     33  CD2      134.8590  437.1030  112.1480 C.3   239  LEU239      0.0001
     34  N        124.2350  434.6170  107.3680 N.3   244  GLN244     -0.1231
     35  CA       124.5250  434.0200  106.0670 C.3   244  GLN244      0.1698
     36  C        125.6480  433.0120  106.3930 C.2   244  GLN244      0.2592
     37  O        125.4500  431.7710  106.3380 O.2   244  GLN244     -0.2718
     38  CB       124.9850  435.0930  105.0840 C.3   244  GLN244      0.0381
     39  CG       126.3400  435.7090  105.4800 C.3   244  GLN244      0.0905
     40  CD       126.5040  437.1770  105.0920 C.2   244  GLN244      0.2608
     41  OE1      125.5440  437.7990  104.6050 O.2   244  GLN244     -0.2717
     42  NE2      127.7170  437.7500  105.3280 N.am  244  GLN244     -0.0878
     43  N        126.7990  433.5550  106.7910 N.am  245  LEU245     -0.1980
     44  CA       127.9150  432.7400  107.2110 C.3   245  LEU245      0.1596
     45  C        127.7150  432.5350  108.6990 C.2   245  LEU245      0.2287
     46  O        126.9580  431.6390  109.1210 O.2   245  LEU245     -0.2864
     47  CB       129.2430  433.4510  106.9610 C.3   245  LEU245      0.0297
     48  CG       129.3450  434.4450  105.8090 C.3   245  LEU245      0.0022
     49  CD1      130.5710  435.3620  105.9520 C.3   245  LEU245      0.0001
     50  CD2      129.3690  433.6580  104.4980 C.3   245  LEU245      0.0001
     51  N        130.8750  433.3010  110.6160 N.3   247  ALA247     -0.1245
     52  CA       132.3200  433.5470  110.7270 C.3   247  ALA247      0.1562
     53  C        133.0280  433.2580  112.0650 C.2   247  ALA247      0.2260
     54  O        133.2510  434.1570  112.8960 O.2   247  ALA247     -0.2867
     55  CB       132.6710  434.9710  110.2100 C.3   247  ALA247      0.0290
     56  N        135.8760  433.1520  112.5470 N.3   249  LEU249     -0.1245
     57  CA       137.1810  433.8370  112.4910 C.3   249  LEU249      0.1561
     58  C        138.2980  432.8060  112.5080 C.2   249  LEU249      0.2260
     59  O        139.4320  433.1070  112.1660 O.2   249  LEU249     -0.2867
     60  CB       137.3410  434.8720  113.6090 C.3   249  LEU249      0.0270
     61  CG       138.6290  435.6480  113.9120 C.3   249  LEU249      0.0019
     62  CD1      138.7830  436.9110  113.0820 C.3   249  LEU249      0.0001
     63  CD2      138.6240  436.0110  115.3840 C.3   249  LEU249      0.0001
     64  N        137.1550  429.7990  111.2750 N.3   251  LYS251     -0.1231
     65  CA       136.7490  429.2100  110.0140 C.3   251  LYS251      0.1693
     66  C        137.4720  430.0230  108.9620 C.2   251  LYS251      0.2591
     67  O        138.0750  429.4830  108.0420 O.2   251  LYS251     -0.2718
     68  CB       135.2350  429.2850  109.8250 C.3   251  LYS251      0.0285
     69  CG       134.4550  428.0720  110.3280 C.3   251  LYS251      0.0035
     70  CD       132.9800  428.4190  110.5440 C.3   251  LYS251      0.0206
     71  CE       132.1160  427.1670  110.7220 C.3   251  LYS251      0.1093
     72  NZ       130.8880  427.4120  111.5530 N.3   251  LYS251     -0.1314
     73  N        137.4550  431.3360  109.1450 N.am  252  LEU252     -0.1980
     74  CA       138.1280  432.2410  108.2240 C.3   252  LEU252      0.1596
     75  C        139.5890  431.8830  108.1090 C.2   252  LEU252      0.2287
     76  O        140.1380  431.9240  107.0270 O.2   252  LEU252     -0.2864
     77  CB       137.9920  433.7000  108.6720 C.3   252  LEU252      0.0297
     78  CG       138.3520  434.8490  107.7100 C.3   252  LEU252      0.0022
     79  CD1      139.8120  435.3120  107.8130 C.3   252  LEU252      0.0001
     80  CD2      137.9950  434.5240  106.2710 C.3   252  LEU252      0.0001
     81  N        140.3710  428.4020  106.4290 N.3   255  ASN255     -0.1225
     82  CA       140.0230  428.4410  105.0240 C.3   255  ASN255      0.1785
     83  C        140.8250  429.3850  104.1170 C.2   255  ASN255      0.2597
     84  O        140.8170  429.2640  102.8860 O.2   255  ASN255     -0.2718
     85  CB       138.5480  428.7610  104.9060 C.3   255  ASN255      0.1169
     86  CG       137.7560  427.5790  104.4830 C.2   255  ASN255      0.2627
     87  OD1      136.7900  427.1880  105.1420 O.2   255  ASN255     -0.2716
     88  ND2      138.1630  426.9790  103.3800 N.am  255  ASN255     -0.0877
     89  N        141.5170  430.3340  104.7150 N.am  256  MET256     -0.1979
     90  CA       142.2540  431.2820  103.9360 C.3   256  MET256      0.1605
     91  C        143.7130  430.9860  103.9480 C.2   256  MET256      0.2287
     92  O        144.4040  431.3360  103.0070 O.2   256  MET256     -0.2864
     93  CB       142.0330  432.6600  104.5070 C.3   256  MET256      0.0413
     94  CG       140.7210  433.2290  104.1250 C.3   256  MET256      0.0598
     95  SD       140.6040  433.1450  102.3750 S.3   256  MET256     -0.1393
     96  CE       141.4170  434.7340  101.9460 C.3   256  MET256      0.0692
     97  N        144.3230  431.9100   97.8930 N.3   303  THR303     -0.1203
     98  CA       142.8910  431.8890   98.1370 C.3   303  THR303      0.1994
     99  C        142.4150  433.3190   98.2550 C.2   303  THR303      0.2618
    100  O        143.1360  434.1950   98.7520 O.2   303  THR303     -0.2717
    101  CB       142.5240  431.1610   99.4390 C.3   303  THR303      0.1784
    102  OG1      143.1400  431.8300  100.5440 O.3   303  THR303     -0.2211
    103  CG2      143.0920  429.7370   99.4970 C.3   303  THR303      0.0376
    104  N        141.1890  433.5390   97.8190 N.am  304  VAL304     -0.1965
    105  CA       140.5940  434.8540   97.8500 C.3   304  VAL304      0.1727
    106  C        139.2360  434.8000   98.4950 C.2   304  VAL304      0.2616
    107  O        138.5180  433.8190   98.3690 O.2   304  VAL304     -0.2715
    108  CB       140.5010  435.4310   96.4390 C.3   304  VAL304      0.0290
    109  CG1      139.2810  436.3210   96.2670 C.3   304  VAL304      0.0023
    110  CG2      141.7570  436.2100   96.1500 C.3   304  VAL304      0.0023
    111  N        138.8970  435.8660   99.2000 N.am  305  ALA305     -0.1963
    112  CA       137.6230  435.9650   99.8740 C.3   305  ALA305      0.1728
    113  C        137.0710  437.3590   99.6460 C.2   305  ALA305      0.2616
    114  O        137.7330  438.3450   99.9790 O.2   305  ALA305     -0.2715
    115  CB       137.8180  435.7100  101.3330 C.3   305  ALA305      0.0334
    116  N        135.8710  437.4400   99.0750 N.am  306  ALA306     -0.1963
    117  CA       135.2660  438.7270   98.7700 C.3   306  ALA306      0.1728
    118  C        133.9320  438.8800   99.4270 C.2   306  ALA306      0.2616
    119  O        133.1680  437.9500   99.4660 O.2   306  ALA306     -0.2715
    120  CB       135.1160  438.8890   97.2980 C.3   306  ALA306      0.0334
    121  N        133.6500  440.0740   99.9160 N.am  307  VAL307     -0.1977
    122  CA       132.3960  440.3430  100.6020 C.3   307  VAL307      0.1596
    123  C        131.7360  441.6490  100.1090 C.2   307  VAL307      0.2287
    124  O        132.2440  442.7570  100.3290 O.2   307  VAL307     -0.2864
    125  CB       132.5610  440.2490  102.1720 C.3   307  VAL307      0.0276
    126  CG1      134.0150  440.4580  102.6060 C.3   307  VAL307      0.0022
    127  CG2      131.6330  441.2020  102.9190 C.3   307  VAL307      0.0022
    128  N        137.7750  425.1030   94.7170 N.3   338  ASN338     -0.1225
    129  CA       136.9890  426.3320   94.8530 C.3   338  ASN338      0.1785
    130  C        137.5980  427.2550   95.8540 C.2   338  ASN338      0.2597
    131  O        137.1130  427.3630   96.9720 O.2   338  ASN338     -0.2718
    132  CB       135.5620  426.0130   95.2220 C.3   338  ASN338      0.1169
    133  CG       135.0960  424.7390   94.5900 C.2   338  ASN338      0.2627
    134  OD1      135.3150  423.6590   95.1350 O.2   338  ASN338     -0.2716
    135  ND2      134.4990  424.8430   93.4080 N.am  338  ASN338     -0.0877
    136  N        138.6480  427.9370   95.4020 N.am  339  ASN339     -0.1974
    137  CA       139.4970  428.8140   96.2070 C.3   339  ASN339      0.1688
    138  C        139.1670  430.2850   96.2070 C.2   339  ASN339      0.2292
    139  O        139.9960  431.1170   96.5660 O.2   339  ASN339     -0.2864
    140  CB       140.9350  428.6490   95.7540 C.3   339  ASN339      0.1181
    141  CG       141.2000  429.3150   94.4280 C.2   339  ASN339      0.2629
    142  OD1      142.1950  430.0120   94.2900 O.2   339  ASN339     -0.2716
    143  ND2      140.3100  429.1160   93.4430 N.am  339  ASN339     -0.0877
    144  N        135.7970  432.4740   97.4230 N.3   341  LYS341     -0.1231
    145  CA       134.4470  432.5090   97.9770 C.3   341  LYS341      0.1693
    146  C        133.9400  433.9130   98.1980 C.2   341  LYS341      0.2593
    147  O        134.6740  434.7960   98.6390 O.2   341  LYS341     -0.2718
    148  CB       134.3800  431.7020   99.2620 C.3   341  LYS341      0.0285
    149  CG       134.4350  430.2100   99.0120 C.3   341  LYS341      0.0035
    150  CD       133.0650  429.6360   98.7130 C.3   341  LYS341      0.0206
    151  CE       133.0150  428.1530   99.0400 C.3   341  LYS341      0.1093
    152  NZ       133.9620  427.3060   98.2470 N.3   341  LYS341     -0.1314
    153  N        132.6590  434.0980   97.8990 N.am  342  THR342     -0.1939
    154  CA       132.0230  435.4040   97.9680 C.3   342  THR342      0.2028
    155  C        130.8180  435.4280   98.8600 C.2   342  THR342      0.2642
    156  O        129.9660  434.5570   98.7900 O.2   342  THR342     -0.2714
    157  CB       131.5760  435.8030   96.5970 C.3   342  THR342      0.1808
    158  OG1      130.9720  434.6670   95.9680 O.3   342  THR342     -0.2208
    159  CG2      132.7830  436.0820   95.7390 C.3   342  THR342      0.0379
    160  N        130.7480  436.4690   99.6730 N.am  343  ALA343     -0.1977
    161  CA       129.6850  436.6560  100.6420 C.3   343  ALA343      0.1597
    162  C        128.9870  437.9740  100.3480 C.2   343  ALA343      0.2287
    163  O        129.6490  438.9630  100.0260 O.2   343  ALA343     -0.2864
    164  CB       130.2790  436.6770  102.0540 C.3   343  ALA343      0.0319
    165  N        139.6480  440.2560  100.2810 N.3   359  ILE359     -0.1245
    166  CA       140.7300  439.7280  101.0950 C.3   359  ILE359      0.1561
    167  C        141.5340  438.7660  100.2410 C.2   359  ILE359      0.2260
    168  O        140.9910  437.8060   99.7120 O.2   359  ILE359     -0.2867
    169  CB       140.1600  439.0390  102.3470 C.3   359  ILE359      0.0252
    170  CG1      139.7100  440.0940  103.3600 C.3   359  ILE359      0.0019
    171  CG2      141.1830  438.1000  102.9800 C.3   359  ILE359      0.0019
    172  CD1      138.9410  439.5490  104.5320 C.3   359  ILE359      0.0001
@<TRIPOS>BOND
     1   135   133   am
     2   143   141   am
     3   142   141    2
     4   141   140    1
     5   133   134    2
     6   133   132    1
     7   128   129    1
     8   129   132    1
     9   129   130    1
    10   136   130   am
    11   136   137    1
    12   159   157    1
    13   140   137    1
    14   130   131    2
    15   158   157    1
    16   110   108    1
    17   138   137    1
    18   138   139    2
    19   109   108    1
    20   108   105    1
    21   157   154    1
    22   120   117    1
    23   144   145    1
    24   104   105    1
    25   104    99   am
    26   105   106    1
    27    97    98    1
    28   153   154    1
    29   153   146   am
    30   154   155    1
    31   145   146    1
    32   145   148    1
    33    98    99    1
    34    98   101    1
    35   146   147    2
    36   152   151    1
    37    99   100    2
    38   107   106    2
    39   106   111   am
    40   150   149    1
    41   150   151    1
    42   117   116    1
    43   117   118    1
    44   156   155    2
    45   155   160   am
    46   149   148    1
    47   116   113   am
    48   111   112    1
    49   118   119    2
    50   118   121   am
    51   101   103    1
    52   101   102    1
    53   113   112    1
    54   113   114    2
    55   160   161    1
    56   168   167    2
    57   112   115    1
    58   121   122    1
    59   163   162    2
    60   123   124    2
    61   123   122    1
    62   167   166    1
    63   165   166    1
    64   162   161    1
    65   122   125    1
    66   161   164    1
    67   166   169    1
    68    96    95    1
    69   125   126    1
    70   125   127    1
    71   169   171    1
    72   169   170    1
    73    95    94    1
    74    84    83    2
    75    92    91    2
    76   170   172    1
    77    88    86   am
    78    90    91    1
    79    90    93    1
    80    90    89    1
    81    83    89   am
    82    83    82    1
    83    94    93    1
    84    86    85    1
    85    86    87    2
    86    50    48    1
    87    41    40    2
    88    85    82    1
    89    82    81    1
    90    38    39    1
    91    38    35    1
    92    40    42   am
    93    40    39    1
    94    19    17    1
    95    48    49    1
    96    48    47    1
    97    13    14    1
    98    35    36    1
    99    35    34    1
   100    80    78    1
   101    25    24    1
   102    14    17    1
   103    14    15    1
   104    37    36    2
   105    36    43   am
   106     8    10   ar
   107     8     6   ar
   108    10    11   ar
   109    17    18    1
   110    43    44    1
   111    47    44    1
   112    76    75    2
   113     3     2    1
   114     3     4    2
   115    24    21    1
   116     2     5    1
   117     2     1    1
   118    44    45    1
   119    15    16    2
   120     5     6    1
   121     6     7   ar
   122    78    79    1
   123    78    77    1
   124    11    12    1
   125    11     9   ar
   126    20    21    1
   127    21    22    1
   128    67    66    2
   129    75    74    1
   130    74    77    1
   131    74    73    1
   132    45    46    2
   133     7     9   ar
   134    66    73   am
   135    66    65    1
   136    22    23    2
   137    22    26   am
   138    68    65    1
   139    68    69    1
   140    65    64    1
   141    55    52    1
   142    26    27    1
   143    69    70    1
   144    70    71    1
   145    51    52    1
   146    71    72    1
   147    52    53    1
   148    27    30    1
   149    27    28    1
   150    31    33    1
   151    31    30    1
   152    31    32    1
   153    53    54    2
   154    59    58    2
   155    57    58    1
   156    57    56    1
   157    57    60    1
   158    28    29    2
   159    62    61    1
   160    60    61    1
   161    61    63    1
