@<TRIPOS>MOLECULE
tmp/3edlC00.pdb
 154 147 0 0 0
SMALL
GASTEIGER

@<TRIPOS>ATOM
      1  N        165.1070  399.2380  103.9150 N.3     6  ARG6       -0.1231
      2  CA       165.4840  398.0730  104.7060 C.3     6  ARG6        0.1694
      3  C        164.2930  397.4630  105.4130 C.2     6  ARG6        0.2592
      4  O        163.6500  398.1190  106.2390 O.2     6  ARG6       -0.2718
      5  CB       166.5290  398.4370  105.7730 C.3     6  ARG6        0.0321
      6  CG       166.7930  397.2880  106.7380 C.3     6  ARG6        0.0489
      7  CD       167.7100  397.6800  107.8830 C.3     6  ARG6        0.2205
      8  NE       168.2530  396.4830  108.5330 N.pl3   6  ARG6       -0.0865
      9  CZ       169.1270  396.5160  109.5370 C.cat   6  ARG6        0.5346
     10  NH1      169.5300  397.6700  110.0060 N.pl3   6  ARG6        0.1354
     11  NH2      169.6300  395.3960  110.0470 N.pl3   6  ARG6        0.1354
     12  N        164.0130  396.2030  105.1060 N.am    7  LYS7       -0.1966
     13  CA       162.9500  395.4590  105.7550 C.3     7  LYS7        0.1728
     14  C        163.5210  394.7600  106.9930 C.2     7  LYS7        0.2616
     15  O        164.5650  394.1050  106.8990 O.2     7  LYS7       -0.2715
     16  CB       162.4060  394.3830  104.8240 C.3     7  LYS7        0.0311
     17  CG       161.5280  393.3610  105.5190 C.3     7  LYS7        0.0038
     18  CD       161.2890  392.1340  104.6510 C.3     7  LYS7        0.0206
     19  CE       160.4240  391.1330  105.3580 C.3     7  LYS7        0.1093
     20  NZ       160.2100  389.8880  104.5550 N.3     7  LYS7       -0.1314
     21  N        162.8430  394.8960  108.1380 N.am    8  ARG8       -0.1964
     22  CA       163.2690  394.2350  109.3600 C.3     8  ARG8        0.1714
     23  C        162.4310  392.9800  109.4500 C.2     8  ARG8        0.2458
     24  O        161.3460  392.9070  108.8810 O.2     8  ARG8       -0.2730
     25  CB       163.0380  395.1150  110.5980 C.3     8  ARG8        0.0347
     26  CG       161.5810  395.2620  111.0630 C.3     8  ARG8        0.0492
     27  CD       161.5360  395.7590  112.5110 C.3     8  ARG8        0.2205
     28  NE       160.1980  396.1550  112.9760 N.pl3   8  ARG8       -0.0865
     29  CZ       159.1450  395.3490  113.0910 C.cat   8  ARG8        0.5346
     30  NH1      159.2230  394.0730  112.7710 N.pl3   8  ARG8        0.1354
     31  NH2      158.0020  395.8350  113.5690 N.pl3   8  ARG8        0.1354
     32  N        162.9320  391.9450  110.1340 N.am    9  PRO9       -0.2727
     33  CA       162.1110  390.7370  110.2100 C.3     9  PRO9        0.1402
     34  C        160.9520  390.9130  111.1890 C.2     9  PRO9        0.2269
     35  O        160.9250  391.8560  111.9690 O.2     9  PRO9       -0.2865
     36  CB       163.1100  389.6810  110.6940 C.3     9  PRO9        0.0296
     37  CG       163.9890  390.4770  111.6070 C.3     9  PRO9        0.0237
     38  CD       164.2140  391.7630  110.8370 C.3     9  PRO9        0.0939
     39  N        159.0150  390.4500  114.4730 N.3    11  ASN11      -0.1240
     40  CA       159.5370  390.1870  115.8050 C.3    11  ASN11       0.1653
     41  C        158.7000  389.1450  116.5310 C.2    11  ASN11       0.2266
     42  O        157.7500  388.5990  115.9730 O.2    11  ASN11      -0.2867
     43  CB       159.6420  391.4730  116.6330 C.3    11  ASN11       0.1155
     44  CG       158.3300  392.2030  116.7580 C.2    11  ASN11       0.2627
     45  OD1      157.2960  391.5980  117.0230 O.2    11  ASN11      -0.2716
     46  ND2      158.3700  393.5180  116.5860 N.am   11  ASN11      -0.0877
     47  N        165.2430  390.9990  105.3810 N.3    59  GLU59      -0.1245
     48  CA       165.2970  390.7600  106.8220 C.3    59  GLU59       0.1567
     49  C        166.5560  390.0560  107.3250 C.2    59  GLU59       0.2260
     50  O        166.7880  389.9990  108.5370 O.2    59  GLU59      -0.2867
     51  CB       164.0650  389.9750  107.2860 C.3    59  GLU59       0.0388
     52  CG       164.0130  388.5400  106.8150 C.3    59  GLU59       0.1160
     53  CD       163.3910  388.3870  105.4490 C.2    59  GLU59       0.3649
     54  OE1      163.7170  389.1870  104.5460 O.co2  59  GLU59      -0.2457
     55  OE2      162.5820  387.4540  105.2750 O.co2  59  GLU59      -0.2457
     56  N        169.6300  390.9680  106.3500 N.3    61  ALA61      -0.1245
     57  CA       170.7410  391.9130  106.2820 C.3    61  ALA61       0.1562
     58  C        171.0920  392.4830  107.6410 C.2    61  ALA61       0.2260
     59  O        170.2200  393.0090  108.3470 O.2    61  ALA61      -0.2867
     60  CB       170.4060  393.0390  105.3200 C.3    61  ALA61       0.0290
     61  N        157.1100  404.1480  113.3410 N.3    92  THR92      -0.1203
     62  CA       157.4790  403.8260  114.7050 C.3    92  THR92       0.1994
     63  C        157.7240  402.3180  114.7780 C.2    92  THR92       0.2618
     64  O        156.9070  401.5160  114.3180 O.2    92  THR92      -0.2717
     65  CB       156.3420  404.2590  115.6840 C.3    92  THR92       0.1784
     66  OG1      156.3010  405.6920  115.7530 O.3    92  THR92      -0.2211
     67  CG2      156.5650  403.7060  117.0800 C.3    92  THR92       0.0376
     68  N        158.8680  401.9340  115.3390 N.am   93  GLY93      -0.1942
     69  CA       159.1890  400.5150  115.4520 C.3    93  GLY93       0.2014
     70  C        159.7140  399.8430  114.1870 C.2    93  GLY93       0.2640
     71  O        159.7980  398.6160  114.1270 O.2    93  GLY93      -0.2714
     72  N        160.0840  400.6280  113.1770 N.am   94  SER94      -0.1935
     73  CA       160.5590  400.0600  111.9040 C.3    94  SER94       0.2055
     74  C        162.0570  399.6690  111.8960 C.2    94  SER94       0.2644
     75  O        162.5060  398.9200  111.0280 O.2    94  SER94      -0.2714
     76  CB       160.2560  401.0300  110.7470 C.3    94  SER94       0.2130
     77  OG       160.9230  402.2710  110.9230 O.3    94  SER94      -0.2179
     78  N        162.8160  400.1890  112.8580 N.am   95  GLY95      -0.1939
     79  CA       164.2200  399.8630  112.9770 C.3    95  GLY95       0.2014
     80  C        165.1710  401.0250  112.8540 C.2    95  GLY95       0.2639
     81  O        166.3750  400.8320  112.6750 O.2    95  GLY95      -0.2714
     82  N        164.6540  402.2370  112.9660 N.am   96  LYS96      -0.1963
     83  CA       165.4940  403.4050  112.8240 C.3    96  LYS96       0.1728
     84  C        166.6140  403.5100  113.8510 C.2    96  LYS96       0.2617
     85  O        167.7860  403.6830  113.4880 O.2    96  LYS96      -0.2715
     86  CB       164.6390  404.6720  112.8530 C.3    96  LYS96       0.0311
     87  CG       163.6600  404.8000  111.6740 C.3    96  LYS96       0.0038
     88  CD       162.9020  406.1480  111.7060 C.3    96  LYS96       0.0206
     89  CE       161.9790  406.2680  112.9390 C.3    96  LYS96       0.1093
     90  NZ       161.0500  405.0890  113.0290 N.3    96  LYS96      -0.1314
     91  N        166.2510  403.4410  115.1280 N.am   97  THR97      -0.1937
     92  CA       167.2200  403.5500  116.2220 C.3    97  THR97       0.2028
     93  C        168.1700  402.3430  116.2530 C.2    97  THR97       0.2642
     94  O        169.3540  402.4800  116.5430 O.2    97  THR97      -0.2714
     95  CB       166.4910  403.6520  117.5670 C.3    97  THR97       0.1808
     96  OG1      165.7500  404.8670  117.5720 O.3    97  THR97      -0.2208
     97  CG2      167.4610  403.7170  118.7370 C.3    97  THR97       0.0379
     98  N        167.6280  401.1690  115.9700 N.am   98  HIS98      -0.1959
     99  CA       168.3980  399.9410  115.9450 C.3    98  HIS98       0.1787
    100  C        169.5360  400.0290  114.9270 C.2    98  HIS98       0.2620
    101  O        170.6510  399.5690  115.1830 O.2    98  HIS98      -0.2715
    102  CB       167.4710  398.7810  115.6060 C.3    98  HIS98       0.0785
    103  CG       168.1760  397.4980  115.2890 C.ar   98  HIS98       0.0821
    104  ND1      168.6520  397.2000  114.0260 N.ar   98  HIS98      -0.2267
    105  CD2      168.4400  396.4110  116.0540 C.ar   98  HIS98       0.1154
    106  CE1      169.1710  395.9870  114.0310 C.ar   98  HIS98       0.1986
    107  NE2      169.0560  395.4870  115.2470 N.ar   98  HIS98      -0.2212
    108  N        169.2460  400.6440  113.7840 N.am   99  THR99      -0.1951
    109  CA       170.2090  400.8000  112.7050 C.3    99  THR99       0.1897
    110  C        171.2730  401.8480  112.9750 C.2    99  THR99       0.2313
    111  O        172.4580  401.6130  112.7540 O.2    99  THR99      -0.2863
    112  CB       169.4880  401.1460  111.3840 C.3    99  THR99       0.1794
    113  OG1      168.7050  400.0270  110.9660 O.3    99  THR99      -0.2208
    114  CG2      170.4850  401.4920  110.2820 C.3    99  THR99       0.0378
    115  N        168.7900  397.4380  119.5880 N.3   104  LEU104     -0.1245
    116  CA       167.8060  397.6020  120.6490 C.3   104  LEU104      0.1561
    117  C        166.9240  398.7800  120.2570 C.2   104  LEU104      0.2260
    118  O        167.3560  399.6590  119.5080 O.2   104  LEU104     -0.2867
    119  CB       168.4930  397.8970  121.9740 C.3   104  LEU104      0.0270
    120  CG       167.7160  397.6710  123.2750 C.3   104  LEU104      0.0019
    121  CD1      166.9350  398.9130  123.6460 C.3   104  LEU104      0.0001
    122  CD2      166.8590  396.4330  123.1590 C.3   104  LEU104      0.0001
    123  N        162.6520  402.2940  124.1480 N.3   196  ASN196     -0.1225
    124  CA       162.8970  403.4460  123.2930 C.3   196  ASN196      0.1785
    125  C        161.6080  403.9440  122.6660 C.2   196  ASN196      0.2598
    126  O        160.5350  403.3610  122.8830 O.2   196  ASN196     -0.2718
    127  CB       163.9210  403.0860  122.2120 C.3   196  ASN196      0.1169
    128  CG       165.2160  403.8560  122.3660 C.2   196  ASN196      0.2627
    129  OD1      165.3000  405.0330  122.0050 O.2   196  ASN196     -0.2716
    130  ND2      166.2350  403.2020  122.9140 N.am  196  ASN196     -0.0877
    131  N        161.7410  405.0210  121.8950 N.am  197  SER197     -0.1938
    132  CA       160.6360  405.6410  121.1950 C.3   197  SER197      0.2055
    133  C        161.0240  406.9550  120.5410 C.2   197  SER197      0.2643
    134  O        161.9300  407.6320  121.0060 O.2   197  SER197     -0.2714
    135  CB       159.4720  405.8710  122.1160 C.3   197  SER197      0.2130
    136  OG       158.3450  405.3380  121.4970 O.3   197  SER197     -0.2179
    137  N        160.3440  407.3110  119.4560 N.am  198  SER198     -0.1949
    138  CA       160.6950  408.5210  118.7280 C.3   198  SER198      0.1924
    139  C        160.4570  409.7650  119.5820 C.2   198  SER198      0.2314
    140  O        161.1090  409.9900  120.5920 O.2   198  SER198     -0.2863
    141  CB       159.8380  408.5830  117.4630 C.3   198  SER198      0.2116
    142  OG       158.7060  409.4190  117.7030 O.3   198  SER198     -0.2180
    143  N        168.6100  410.1310  113.1890 N.3   222  ASP222     -0.1239
    144  CA       167.6350  409.1120  113.5850 C.3   222  ASP222      0.1674
    145  C        166.2970  409.8700  113.6790 C.2   222  ASP222      0.2266
    146  O        165.9920  410.4940  114.7040 O.2   222  ASP222     -0.2867
    147  CB       168.0210  408.5530  114.9590 C.3   222  ASP222      0.1410
    148  CG       167.0790  407.5040  115.4330 C.2   222  ASP222      0.3668
    149  OD1      166.1070  407.2280  114.7000 O.co2 222  ASP222     -0.2456
    150  OD2      167.3090  406.9440  116.5290 O.co2 222  ASP222     -0.2456
    151  N        159.2160  408.8030  114.2300 N.3   225  GLY225     -0.1225
    152  CA       158.2590  408.0480  113.4290 C.3   225  GLY225      0.1811
    153  C        157.5050  408.9480  112.4630 C.2   225  GLY225      0.2280
    154  O        157.0990  410.0630  112.8210 O.2   225  GLY225     -0.2866
@<TRIPOS>BOND
     1     1     2    1
     2    54    53   ar
     3    20    19    1
     4    18    19    1
     5    18    17    1
     6     2     3    1
     7     2     5    1
     8    16    17    1
     9    16    13    1
    10    12     3   am
    11    12    13    1
    12    55    53   ar
    13    60    57    1
    14    47    48    1
    15     3     4    2
    16    53    52    1
    17    13    14    1
    18     5     6    1
    19    57    56    1
    20    57    58    1
    21     6     7    1
    22    52    51    1
    23    48    51    1
    24    48    49    1
    25    15    14    2
    26    14    21   am
    27    49    50    2
    28    58    59    2
    29     7     8    1
    30    21    22    1
    31     8     9    2
    32    24    23    2
    33    22    23    1
    34    22    25    1
    35    23    32   am
    36     9    10    1
    37     9    11    1
    38    32    33    1
    39    32    38    1
    40    33    36    1
    41    33    34    1
    42   114   112    1
    43    25    26    1
    44    36    37    1
    45    76    77    1
    46    76    73    1
    47    38    37    1
    48   113   112    1
    49    75    74    2
    50    26    27    1
    51    34    35    2
    52   112   109    1
    53    87    88    1
    54    87    86    1
    55    88    89    1
    56    74    73    1
    57    74    78   am
    58    73    72    1
    59   153   154    2
    60   153   152    1
    61    27    28    1
    62    81    80    2
    63   109   110    1
    64   109   108    1
    65   111   110    2
    66    30    29    1
    67    83    86    1
    68    83    82    1
    69    83    84    1
    70    80    82   am
    71    80    79    1
    72    78    79    1
    73    89    90    1
    74    28    29    2
    75    29    31    1
    76    72    70   am
    77   143   144    1
    78    61    62    1
    79   152   151    1
    80    85    84    2
    81   144   145    1
    82   144   147    1
    83   145   146    2
    84   108   100   am
    85    84    91   am
    86   104   106   ar
    87   104   103   ar
    88   106   107   ar
    89    71    70    2
    90    70    69    1
    91    64    63    2
    92    39    40    1
    93   149   148   ar
    94    62    63    1
    95    62    65    1
    96    63    68   am
    97   100   101    2
    98   100    99    1
    99   147   148    1
   100    91    92    1
   101   107   105   ar
   102   103   102    1
   103   103   105   ar
   104    68    69    1
   105   148   150   ar
   106   102    99    1
   107    65    66    1
   108    65    67    1
   109    40    41    1
   110    40    43    1
   111    99    98    1
   112    98    93   am
   113    42    41    2
   114    92    93    1
   115    92    95    1
   116    93    94    2
   117    46    44   am
   118    43    44    1
   119    44    45    2
   120   141   142    1
   121   141   138    1
   122    95    96    1
   123    95    97    1
   124   138   137    1
   125   138   139    1
   126   137   133   am
   127   118   117    2
   128   139   140    2
   129   115   116    1
   130   117   116    1
   131   133   134    2
   132   133   132    1
   133   116   119    1
   134   132   131    1
   135   132   135    1
   136   136   135    1
   137   131   125   am
   138   119   120    1
   139   129   128    2
   140   127   128    1
   141   127   124    1
   142   128   130   am
   143   125   126    2
   144   125   124    1
   145   122   120    1
   146   120   121    1
   147   124   123    1
