@<TRIPOS>MOLECULE
tmp/3edoA00.pdb
 147 146 0 0 0
SMALL
GASTEIGER

@<TRIPOS>ATOM
      1  N         31.7140   53.3900    6.8130 N.3    11  SER11      -0.1202
      2  CA        30.7180   53.4670    5.7480 C.3    11  SER11       0.2020
      3  C         31.1260   54.5720    4.7770 C.2    11  SER11       0.2619
      4  O         31.2930   55.7100    5.1970 O.2    11  SER11      -0.2717
      5  CB        29.3470   53.7560    6.3700 C.3    11  SER11       0.2103
      6  OG        28.3300   53.7730    5.3980 O.3    11  SER11      -0.2182
      7  N         31.3010   54.2270    3.5030 N.am   12  TRP12      -0.1961
      8  CA        31.6900   55.2010    2.4940 C.3    12  TRP12       0.1771
      9  C         30.4640   55.9120    1.9230 C.2    12  TRP12       0.2620
     10  O         30.4920   57.1320    1.7620 O.2    12  TRP12      -0.2715
     11  CB        32.5050   54.4970    1.4030 C.3    12  TRP12       0.0590
     12  CG        32.9100   55.3910    0.2700 C.ar   12  TRP12       0.0006
     13  CD1       33.9530   56.2550    0.2390 C.ar   12  TRP12       0.0946
     14  CD2       32.2990   55.4660   -1.0280 C.ar   12  TRP12       0.0152
     15  NE1       34.0210   56.8870   -0.9780 N.ar   12  TRP12      -0.2442
     16  CE2       33.0280   56.4110   -1.7790 C.ar   12  TRP12       0.0810
     17  CE3       31.2190   54.8260   -1.6230 C.ar   12  TRP12       0.0012
     18  CZ2       32.6760   56.7730   -3.0890 C.ar   12  TRP12       0.0191
     19  CZ3       30.8780   55.1680   -2.9410 C.ar   12  TRP12       0.0001
     20  CH2       31.6000   56.1460   -3.6470 C.ar   12  TRP12       0.0015
     21  N         29.4000   55.1580    1.6220 N.am   13  SER13      -0.1950
     22  CA        28.1640   55.7110    1.0580 C.3    13  SER13       0.1924
     23  C         26.9260   55.5710    1.9450 C.2    13  SER13       0.2314
     24  O         25.7870   55.7430    1.4720 O.2    13  SER13      -0.2863
     25  CB        27.8790   55.1740   -0.3680 C.3    13  SER13       0.2116
     26  OG        27.8170   53.7490   -0.4360 O.3    13  SER13      -0.2180
     27  N         25.4140   53.0070    3.6090 N.3    15  GLU15      -0.1231
     28  CA        24.6170   51.7920    3.7590 C.3    15  GLU15       0.1699
     29  C         25.0020   50.9990    5.0210 C.2    15  GLU15       0.2592
     30  O         24.1340   50.5140    5.7500 O.2    15  GLU15      -0.2718
     31  CB        24.7370   50.9030    2.5250 C.3    15  GLU15       0.0402
     32  CG        24.1790   51.5590    1.2530 C.3    15  GLU15       0.1161
     33  CD        22.6870   51.8330    1.4200 C.2    15  GLU15       0.3649
     34  OE1       21.9300   50.8790    1.6820 O.co2  15  GLU15      -0.2457
     35  OE2       22.2820   53.0040    1.3690 O.co2  15  GLU15      -0.2457
     36  N         26.3000   50.8320    5.2520 N.am   16  THR16      -0.1953
     37  CA        26.7690   50.1180    6.4200 C.3    16  THR16       0.1897
     38  C         26.4020   50.8890    7.6880 C.2    16  THR16       0.2313
     39  O         26.1290   50.2760    8.7150 O.2    16  THR16      -0.2863
     40  CB        28.2700   49.8400    6.3160 C.3    16  THR16       0.1794
     41  OG1       28.5480   49.1890    5.0610 O.3    16  THR16      -0.2208
     42  CG2       28.7400   48.9220    7.4530 C.3    16  THR16       0.0378
     43  N         35.0760   54.9420   -8.5840 N.3    45  TYR45      -0.1241
     44  CA        36.1620   54.3170   -9.3360 C.3    45  TYR45       0.1605
     45  C         37.4950   54.8380   -8.8440 C.2    45  TYR45       0.2264
     46  O         38.4420   54.0760   -8.6970 O.2    45  TYR45      -0.2867
     47  CB        35.9690   54.5140  -10.8680 C.3    45  TYR45       0.0534
     48  CG        34.6030   54.0480  -11.2660 C.ar   45  TYR45      -0.0201
     49  CD1       34.3200   52.7060  -11.4190 C.ar   45  TYR45      -0.0009
     50  CD2       33.5550   54.9460  -11.4260 C.ar   45  TYR45      -0.0009
     51  CE1       33.0100   52.2840  -11.7070 C.ar   45  TYR45       0.0417
     52  CE2       32.2810   54.5370  -11.7050 C.ar   45  TYR45       0.0417
     53  CZ        32.0070   53.2130  -11.8270 C.ar   45  TYR45       0.1957
     54  OH        30.7250   52.7890  -12.0640 O.3    45  TYR45      -0.2866
     55  N         37.9080   55.9290   -5.7820 N.3    47  THR47      -0.1203
     56  CA        37.9960   55.2850   -4.4660 C.3    47  THR47       0.1994
     57  C         38.5170   53.8500   -4.5860 C.2    47  THR47       0.2618
     58  O         39.4170   53.4350   -3.8550 O.2    47  THR47      -0.2717
     59  CB        36.6610   55.3670   -3.7400 C.3    47  THR47       0.1784
     60  OG1       36.4680   56.7340   -3.3660 O.3    47  THR47      -0.2211
     61  CG2       36.6270   54.4930   -2.4610 C.3    47  THR47       0.0376
     62  N         37.9520   53.0750   -5.4970 N.am   48  SER48      -0.1951
     63  CA        38.4380   51.7390   -5.7530 C.3    48  SER48       0.1924
     64  C         39.9250   51.7220   -6.0420 C.2    48  SER48       0.2314
     65  O         40.6750   50.9130   -5.4820 O.2    48  SER48      -0.2863
     66  CB        37.6820   51.1320   -6.9430 C.3    48  SER48       0.2116
     67  OG        38.2040   49.8660   -7.2830 O.3    48  SER48      -0.2180
     68  N         41.9740   52.3450   -2.8730 N.3    51  ALA51      -0.1245
     69  CA        41.9940   51.1280   -2.0590 C.3    51  ALA51       0.1562
     70  C         42.9200   50.0760   -2.6620 C.2    51  ALA51       0.2260
     71  O         43.6740   49.4190   -1.9420 O.2    51  ALA51      -0.2867
     72  CB        40.5720   50.5690   -1.9020 C.3    51  ALA51       0.0290
     73  N         31.5060   47.9190    4.0980 N.3    82  PRO82      -0.2102
     74  CA        31.1310   47.4620    2.7530 C.3    82  PRO82       0.1504
     75  C         32.0830   46.3800    2.2590 C.2    82  PRO82       0.2576
     76  O         33.2270   46.2550    2.7440 O.2    82  PRO82      -0.2718
     77  CB        31.2990   48.7360    1.9020 C.3    82  PRO82       0.0282
     78  CG        32.4060   49.4960    2.5960 C.3    82  PRO82       0.0208
     79  CD        32.1110   49.2650    4.0710 C.3    82  PRO82       0.0893
     80  N         31.6410   45.6270    1.2580 N.am   83  VAL83      -0.1966
     81  CA        32.5440   44.8180    0.4720 C.3    83  VAL83       0.1727
     82  C         33.1390   45.6890   -0.6190 C.2    83  VAL83       0.2616
     83  O         32.4290   46.2790   -1.4140 O.2    83  VAL83      -0.2715
     84  CB        31.7940   43.6090   -0.1470 C.3    83  VAL83       0.0290
     85  CG1       32.7070   42.8150   -1.0860 C.3    83  VAL83       0.0023
     86  CG2       31.2170   42.7170    0.9360 C.3    83  VAL83       0.0023
     87  N         34.4640   45.7390   -0.6600 N.am   84  TRP84      -0.1960
     88  CA        35.2320   46.4370   -1.7180 C.3    84  TRP84       0.1771
     89  C         36.0560   45.3950   -2.4710 C.2    84  TRP84       0.2620
     90  O         37.1530   44.9870   -2.0500 O.2    84  TRP84      -0.2715
     91  CB        36.1520   47.4990   -1.1130 C.3    84  TRP84       0.0590
     92  CG        35.4850   48.7810   -0.7440 C.ar   84  TRP84       0.0006
     93  CD1       34.1690   49.0860   -0.8480 C.ar   84  TRP84       0.0946
     94  CD2       36.1330   49.9600   -0.2280 C.ar   84  TRP84       0.0152
     95  NE1       33.9400   50.3800   -0.4320 N.ar   84  TRP84      -0.2442
     96  CE2       35.1410   50.9480   -0.0750 C.ar   84  TRP84       0.0810
     97  CE3       37.4630   50.2910    0.0490 C.ar   84  TRP84       0.0012
     98  CZ2       35.4350   52.2430    0.3830 C.ar   84  TRP84       0.0191
     99  CZ3       37.7570   51.5620    0.4990 C.ar   84  TRP84       0.0001
    100  CH2       36.7430   52.5130    0.6780 C.ar   84  TRP84       0.0015
    101  N         35.5110   44.9100   -3.5790 N.am   85  SER85      -0.1936
    102  CA        36.1720   43.9360   -4.4330 C.3    85  SER85       0.2055
    103  C         36.6930   42.7570   -3.6450 C.2    85  SER85       0.2643
    104  O         37.8120   42.2920   -3.8390 O.2    85  SER85      -0.2714
    105  CB        37.2460   44.5860   -5.2790 C.3    85  SER85       0.2130
    106  OG        36.6840   45.5870   -6.1370 O.3    85  SER85      -0.2179
    107  N         35.8880   42.2020   -2.7560 N.am   86  GLY86      -0.1954
    108  CA        36.2840   41.0300   -2.0080 C.3    86  GLY86       0.1869
    109  C         37.1690   41.2670   -0.8150 C.2    86  GLY86       0.2309
    110  O         37.6470   40.3080   -0.2340 O.2    86  GLY86      -0.2863
    111  N         27.9430   44.8750    4.2720 N.3   110  THR110     -0.1203
    112  CA        26.9230   45.1530    3.2860 C.3   110  THR110      0.1994
    113  C         27.5640   45.1280    1.9100 C.2   110  THR110      0.2619
    114  O         28.7660   45.3350    1.7500 O.2   110  THR110     -0.2717
    115  CB        26.1680   46.4750    3.5570 C.3   110  THR110      0.1784
    116  OG1       26.9960   47.6110    3.2670 O.3   110  THR110     -0.2211
    117  CG2       25.6070   46.5400    4.9830 C.3   110  THR110      0.0376
    118  N         26.7480   44.8110    0.9140 N.am  111  SER111     -0.1937
    119  CA        27.2480   44.5640   -0.4410 C.3   111  SER111      0.2055
    120  C         26.1140   44.6440   -1.4410 C.2   111  SER111      0.2643
    121  O         24.9500   44.7760   -1.0890 O.2   111  SER111     -0.2714
    122  CB        27.8650   43.1720   -0.5400 C.3   111  SER111      0.2130
    123  OG        26.8040   42.2070   -0.5870 O.3   111  SER111     -0.2179
    124  N         26.4930   44.5300   -2.6980 N.am  112  ALA112     -0.1963
    125  CA        25.5480   44.3230   -3.8020 C.3   112  ALA112      0.1728
    126  C         25.4930   42.8410   -4.1980 C.2   112  ALA112      0.2617
    127  O         25.0290   42.4820   -5.2770 O.2   112  ALA112     -0.2715
    128  CB        25.9710   45.1900   -4.9810 C.3   112  ALA112      0.0334
    129  N         25.9000   41.9630   -3.3130 N.am  113  GLY113     -0.1940
    130  CA        25.6910   40.5620   -3.4670 C.3   113  GLY113      0.2014
    131  C         26.8520   39.7130   -3.9520 C.2   113  GLY113      0.2640
    132  O         26.6590   38.5120   -4.1090 O.2   113  GLY113     -0.2714
    133  N         28.0370   40.2770   -4.1900 N.am  114  THR114     -0.1936
    134  CA        29.0910   39.5000   -4.7990 C.3   114  THR114      0.2028
    135  C         30.4100   39.5860   -3.9970 C.2   114  THR114      0.2642
    136  O         30.6430   40.5220   -3.2060 O.2   114  THR114     -0.2714
    137  CB        29.3600   39.9260   -6.2480 C.3   114  THR114      0.1808
    138  OG1       29.9340   41.2290   -6.2530 O.3   114  THR114     -0.2208
    139  CG2       28.0930   39.8900   -7.0980 C.3   114  THR114      0.0379
    140  N         31.2630   38.5950   -4.2200 N.am  115  ASN115     -0.1971
    141  CA        32.6100   38.5490   -3.6390 C.3   115  ASN115      0.1688
    142  C         32.5980   38.3650   -2.1220 C.2   115  ASN115      0.2292
    143  O         33.5360   38.7630   -1.4290 O.2   115  ASN115     -0.2864
    144  CB        33.4650   39.7380   -4.0690 C.3   115  ASN115      0.1181
    145  CG        33.5940   39.8100   -5.5810 C.2   115  ASN115      0.2629
    146  OD1       33.8330   38.7770   -6.2450 O.2   115  ASN115     -0.2716
    147  ND2       33.4300   40.9880   -6.1380 N.am  115  ASN115     -0.0877
@<TRIPOS>BOND
     1    54    53    1
     2    53    51   ar
     3    53    52   ar
     4    51    49   ar
     5    52    50   ar
     6    50    48   ar
     7    49    48   ar
     8    48    47    1
     9    47    44    1
    10    44    45    1
    11    44    43    1
    12    45    46    2
    13    67    66    1
    14   139   137    1
    15    66    63    1
    16   138   137    1
    17   137   134    1
    18   146   145    2
    19   147   145   am
    20   106   105    1
    21    64    63    1
    22    64    65    2
    23    55    56    1
    24    63    62    1
    25   145   144    1
    26    62    57   am
    27   105   102    1
    28   127   126    2
    29   128   125    1
    30   134   133    1
    31   134   135    1
    32    57    56    1
    33    57    58    2
    34    56    59    1
    35   102   103    1
    36   102   101    1
    37   140   135   am
    38   140   141    1
    39   126   125    1
    40   126   129   am
    41   133   131   am
    42   132   131    2
    43   144   141    1
    44   135   136    2
    45   131   130    1
    46   104   103    2
    47   125   124    1
    48    59    60    1
    49    59    61    1
    50    20    18   ar
    51    20    19   ar
    52   103   107   am
    53   141   142    1
    54   101    89   am
    55   130   129    1
    56    18    16   ar
    57    19    17   ar
    58    68    69    1
    59   107   108    1
    60   124   120   am
    61    70    69    1
    62    70    71    2
    63    89    90    2
    64    89    88    1
    65   142   143    2
    66    69    72    1
    67   108   109    1
    68    16    14   ar
    69    16    15   ar
    70    88    91    1
    71    88    87    1
    72    17    14   ar
    73   120   121    2
    74   120   119    1
    75    83    82    2
    76    91    92    1
    77    85    84    1
    78    14    12   ar
    79    15    13   ar
    80    93    92   ar
    81    93    95   ar
    82   109   110    2
    83    92    94   ar
    84    87    82   am
    85    82    81    1
    86   123   122    1
    87   122   119    1
    88   119   118    1
    89    26    25    1
    90    95    96   ar
    91    25    22    1
    92    94    96   ar
    93    94    97   ar
    94    84    81    1
    95    84    86    1
    96    96    98   ar
    97    97    99   ar
    98    13    12   ar
    99    12    11    1
   100    98   100   ar
   101    81    80    1
   102    99   100   ar
   103   118   113   am
   104    22    21    1
   105    22    23    1
   106    32    33    1
   107    32    31    1
   108    80    75   am
   109    35    33   ar
   110    11     8    1
   111    33    34   ar
   112    24    23    2
   113    21     9   am
   114   114   113    2
   115    10     9    2
   116    77    78    1
   117    77    74    1
   118   113   112    1
   119     9     8    1
   120    75    76    2
   121    75    74    1
   122     8     7    1
   123    31    28    1
   124    78    79    1
   125    74    73    1
   126   116   115    1
   127   112   115    1
   128   112   111    1
   129     7     3   am
   130   115   117    1
   131    27    28    1
   132    28    29    1
   133    79    73    1
   134     3     4    2
   135     3     2    1
   136    29    36   am
   137    29    30    2
   138    41    40    1
   139    36    37    1
   140     6     5    1
   141     2     5    1
   142     2     1    1
   143    40    37    1
   144    40    42    1
   145    37    38    1
   146    38    39    2
