@<TRIPOS>MOLECULE
tmp/3edqD00.pdb
 140 144 0 0 0
SMALL
GASTEIGER

@<TRIPOS>ATOM
      1  N          7.2990  -12.3080   43.8230 N.3    19  TYR19      -0.1227
      2  CA         6.6940  -12.0620   45.1300 C.3    19  TYR19       0.1736
      3  C          6.2880  -10.6050   45.3310 C.2    19  TYR19       0.2596
      4  O          6.8590   -9.7540   44.6470 O.2    19  TYR19      -0.2718
      5  CB         7.7030  -12.3070   46.2290 C.3    19  TYR19       0.0548
      6  CG         7.9790  -13.7350   46.5770 C.ar   19  TYR19      -0.0200
      7  CD1        7.0970  -14.5480   47.2670 C.ar   19  TYR19      -0.0009
      8  CD2        9.1930  -14.2890   46.1790 C.ar   19  TYR19      -0.0009
      9  CE1        7.4430  -15.8740   47.5420 C.ar   19  TYR19       0.0417
     10  CE2        9.5520  -15.5980   46.4590 C.ar   19  TYR19       0.0417
     11  CZ         8.6590  -16.3900   47.1500 C.ar   19  TYR19       0.1957
     12  OH         9.0190  -17.7010   47.4290 O.3    19  TYR19      -0.2866
     13  N          5.3790  -10.3450   46.2540 N.am   20  SER20      -0.1938
     14  CA         5.0580   -8.9870   46.6690 C.3    20  SER20       0.2055
     15  C          5.3360   -8.8380   48.1620 C.2    20  SER20       0.2643
     16  O          5.1220   -9.8290   48.8600 O.2    20  SER20      -0.2714
     17  CB         3.5930   -8.6600   46.3800 C.3    20  SER20       0.2130
     18  OG         3.3080   -7.3150   46.7400 O.3    20  SER20      -0.2179
     19  N          5.8000   -7.6980   48.6430 N.am   21  TRP21      -0.1959
     20  CA         6.3470   -7.5930   49.9960 C.3    21  TRP21       0.1771
     21  C          5.4590   -6.7890   50.9140 C.2    21  TRP21       0.2620
     22  O          4.8630   -5.7870   50.5330 O.2    21  TRP21      -0.2715
     23  CB         7.7140   -6.8880   49.9450 C.3    21  TRP21       0.0590
     24  CG         8.6820   -7.8650   49.3310 C.ar   21  TRP21       0.0006
     25  CD1        9.1460   -7.9110   48.0560 C.ar   21  TRP21       0.0946
     26  CD2        9.2720   -8.9560   50.0300 C.ar   21  TRP21       0.0152
     27  NE1       10.0110   -8.9630   47.8820 N.ar   21  TRP21      -0.2442
     28  CE2       10.1020   -9.6230   49.0970 C.ar   21  TRP21       0.0810
     29  CE3        9.1750   -9.4260   51.3460 C.ar   21  TRP21       0.0012
     30  CZ2       10.8340  -10.7550   49.4900 C.ar   21  TRP21       0.0191
     31  CZ3        9.9080  -10.5450   51.7110 C.ar   21  TRP21       0.0001
     32  CH2       10.7300  -11.2030   50.7880 C.ar   21  TRP21       0.0015
     33  N          5.4030   -7.2080   52.1670 N.am   22  ARG22      -0.1963
     34  CA         4.5170   -6.6270   53.1580 C.3    22  ARG22       0.1729
     35  C          5.3140   -6.4540   54.4350 C.2    22  ARG22       0.2616
     36  O          5.9450   -7.4030   54.9200 O.2    22  ARG22      -0.2715
     37  CB         3.3100   -7.5490   53.3530 C.3    22  ARG22       0.0348
     38  CG         2.4080   -7.2800   54.5380 C.3    22  ARG22       0.0492
     39  CD         1.1080   -8.1190   54.5330 C.3    22  ARG22       0.2205
     40  NE         1.4210   -9.4790   54.1040 N.pl3  22  ARG22      -0.0865
     41  CZ         2.0140  -10.4100   54.8210 C.cat  22  ARG22       0.5346
     42  NH1        2.2300  -11.5960   54.2620 N.pl3  22  ARG22       0.1354
     43  NH2        2.3820  -10.1830   56.0810 N.pl3  22  ARG22       0.1354
     44  N          5.3090   -5.2410   54.9780 N.am   23  ASN23      -0.1958
     45  CA         5.9270   -5.0900   56.2910 C.3    23  ASN23       0.1819
     46  C          4.9110   -5.4460   57.3730 C.2    23  ASN23       0.2622
     47  O          3.7630   -5.0170   57.4260 O.2    23  ASN23      -0.2715
     48  CB         6.4680   -3.6720   56.4610 C.3    23  ASN23       0.1195
     49  CG         7.2360   -3.6210   57.7840 C.2    23  ASN23       0.2630
     50  OD1        6.6490   -3.3380   58.8310 O.2    23  ASN23      -0.2716
     51  ND2        8.5320   -3.9000   57.6940 N.am   23  ASN23      -0.0877
     52  N          5.3970   -6.3090   58.2670 N.am   24  SER24      -0.1936
     53  CA         4.4840   -6.8470   59.2690 C.3    24  SER24       0.2055
     54  C          3.9630   -5.7740   60.2090 C.2    24  SER24       0.2642
     55  O          2.9130   -5.9770   60.8290 O.2    24  SER24      -0.2714
     56  CB         5.2100   -7.9820   59.9930 C.3    24  SER24       0.2130
     57  OG         6.3940   -7.5090   60.6520 O.3    24  SER24      -0.2179
     58  N          4.5970   -4.6210   60.3720 N.am   25  LYS25      -0.1977
     59  CA         4.0390   -3.5340   61.1800 C.3    25  LYS25       0.1596
     60  C          3.3890   -2.4210   60.3710 C.2    25  LYS25       0.2287
     61  O          2.3570   -1.8470   60.7340 O.2    25  LYS25      -0.2864
     62  CB         5.1620   -2.9340   62.0180 C.3    25  LYS25       0.0298
     63  CG         4.9860   -1.6500   62.7960 C.3    25  LYS25       0.0038
     64  CD         6.3290   -0.9670   63.0880 C.3    25  LYS25       0.0206
     65  CE         6.2140    0.5200   63.3930 C.3    25  LYS25       0.1093
     66  NZ         5.7150    0.7650   64.7770 N.3    25  LYS25      -0.1314
     67  N          1.7240   -3.2990   53.4960 N.3    28  SER28      -0.1202
     68  CA         2.4070   -3.5970   52.2510 C.3    28  SER28       0.2020
     69  C          3.0600   -2.3380   51.6780 C.2    28  SER28       0.2618
     70  O          2.5680   -1.2110   51.8090 O.2    28  SER28      -0.2717
     71  CB         1.4660   -4.2150   51.2270 C.3    28  SER28       0.2103
     72  OG         0.6710   -3.1900   50.6450 O.3    28  SER28      -0.2182
     73  N          4.2020   -2.6270   51.0520 N.am   29  TRP29      -0.1975
     74  CA         4.9910   -1.5190   50.4920 C.3    29  TRP29       0.1640
     75  C          4.1560   -0.7310   49.4900 C.2    29  TRP29       0.2290
     76  O          4.1650    0.5100   49.4450 O.2    29  TRP29      -0.2864
     77  CB         6.2610   -2.0400   49.8250 C.3    29  TRP29       0.0576
     78  CG         7.1920   -2.8010   50.6990 C.ar   29  TRP29       0.0006
     79  CD1        7.1710   -3.0590   52.0530 C.ar   29  TRP29       0.0946
     80  CD2        8.3780   -3.4370   50.1800 C.ar   29  TRP29       0.0152
     81  NE1        8.2620   -3.8100   52.3840 N.ar   29  TRP29      -0.2442
     82  CE2        9.0160   -4.0550   51.2690 C.ar   29  TRP29       0.0810
     83  CE3        8.9320   -3.5320   48.9000 C.ar   29  TRP29       0.0012
     84  CZ2       10.2220   -4.7740   51.1140 C.ar   29  TRP29       0.0191
     85  CZ3       10.1200   -4.2410   48.7510 C.ar   29  TRP29       0.0001
     86  CH2       10.7470   -4.8530   49.8570 C.ar   29  TRP29       0.0015
     87  N         13.4320   -1.9440   50.6420 N.3    63  GLU63      -0.1231
     88  CA        14.2580   -3.1230   50.4490 C.3    63  GLU63       0.1699
     89  C         13.9890   -4.0520   51.6270 C.2    63  GLU63       0.2593
     90  O         13.9200   -3.6150   52.7710 O.2    63  GLU63      -0.2718
     91  CB        15.7080   -2.7020   50.3020 C.3    63  GLU63       0.0402
     92  CG        16.6830   -3.8240   50.0370 C.3    63  GLU63       0.1161
     93  CD        18.1170   -3.3420   50.2320 C.2    63  GLU63       0.3649
     94  OE1       18.7630   -3.6810   51.2510 O.co2  63  GLU63      -0.2457
     95  OE2       18.6130   -2.6020   49.3570 O.co2  63  GLU63      -0.2457
     96  N         13.8220   -5.3420   51.3210 N.am   64  SER64      -0.1938
     97  CA        13.3940   -6.2270   52.4110 C.3    64  SER64       0.2055
     98  C         14.4940   -6.4270   53.4440 C.2    64  SER64       0.2643
     99  O         15.6970   -6.4370   53.2240 O.2    64  SER64      -0.2714
    100  CB        12.9270   -7.5750   51.8600 C.3    64  SER64       0.2130
    101  OG        13.9900   -8.3420   51.3380 O.3    64  SER64      -0.2179
    102  N         13.9670   -6.5930   54.6540 N.am   65  PHE65      -0.1959
    103  CA        14.7900   -6.9630   55.8000 C.3    65  PHE65       0.1771
    104  C         14.2490   -8.3000   56.3290 C.2    65  PHE65       0.2620
    105  O         13.0790   -8.3250   56.7350 O.2    65  PHE65      -0.2715
    106  CB        14.7910   -5.8970   56.8900 C.3    65  PHE65       0.0574
    107  CG        15.6710   -6.2840   58.0750 C.ar   65  PHE65      -0.0200
    108  CD1       15.2050   -6.9910   59.1660 C.ar   65  PHE65      -0.0042
    109  CD2       17.0070   -5.9070   58.0610 C.ar   65  PHE65      -0.0042
    110  CE1       16.0400   -7.3250   60.2130 C.ar   65  PHE65      -0.0003
    111  CE2       17.8590   -6.2190   59.1060 C.ar   65  PHE65      -0.0003
    112  CZ        17.3720   -6.9220   60.1820 C.ar   65  PHE65      -0.0000
    113  N         15.0880   -9.3250   56.3540 N.am   66  SER66      -0.1936
    114  CA        14.6040  -10.6250   56.8040 C.3    66  SER66       0.2055
    115  C         15.7000  -11.3800   57.5330 C.2    66  SER66       0.2643
    116  O         16.8630  -11.2690   57.1300 O.2    66  SER66      -0.2714
    117  CB        14.1420  -11.4250   55.5860 C.3    66  SER66       0.2130
    118  OG        13.7900  -12.7610   55.8910 O.3    66  SER66      -0.2179
    119  N         15.2760  -12.1270   58.5560 N.am   67  PHE67      -0.1973
    120  CA        16.2740  -12.9610   59.2360 C.3    67  PHE67       0.1639
    121  C         16.6950  -14.1370   58.3520 C.2    67  PHE67       0.2290
    122  O         17.7210  -14.7580   58.6450 O.2    67  PHE67      -0.2864
    123  CB        15.7640  -13.5460   60.5480 C.3    67  PHE67       0.0560
    124  CG        15.5430  -12.4580   61.5820 C.ar   67  PHE67      -0.0200
    125  CD1       16.2990  -11.3040   61.5150 C.ar   67  PHE67      -0.0042
    126  CD2       14.6000  -12.5960   62.5760 C.ar   67  PHE67      -0.0042
    127  CE1       16.1490  -10.3060   62.4570 C.ar   67  PHE67      -0.0003
    128  CE2       14.4600  -11.5940   63.5240 C.ar   67  PHE67      -0.0003
    129  CZ        15.2020  -10.4440   63.4530 C.ar   67  PHE67      -0.0000
    130  N         15.3940  -14.2640   51.6410 N.3    71  PHE71      -0.1241
    131  CA        14.4000  -13.2330   51.4020 C.3    71  PHE71       0.1605
    132  C         14.8930  -11.8440   51.7890 C.2    71  PHE71       0.2264
    133  O         14.0880  -10.9030   51.8260 O.2    71  PHE71      -0.2867
    134  CB        13.1320  -13.5870   52.1950 C.3    71  PHE71       0.0534
    135  CG        12.4090  -14.8200   51.6650 C.ar   71  PHE71      -0.0203
    136  CD1       12.3550  -15.9660   52.4520 C.ar   71  PHE71      -0.0042
    137  CD2       11.8070  -14.8200   50.4090 C.ar   71  PHE71      -0.0042
    138  CE1       11.6970  -17.1030   51.9720 C.ar   71  PHE71      -0.0003
    139  CE2       11.1720  -15.9530   49.9550 C.ar   71  PHE71      -0.0003
    140  CZ        11.1060  -17.1090   50.7210 C.ar   71  PHE71      -0.0000
@<TRIPOS>BOND
     1     1     2    1
     2     4     3    2
     3     2     3    1
     4     2     5    1
     5     3    13   am
     6     8    10   ar
     7     8     6   ar
     8     5     6    1
     9    13    14    1
    10    17    14    1
    11    17    18    1
    12    10    11   ar
    13     6     7   ar
    14    14    15    1
    15    11    12    1
    16    11     9   ar
    17     7     9   ar
    18    27    25   ar
    19    27    28   ar
    20    25    24   ar
    21    15    19   am
    22    15    16    2
    23    19    20    1
    24    85    83   ar
    25    85    86   ar
    26    83    80   ar
    27    28    30   ar
    28    28    26   ar
    29    24    23    1
    30    24    26   ar
    31    95    93   ar
    32    76    75    2
    33    75    74    1
    34    30    32   ar
    35    77    74    1
    36    77    78    1
    37    86    84   ar
    38    23    20    1
    39   139   137   ar
    40   139   140   ar
    41    20    21    1
    42    26    29   ar
    43    92    93    1
    44    92    91    1
    45    80    78   ar
    46    80    82   ar
    47    93    94   ar
    48    91    88    1
    49   137   135   ar
    50    88    87    1
    51    88    89    1
    52    74    73    1
    53    22    21    2
    54    72    71    1
    55    78    79   ar
    56   140   138   ar
    57    32    31   ar
    58    21    33   am
    59    73    69   am
    60    84    82   ar
    61    71    68    1
    62    82    81   ar
    63    96    89   am
    64    96    97    1
    65   101   100    1
    66    29    31   ar
    67   131   130    1
    68   131   132    1
    69   131   134    1
    70    89    90    2
    71   135   134    1
    72   135   136   ar
    73    69    70    2
    74    69    68    1
    75   132   133    2
    76   100    97    1
    77   138   136   ar
    78    79    81   ar
    79    33    34    1
    80    68    67    1
    81    97    98    1
    82    34    37    1
    83    34    35    1
    84    99    98    2
    85    37    38    1
    86    98   102   am
    87    40    39    1
    88    40    41    2
    89    42    41    1
    90    35    36    2
    91    35    44   am
    92    39    38    1
    93   102   103    1
    94    41    43    1
    95    44    45    1
    96   117   118    1
    97   117   114    1
    98   103   104    1
    99   103   106    1
   100    45    48    1
   101    45    46    1
   102   104   113   am
   103   104   105    2
   104   113   114    1
   105    48    49    1
   106   114   115    1
   107   106   107    1
   108   116   115    2
   109    46    47    2
   110    46    52   am
   111   115   119   am
   112    51    49   am
   113    49    50    2
   114   109   107   ar
   115   109   111   ar
   116   107   108   ar
   117    52    53    1
   118   121   122    2
   119   121   120    1
   120   119   120    1
   121   111   112   ar
   122   108   110   ar
   123   120   123    1
   124    53    56    1
   125    53    54    1
   126    56    57    1
   127   112   110   ar
   128    54    58   am
   129    54    55    2
   130    60    61    2
   131    60    59    1
   132    58    59    1
   133   123   124    1
   134    59    62    1
   135   125   124   ar
   136   125   127   ar
   137   124   126   ar
   138    62    63    1
   139   127   129   ar
   140   126   128   ar
   141    63    64    1
   142    64    65    1
   143    65    66    1
   144   129   128   ar
