@<TRIPOS>MOLECULE
tmp/3edqA00.pdb
 86 83 0 0 0
SMALL
GASTEIGER

@<TRIPOS>ATOM
      1  N          0.5100  -19.7280   10.3280 N.3    27  MET27      -0.1230
      2  CA         0.1920  -18.3100   10.2180 C.3    27  MET27       0.1702
      3  C          0.1970  -17.9440    8.7310 C.2    27  MET27       0.2593
      4  O          1.1330  -18.3250    8.0350 O.2    27  MET27      -0.2718
      5  CB         1.1710  -17.4190   10.9890 C.3    27  MET27       0.0401
      6  CG         0.9490  -15.9130   10.8540 C.3    27  MET27       0.0596
      7  SD        -0.5830  -15.3420   11.6380 S.3    27  MET27      -0.1393
      8  CE        -0.2600  -13.6000   11.7790 C.3    27  MET27       0.0692
      9  N         -0.8160  -17.2190    8.3110 N.am   28  THR28      -0.1939
     10  CA        -0.8540  -16.6920    6.9490 C.3    28  THR28       0.2028
     11  C         -0.1060  -15.3620    6.9270 C.2    28  THR28       0.2643
     12  O         -0.0090  -14.7100    7.9750 O.2    28  THR28      -0.2714
     13  CB        -2.3050  -16.5720    6.4910 C.3    28  THR28       0.1808
     14  OG1       -3.0330  -15.7600    7.4040 O.3    28  THR28      -0.2208
     15  CG2       -2.9790  -17.9440    6.5880 C.3    28  THR28       0.0379
     16  N          0.4080  -15.0400    5.7530 N.am   29  SER29      -0.1935
     17  CA         1.2160  -13.8740    5.4740 C.3    29  SER29       0.2055
     18  C          0.6100  -12.6240    6.0960 C.2    29  SER29       0.2646
     19  O         -0.5970  -12.4230    5.9080 O.2    29  SER29      -0.2714
     20  CB         1.3300  -13.7370    3.9380 C.3    29  SER29       0.2130
     21  OG         2.1360  -12.5920    3.6870 O.3    29  SER29      -0.2179
     22  N          1.3750  -11.8190    6.8200 N.am   30  ARG30      -0.1917
     23  CA         0.7620  -10.7090    7.5470 C.3    30  ARG30       0.1945
     24  C          0.6810   -9.4700    6.6530 C.2    30  ARG30       0.2659
     25  O          1.4040   -8.4970    6.8280 O.2    30  ARG30      -0.2711
     26  CB         1.5020  -10.4430    8.8680 C.2    30  ARG30       0.0033
     27  CG         1.5160  -11.5970    9.8640 C.2    30  ARG30       0.0179
     28  CD         2.3220  -11.3700   11.1510 C.3    30  ARG30       0.2464
     29  NE         1.7190  -10.1840   11.8290 N.pl3  30  ARG30      -0.0815
     30  CZ         2.2760   -8.9830   11.8160 C.cat  30  ARG30       0.5349
     31  NH1        3.4530   -8.7580   11.2020 N.pl3  30  ARG30       0.1354
     32  NH2        1.6530   -7.9880   12.4170 N.pl3  30  ARG30       0.1354
     33  N         -0.2470   -9.5350    5.7000 N.am   31  SER31      -0.1947
     34  CA        -0.5260   -8.4170    4.8010 C.3    31  SER31       0.1924
     35  C         -0.7790   -7.1390    5.6040 C.2    31  SER31       0.2314
     36  O         -1.5450   -7.1360    6.5750 O.2    31  SER31      -0.2863
     37  CB        -1.7390   -8.6830    3.9160 C.3    31  SER31       0.2116
     38  OG        -1.4330   -9.8480    3.1540 O.3    31  SER31      -0.2180
     39  N          4.4550   -9.2580   14.6090 N.3    86  SER86      -0.1202
     40  CA         4.4850  -10.6860   14.2890 C.3    86  SER86       0.2020
     41  C          3.1940  -11.3590   14.7240 C.2    86  SER86       0.2619
     42  O          2.3120  -10.6870   15.2630 O.2    86  SER86      -0.2717
     43  CB         5.6930  -11.3450   14.9780 C.3    86  SER86       0.2103
     44  OG         5.9760  -12.5740   14.2940 O.3    86  SER86      -0.2182
     45  N          3.1260  -12.6760   14.5210 N.am   87  HIS87      -0.1961
     46  CA         2.1490  -13.5260   15.1890 C.3    87  HIS87       0.1787
     47  C          2.5690  -13.6850   16.6570 C.2    87  HIS87       0.2620
     48  O          3.7580  -13.5010   16.9420 O.2    87  HIS87      -0.2715
     49  CB         2.0640  -14.8660   14.4530 C.3    87  HIS87       0.0785
     50  CG         1.1260  -15.8180   15.1110 C.ar   87  HIS87       0.0821
     51  ND1       -0.1150  -15.3930   15.5550 N.ar   87  HIS87      -0.2267
     52  CD2        1.2280  -17.1320   15.3980 C.ar   87  HIS87       0.1154
     53  CE1       -0.7410  -16.4280   16.1010 C.ar   87  HIS87       0.1986
     54  NE2        0.0610  -17.4940   16.0080 N.ar   87  HIS87      -0.2212
     55  N          1.6590  -14.0210   17.5600 N.am   88  GLY88      -0.1954
     56  CA         2.0030  -14.2570   18.9550 C.3    88  GLY88       0.1869
     57  C          0.9260  -15.1180   19.6140 C.2    88  GLY88       0.2309
     58  O         -0.1150  -15.4220   19.0270 O.2    88  GLY88      -0.2863
     59  N          2.9810   -5.7130   18.5590 N.3   127  GLN127     -0.1231
     60  CA         1.7950   -5.9240   17.6860 C.3   127  GLN127      0.1698
     61  C          1.7920   -7.4220   17.3960 C.2   127  GLN127      0.2592
     62  O          2.5790   -7.9060   16.5810 O.2   127  GLN127     -0.2718
     63  CB         1.8230   -5.0660   16.4440 C.3   127  GLN127      0.0381
     64  CG         0.8620   -5.4900   15.3120 C.3   127  GLN127      0.0905
     65  CD        -0.5730   -5.4970   15.8110 C.2   127  GLN127      0.2608
     66  OE1       -0.9280   -4.5400   16.4980 O.2   127  GLN127     -0.2717
     67  NE2       -1.3530   -6.5300   15.5130 N.am  127  GLN127     -0.0878
     68  N          0.9220   -8.1340   18.1360 N.am  128  ALA128     -0.1966
     69  CA         0.8630   -9.5890   18.0150 C.3   128  ALA128      0.1728
     70  C         -0.3370  -10.0930   18.7990 C.2   128  ALA128      0.2616
     71  O         -0.7730   -9.5030   19.8010 O.2   128  ALA128     -0.2715
     72  CB         2.1350  -10.2290   18.5310 C.3   128  ALA128      0.0334
     73  N         -0.8870  -11.2150   18.3580 N.am  129  CYS129     -0.1968
     74  CA        -1.9970  -11.7690   19.1470 C.3   129  CYS129      0.1712
     75  C         -1.5320  -12.1920   20.5380 C.2   129  CYS129      0.2296
     76  O         -0.3330  -12.4760   20.7420 O.2   129  CYS129     -0.2864
     77  CB        -2.6230  -12.9260   18.3710 C.3   129  CYS129      0.0983
     78  SG        -3.5030  -12.3470   16.8770 S.3   129  CYS129     -0.0798
     79  N        -12.0740  -13.3070   21.3310 N.3   134  LEU134     -0.1245
     80  CA       -12.6670  -12.2780   20.4740 C.3   134  LEU134      0.1561
     81  C        -13.4730  -11.3000   21.3180 C.2   134  LEU134      0.2260
     82  O        -14.2300  -11.7190   22.2100 O.2   134  LEU134     -0.2867
     83  CB       -13.5210  -12.9580   19.3920 C.3   134  LEU134      0.0270
     84  CG       -12.7950  -13.6090   18.2110 C.3   134  LEU134      0.0019
     85  CD1      -13.7610  -14.4460   17.3660 C.3   134  LEU134      0.0001
     86  CD2      -12.1270  -12.5700   17.3320 C.3   134  LEU134      0.0001
@<TRIPOS>BOND
     1    38    37    1
     2    21    20    1
     3    37    34    1
     4    20    17    1
     5    34    35    1
     6    34    33    1
     7    17    16    1
     8    17    18    1
     9    35    36    2
    10    33    24   am
    11    16    11   am
    12    19    18    2
    13    18    22   am
    14    13    15    1
    15    13    10    1
    16    13    14    1
    17    24    25    2
    18    24    23    1
    19    22    23    1
    20    11    10    1
    21    11    12    2
    22    10     9    1
    23    23    26    1
    24     4     3    2
    25     9     3   am
    26     3     2    1
    27    26    27    2
    28    27    28    1
    29     2     1    1
    30     2     5    1
    31     6     5    1
    32     6     7    1
    33    28    29    1
    34    31    30    1
    35     7     8    1
    36    30    29    2
    37    30    32    1
    38    40    39    1
    39    40    41    1
    40    40    43    1
    41    44    43    1
    42    49    50    1
    43    49    46    1
    44    45    41   am
    45    45    46    1
    46    41    42    2
    47    50    52   ar
    48    50    51   ar
    49    46    47    1
    50    64    65    1
    51    64    63    1
    52    52    54   ar
    53    67    65   am
    54    51    53   ar
    55    65    66    2
    56    54    53   ar
    57    63    60    1
    58    62    61    2
    59    47    48    2
    60    47    55   am
    61    78    77    1
    62    86    84    1
    63    85    84    1
    64    61    60    1
    65    61    68   am
    66    55    56    1
    67    60    59    1
    68    69    68    1
    69    69    72    1
    70    69    70    1
    71    84    83    1
    72    73    70   am
    73    73    74    1
    74    77    74    1
    75    70    71    2
    76    56    57    1
    77    58    57    2
    78    74    75    1
    79    83    80    1
    80    80    81    1
    81    80    79    1
    82    75    76    2
    83    81    82    2
