@<TRIPOS>MOLECULE
tmp/3edrB00.pdb
 129 132 0 0 0
SMALL
GASTEIGER

@<TRIPOS>ATOM
      1  N         49.7130  -18.2220    2.4560 N.3    20  TYR20      -0.1227
      2  CA        50.0400  -19.2940    1.5340 C.3    20  TYR20       0.1736
      3  C         49.3150  -20.5410    1.9980 C.2    20  TYR20       0.2596
      4  O         48.8800  -20.6220    3.1480 O.2    20  TYR20      -0.2718
      5  CB        51.5440  -19.5690    1.5480 C.3    20  TYR20       0.0548
      6  CG        52.3430  -18.7470    0.5690 C.ar   20  TYR20      -0.0200
      7  CD1       52.1840  -18.9200   -0.8030 C.ar   20  TYR20      -0.0009
      8  CD2       53.2720  -17.8070    1.0100 C.ar   20  TYR20      -0.0009
      9  CE1       52.9310  -18.1820   -1.7140 C.ar   20  TYR20       0.0417
     10  CE2       54.0250  -17.0620    0.1080 C.ar   20  TYR20       0.0417
     11  CZ        53.8480  -17.2560   -1.2520 C.ar   20  TYR20       0.1957
     12  OH        54.5860  -16.5270   -2.1550 O.3    20  TYR20      -0.2866
     13  N         49.1850  -21.5120    1.1030 N.am   21  SER21      -0.1938
     14  CA        48.5370  -22.7710    1.4420 C.3    21  SER21       0.2055
     15  C         49.4970  -23.8410    0.9470 C.2    21  SER21       0.2643
     16  O         49.8750  -23.8410   -0.2180 O.2    21  SER21      -0.2714
     17  CB        47.1860  -22.8780    0.7370 C.3    21  SER21       0.2130
     18  OG        46.3210  -23.7390    1.4470 O.3    21  SER21      -0.2179
     19  N         49.8940  -24.7480    1.8310 N.am   22  TRP22      -0.1959
     20  CA        50.8530  -25.7810    1.4700 C.3    22  TRP22       0.1771
     21  C         50.3440  -27.1150    0.9410 C.2    22  TRP22       0.2620
     22  O         49.2930  -27.6210    1.3420 O.2    22  TRP22      -0.2715
     23  CB        51.7990  -26.0180    2.6420 C.3    22  TRP22       0.0590
     24  CG        52.5190  -24.7680    3.0290 C.ar   22  TRP22       0.0006
     25  CD1       52.1010  -23.8220    3.9160 C.ar   22  TRP22       0.0946
     26  CD2       53.7470  -24.2870    2.4770 C.ar   22  TRP22       0.0152
     27  NE1       52.9890  -22.7780    3.9500 N.ar   22  TRP22      -0.2442
     28  CE2       54.0100  -23.0350    3.0760 C.ar   22  TRP22       0.0810
     29  CE3       54.6500  -24.7890    1.5300 C.ar   22  TRP22       0.0012
     30  CZ2       55.1400  -22.2770    2.7620 C.ar   22  TRP22       0.0191
     31  CZ3       55.7740  -24.0350    1.2170 C.ar   22  TRP22       0.0001
     32  CH2       56.0080  -22.7900    1.8330 C.ar   22  TRP22       0.0015
     33  N         51.1440  -27.6800    0.0420 N.am   23  ARG23      -0.1963
     34  CA        50.8530  -28.9400   -0.6250 C.3    23  ARG23       0.1729
     35  C         52.1220  -29.7630   -0.8570 C.2    23  ARG23       0.2617
     36  O         53.1250  -29.2530   -1.3570 O.2    23  ARG23      -0.2715
     37  CB        50.1770  -28.6410   -1.9690 C.3    23  ARG23       0.0348
     38  CG        50.1600  -29.7840   -2.9710 C.3    23  ARG23       0.0492
     39  CD        49.3490  -29.3900   -4.1950 C.3    23  ARG23       0.2205
     40  NE        49.7500  -28.0810   -4.7020 N.pl3  23  ARG23      -0.0865
     41  CZ        50.8990  -27.8350   -5.3270 C.cat  23  ARG23       0.5346
     42  NH1       51.7690  -28.8120   -5.5340 N.pl3  23  ARG23       0.1354
     43  NH2       51.1840  -26.6070   -5.7360 N.pl3  23  ARG23       0.1354
     44  N         52.0660  -31.0390   -0.4920 N.am   24  SER24      -0.1936
     45  CA        53.1890  -31.9510   -0.6740 C.3    24  SER24       0.2040
     46  C         52.9790  -32.7590   -1.9610 C.2    24  SER24       0.2485
     47  O         51.9780  -33.4660   -2.1020 O.2    24  SER24      -0.2729
     48  CB        53.2870  -32.8940    0.5280 C.3    24  SER24       0.2129
     49  OG        54.1760  -33.9670    0.2730 O.3    24  SER24      -0.2179
     50  N         53.9240  -32.6640   -2.9190 N.am   25  PRO25      -0.2715
     51  CA        53.8390  -33.3840   -4.1980 C.3    25  PRO25       0.1536
     52  C         53.5970  -34.8870   -4.0740 C.2    25  PRO25       0.2599
     53  O         52.9830  -35.4980   -4.9500 O.2    25  PRO25      -0.2715
     54  CB        55.1800  -33.0740   -4.8550 C.3    25  PRO25       0.0310
     55  CG        55.4770  -31.7040   -4.3600 C.3    25  PRO25       0.0237
     56  CD        55.1250  -31.8100   -2.8910 C.3    25  PRO25       0.0939
     57  N         54.0760  -35.4800   -2.9870 N.am   26  GLY26      -0.1955
     58  CA        53.9050  -36.9070   -2.8100 C.3    26  GLY26       0.1869
     59  C         52.6880  -37.3330   -2.0130 C.2    26  GLY26       0.2309
     60  O         52.1940  -38.4490   -2.2010 O.2    26  GLY26      -0.2863
     61  N         47.9840  -31.7890   -0.6010 N.3    29  SER29      -0.1202
     62  CA        47.9250  -30.6160    0.2640 C.3    29  SER29       0.2020
     63  C         47.6050  -31.0170    1.7070 C.2    29  SER29       0.2618
     64  O         46.9770  -32.0500    1.9520 O.2    29  SER29      -0.2717
     65  CB        46.8800  -29.6250   -0.2530 C.3    29  SER29       0.2103
     66  OG        45.5720  -30.1470   -0.1300 O.3    29  SER29      -0.2182
     67  N         48.0450  -30.1930    2.6560 N.am   30  TRP30      -0.1975
     68  CA        47.8310  -30.4640    4.0740 C.3    30  TRP30       0.1640
     69  C         46.3520  -30.4790    4.4360 C.2    30  TRP30       0.2290
     70  O         45.8810  -31.3680    5.1490 O.2    30  TRP30      -0.2864
     71  CB        48.5400  -29.4110    4.9320 C.3    30  TRP30       0.0576
     72  CG        50.0100  -29.2590    4.6660 C.ar   30  TRP30       0.0006
     73  CD1       50.7700  -29.9850    3.7980 C.ar   30  TRP30       0.0946
     74  CD2       50.8920  -28.3030    5.2680 C.ar   30  TRP30       0.0152
     75  NE1       52.0700  -29.5390    3.8170 N.ar   30  TRP30      -0.2442
     76  CE2       52.1730  -28.5070    4.7100 C.ar   30  TRP30       0.0810
     77  CE3       50.7230  -27.2900    6.2230 C.ar   30  TRP30       0.0012
     78  CZ2       53.2790  -27.7390    5.0760 C.ar   30  TRP30       0.0191
     79  CZ3       51.8230  -26.5250    6.5880 C.ar   30  TRP30       0.0001
     80  CH2       53.0850  -26.7540    6.0120 C.ar   30  TRP30       0.0015
     81  N         54.4120  -28.8910    9.0270 N.3    64  GLU64      -0.1231
     82  CA        55.4510  -27.8590    9.0660 C.3    64  GLU64       0.1699
     83  C         56.2390  -27.9530    7.7600 C.2    64  GLU64       0.2593
     84  O         56.9720  -28.9110    7.5370 O.2    64  GLU64      -0.2718
     85  CB        56.3700  -28.0670   10.2750 C.3    64  GLU64       0.0402
     86  CG        57.3100  -26.8890   10.5350 C.3    64  GLU64       0.1161
     87  CD        58.0160  -26.9660   11.8850 C.2    64  GLU64       0.3649
     88  OE1       57.3250  -27.0870   12.9250 O.co2  64  GLU64      -0.2457
     89  OE2       59.2650  -26.8930   11.9020 O.co2  64  GLU64      -0.2457
     90  N         56.0520  -26.9660    6.8890 N.am   65  SER65      -0.1938
     91  CA        56.7150  -26.9340    5.5860 C.3    65  SER65       0.2055
     92  C         58.2040  -27.2490    5.6080 C.2    65  SER65       0.2643
     93  O         58.9180  -26.9000    6.5470 O.2    65  SER65      -0.2714
     94  CB        56.5050  -25.5720    4.9170 C.3    65  SER65       0.2130
     95  OG        57.1850  -24.5470    5.6160 O.3    65  SER65      -0.2179
     96  N         58.6630  -27.9110    4.5520 N.am   66  GLN66      -0.1963
     97  CA        60.0660  -28.2710    4.4140 C.3    66  GLN66       0.1733
     98  C         60.5650  -27.8280    3.0450 C.2    66  GLN66       0.2617
     99  O         60.1280  -28.3470    2.0190 O.2    66  GLN66      -0.2715
    100  CB        60.2430  -29.7810    4.5690 C.3    66  GLN66       0.0408
    101  CG        59.8650  -30.2990    5.9430 C.3    66  GLN66       0.0908
    102  CD        60.0910  -31.7910    6.0800 C.2    66  GLN66       0.2608
    103  OE1       61.1940  -32.2860    5.8430 O.2    66  GLN66      -0.2717
    104  NE2       59.0470  -32.5160    6.4700 N.am   66  GLN66      -0.0878
    105  N         61.4730  -26.8590    3.0350 N.am   67  SER67      -0.1936
    106  CA        62.0250  -26.3460    1.7890 C.3    67  SER67       0.2055
    107  C         63.4960  -25.9780    1.9610 C.2    67  SER67       0.2643
    108  O         63.9760  -25.7940    3.0830 O.2    67  SER67      -0.2714
    109  CB        61.2290  -25.1190    1.3320 C.3    67  SER67       0.2130
    110  OG        61.6880  -24.6420    0.0800 O.3    67  SER67      -0.2179
    111  N         64.2080  -25.8830    0.8400 N.am   68  ASP68      -0.1971
    112  CA        65.6250  -25.5320    0.8520 C.3    68  ASP68       0.1709
    113  C         65.7630  -24.0410    1.1170 C.2    68  ASP68       0.2293
    114  O         66.5620  -23.6170    1.9530 O.2    68  ASP68      -0.2864
    115  CB        66.2710  -25.8880   -0.4900 C.3    68  ASP68       0.1436
    116  CG        66.2230  -27.3780   -0.7820 C.2    68  ASP68       0.3671
    117  OD1       66.6990  -28.1620    0.0680 O.co2  68  ASP68      -0.2456
    118  OD2       65.7130  -27.7650   -1.8580 O.co2  68  ASP68      -0.2456
    119  N         61.3670  -20.1900    3.1890 N.3    72  PHE72      -0.1241
    120  CA        60.1590  -21.0110    3.1870 C.3    72  PHE72       0.1605
    121  C         60.3560  -22.2360    4.0740 C.2    72  PHE72       0.2264
    122  O         59.6010  -23.2030    3.9980 O.2    72  PHE72      -0.2867
    123  CB        59.8190  -21.4630    1.7600 C.3    72  PHE72       0.0534
    124  CG        59.3350  -20.3540    0.8660 C.ar   72  PHE72      -0.0203
    125  CD1       60.1810  -19.3140    0.4980 C.ar   72  PHE72      -0.0042
    126  CD2       58.0250  -20.3490    0.3960 C.ar   72  PHE72      -0.0042
    127  CE1       59.7280  -18.2810   -0.3250 C.ar   72  PHE72      -0.0003
    128  CE2       57.5600  -19.3190   -0.4280 C.ar   72  PHE72      -0.0003
    129  CZ        58.4150  -18.2840   -0.7890 C.ar   72  PHE72      -0.0000
@<TRIPOS>BOND
     1    43    41    1
     2    42    41    1
     3    41    40    2
     4    53    52    2
     5    54    55    1
     6    54    51    1
     7    40    39    1
     8    55    56    1
     9    51    52    1
    10    51    50    1
    11    39    38    1
    12    52    57   am
    13    57    58    1
    14    38    37    1
    15    50    56    1
    16    50    46   am
    17    58    59    1
    18    60    59    2
    19    12    11    1
    20    47    46    2
    21    37    34    1
    22    46    45    1
    23   118   116   ar
    24     9    11   ar
    25     9     7   ar
    26    36    35    2
    27    11    10   ar
    28    35    34    1
    29    35    44   am
    30     7     6   ar
    31   129   128   ar
    32   129   127   ar
    33   116   115    1
    34   116   117   ar
    35    45    44    1
    36    45    48    1
    37    34    33    1
    38    61    62    1
    39   115   112    1
    40   128   126   ar
    41   127   125   ar
    42    65    66    1
    43    65    62    1
    44    16    15    2
    45    33    21   am
    46   110   109    1
    47    10     8   ar
    48    62    63    1
    49    49    48    1
    50   126   124   ar
    51   125   124   ar
    52     6     8   ar
    53     6     5    1
    54    17    14    1
    55    17    18    1
    56   111   112    1
    57   111   107   am
    58   112   113    1
    59   124   123    1
    60    21    22    2
    61    21    20    1
    62    15    14    1
    63    15    19   am
    64    13    14    1
    65    13     3   am
    66   113   114    2
    67    31    29   ar
    68    31    32   ar
    69   109   106    1
    70    20    19    1
    71    20    23    1
    72    29    26   ar
    73     2     5    1
    74     2     3    1
    75     2     1    1
    76    63    64    2
    77    63    67   am
    78   123   120    1
    79   106   107    1
    80   106   105    1
    81    32    30   ar
    82   107   108    2
    83     3     4    2
    84    99    98    2
    85    26    24   ar
    86    26    28   ar
    87    23    24    1
    88    67    68    1
    89    30    28   ar
    90    24    25   ar
    91   105    98   am
    92    98    97    1
    93    28    27   ar
    94   120   119    1
    95   120   121    1
    96    73    75   ar
    97    73    72   ar
    98    75    76   ar
    99    25    27   ar
   100   122   121    2
   101    68    69    1
   102    68    71    1
   103    97    96    1
   104    97   100    1
   105    69    70    2
   106    96    92   am
   107   100   101    1
   108    72    71    1
   109    72    74   ar
   110    76    78   ar
   111    76    74   ar
   112    94    91    1
   113    94    95    1
   114    78    80   ar
   115    74    77   ar
   116    91    92    1
   117    91    90    1
   118    92    93    2
   119   103   102    2
   120   101   102    1
   121    80    79   ar
   122   102   104   am
   123    77    79   ar
   124    90    83   am
   125    84    83    2
   126    83    82    1
   127    81    82    1
   128    82    85    1
   129    85    86    1
   130    86    87    1
   131    87    89   ar
   132    87    88   ar
