@<TRIPOS>MOLECULE
tmp/3edzA01.pdb
 72 66 0 0 0
SMALL
GASTEIGER

@<TRIPOS>ATOM
      1  N          6.8770   21.6930   23.1410 N.3   136  GLY136     -0.1210
      2  CA         8.1860   22.1130   23.6050 C.3   136  GLY136      0.1956
      3  C          9.1300   20.9520   23.3980 C.2   136  GLY136      0.2612
      4  O          8.6880   19.8110   23.3300 O.2   136  GLY136     -0.2717
      5  N         10.4210   21.2270   23.2630 N.am  137  GLY137     -0.1942
      6  CA        11.4020   20.1680   23.1120 C.3   137  GLY137      0.2014
      7  C         11.1850   19.2120   21.9510 C.2   137  GLY137      0.2639
      8  O         11.4890   18.0210   22.0500 O.2   137  GLY137     -0.2714
      9  N         10.6920   19.7310   20.8370 N.am  138  SER138     -0.1949
     10  CA        10.5120   18.9180   19.6430 C.3   138  SER138      0.1924
     11  C         11.4230   19.4300   18.5230 C.2   138  SER138      0.2314
     12  O         11.4810   20.6360   18.2540 O.2   138  SER138     -0.2863
     13  CB         9.0630   18.9530   19.1580 C.3   138  SER138      0.2116
     14  OG         8.9890   18.3930   17.8560 O.3   138  SER138     -0.2180
     15  N          8.2370   23.8940   15.2390 N.3   143  SER143     -0.1202
     16  CA         7.5010   23.4660   16.4300 C.3   143  SER143      0.2020
     17  C          7.9340   24.3440   17.6090 C.2   143  SER143      0.2619
     18  O          9.1050   24.7170   17.7060 O.2   143  SER143     -0.2717
     19  CB         7.7630   21.9830   16.7370 C.3   143  SER143      0.2103
     20  OG         9.1490   21.6870   16.7530 O.3   143  SER143     -0.2182
     21  N          6.9880   24.6750   18.4900 N.am  144  HIS144     -0.1961
     22  CA         7.2500   25.5280   19.6580 C.3   144  HIS144      0.1787
     23  C          6.3350   25.1370   20.8190 C.2   144  HIS144      0.2620
     24  O          5.3880   24.3630   20.6450 O.2   144  HIS144     -0.2715
     25  CB         6.9490   26.9950   19.3250 C.3   144  HIS144      0.0785
     26  CG         7.7700   27.5450   18.2040 C.ar  144  HIS144      0.0821
     27  ND1        7.2960   27.6380   16.9120 N.ar  144  HIS144     -0.2267
     28  CD2        9.0170   28.0710   18.1870 C.ar  144  HIS144      0.1154
     29  CE1        8.2310   28.1650   16.1410 C.ar  144  HIS144      0.1986
     30  NE2        9.2850   28.4370   16.8900 N.ar  144  HIS144     -0.2212
     31  N          6.5770   25.7320   21.9830 N.am  145  GLY145     -0.1954
     32  CA         5.7420   25.5000   23.1470 C.3   145  GLY145      0.1869
     33  C          6.5110   25.2050   24.4160 C.2   145  GLY145      0.2309
     34  O          7.7360   25.2530   24.4390 O.2   145  GLY145     -0.2863
     35  N          2.5900   30.5570   25.2080 N.3   150  LYS150     -0.1245
     36  CA         3.0350   31.1420   23.9460 C.3   150  LYS150      0.1561
     37  C          1.8520   30.9340   23.0090 C.2   150  LYS150      0.2260
     38  O          1.3310   29.8100   22.8640 O.2   150  LYS150     -0.2867
     39  CB         4.2860   30.4430   23.3770 C.3   150  LYS150      0.0271
     40  CG         4.5770   30.8690   21.9050 C.3   150  LYS150      0.0035
     41  CD         5.9240   30.3750   21.3800 C.3   150  LYS150      0.0206
     42  CE         7.0850   31.1070   22.0420 C.3   150  LYS150      0.1093
     43  NZ         8.3910   30.4160   21.7940 N.3   150  LYS150     -0.1314
     44  N         11.8680   22.1810   27.9150 N.3   195  GLY195     -0.1225
     45  CA        12.7950   22.3880   26.8180 C.3   195  GLY195      0.1811
     46  C         13.6420   21.2200   26.3420 C.2   195  GLY195      0.2280
     47  O         14.3880   21.3580   25.3850 O.2   195  GLY195     -0.2866
     48  N         14.7030   17.6730   24.5340 N.3   197  GLU197     -0.1245
     49  CA        14.3480   16.8010   23.4230 C.3   197  GLU197      0.1567
     50  C         14.6580   15.3670   23.8370 C.2   197  GLU197      0.2260
     51  O         15.1760   15.1140   24.9240 O.2   197  GLU197     -0.2867
     52  CB        15.1310   17.1870   22.1650 C.3   197  GLU197      0.0388
     53  CG        14.8370   18.6140   21.7470 C.3   197  GLU197      0.1160
     54  CD        15.3800   18.9440   20.3730 C.2   197  GLU197      0.3649
     55  OE1       16.2200   18.1770   19.8660 O.co2 197  GLU197     -0.2457
     56  OE2       14.9430   19.9560   19.7910 O.co2 197  GLU197     -0.2457
     57  N         17.2770   28.0670   28.4990 N.3   244  THR244     -0.1218
     58  CA        16.1250   28.9590   28.6200 C.3   244  THR244      0.1862
     59  C         15.4560   28.9780   29.9840 C.2   244  THR244      0.2287
     60  O         14.5390   29.7560   30.2030 O.2   244  THR244     -0.2866
     61  CB        15.0370   28.5470   27.5950 C.3   244  THR244      0.1770
     62  OG1       14.6660   27.1820   27.8320 O.3   244  THR244     -0.2211
     63  CG2       15.5280   28.7070   26.1590 C.3   244  THR244      0.0375
     64  N         12.8270   31.8090   31.0950 N.3   248  LYS248     -0.1245
     65  CA        11.4300   31.4110   31.2720 C.3   248  LYS248      0.1561
     66  C         11.0010   31.6710   32.6990 C.2   248  LYS248      0.2260
     67  O          9.8650   32.0770   32.9510 O.2   248  LYS248     -0.2867
     68  CB        11.2450   29.9170   30.9660 C.3   248  LYS248      0.0271
     69  CG        11.5440   29.5410   29.5450 C.3   248  LYS248      0.0035
     70  CD        10.5890   30.2410   28.5800 C.3   248  LYS248      0.0206
     71  CE        11.0260   29.9380   27.1440 C.3   248  LYS248      0.1093
     72  NZ        10.1980   30.6500   26.1350 N.3   248  LYS248     -0.1314
@<TRIPOS>BOND
     1    15    16    1
     2    29    30   ar
     3    29    27   ar
     4    16    19    1
     5    16    17    1
     6    19    20    1
     7    30    28   ar
     8    27    26   ar
     9    17    18    2
    10    17    21   am
    11    14    13    1
    12    28    26   ar
    13    26    25    1
    14    12    11    2
    15    21    22    1
    16    11    10    1
    17    13    10    1
    18    25    22    1
    19    10     9    1
    20    22    23    1
    21    56    54   ar
    22    55    54   ar
    23    54    53    1
    24    24    23    2
    25    23    31   am
    26     9     7   am
    27    41    40    1
    28    41    42    1
    29    53    52    1
    30    43    42    1
    31    40    39    1
    32     7     8    2
    33     7     6    1
    34    31    32    1
    35    52    49    1
    36    38    37    2
    37    37    36    1
    38     6     5    1
    39     1     2    1
    40    32    33    1
    41     5     3   am
    42     4     3    2
    43    39    36    1
    44     3     2    1
    45    49    50    1
    46    49    48    1
    47    50    51    2
    48    36    35    1
    49    33    34    2
    50    47    46    2
    51    72    71    1
    52    63    61    1
    53    46    45    1
    54    45    44    1
    55    71    70    1
    56    61    62    1
    57    61    58    1
    58    57    58    1
    59    70    69    1
    60    58    59    1
    61    69    68    1
    62    59    60    2
    63    68    65    1
    64    64    65    1
    65    65    66    1
    66    66    67    2
