@<TRIPOS>MOLECULE
tmp/3edzB00.pdb
 192 189 0 0 0
SMALL
GASTEIGER

@<TRIPOS>ATOM
      1  N         42.3460   27.6630   33.5850 N.3   126  MET126     -0.1230
      2  CA        43.5880   26.9960   33.9420 C.3   126  MET126      0.1702
      3  C         44.0580   27.1270   35.3950 C.2   126  MET126      0.2593
      4  O         45.2530   27.0530   35.6660 O.2   126  MET126     -0.2718
      5  CB        44.7070   27.4090   32.9820 C.3   126  MET126      0.0401
      6  CG        44.5090   26.8940   31.5650 C.3   126  MET126      0.0596
      7  SD        45.6700   27.6310   30.3930 S.3   126  MET126     -0.1393
      8  CE        47.2200   26.8920   30.9540 C.3   126  MET126      0.0692
      9  N         43.1300   27.3060   36.3260 N.am  127  GLY127     -0.1942
     10  CA        43.4900   27.3540   37.7330 C.3   127  GLY127      0.2014
     11  C         44.1670   28.6170   38.2390 C.2   127  GLY127      0.2640
     12  O         44.7140   28.6080   39.3480 O.2   127  GLY127     -0.2714
     13  N         44.0910   29.7040   37.4640 N.am  128  THR128     -0.1936
     14  CA        44.6790   30.9880   37.8630 C.3   128  THR128      0.2028
     15  C         43.8950   31.6080   39.0020 C.2   128  THR128      0.2642
     16  O         42.6730   31.6480   38.9710 O.2   128  THR128     -0.2714
     17  CB        44.8040   31.9490   36.6630 C.3   128  THR128      0.1808
     18  OG1       45.6720   31.3550   35.6860 O.3   128  THR128     -0.2208
     19  CG2       45.3700   33.3010   37.1140 C.3   128  THR128      0.0379
     20  N         44.6110   32.1000   40.0070 N.am  129  LEU129     -0.1963
     21  CA        43.9900   32.6300   41.2070 C.3   129  LEU129      0.1728
     22  C         44.1930   34.1270   41.4140 C.2   129  LEU129      0.2617
     23  O         43.4500   34.7700   42.1520 O.2   129  LEU129     -0.2715
     24  CB        44.4990   31.8520   42.4260 C.3   129  LEU129      0.0311
     25  CG        44.1200   30.3650   42.4920 C.3   129  LEU129      0.0022
     26  CD1       44.9260   29.6650   43.5730 C.3   129  LEU129      0.0001
     27  CD2       42.6230   30.2530   42.7950 C.3   129  LEU129      0.0001
     28  N         45.1950   34.6980   40.7600 N.am  130  GLY130     -0.1940
     29  CA        45.4250   36.1140   40.9230 C.3   130  GLY130      0.2014
     30  C         46.4610   36.6130   39.9430 C.2   130  GLY130      0.2639
     31  O         47.0520   35.8310   39.1910 O.2   130  GLY130     -0.2714
     32  N         46.6670   37.9240   39.9470 N.am  131  LEU131     -0.1963
     33  CA        47.6210   38.5460   39.0320 C.3   131  LEU131      0.1728
     34  C         48.0170   39.8880   39.6230 C.2   131  LEU131      0.2616
     35  O         47.2240   40.5100   40.3140 O.2   131  LEU131     -0.2715
     36  CB        46.9530   38.7620   37.6670 C.3   131  LEU131      0.0311
     37  CG        47.9010   39.0970   36.5190 C.3   131  LEU131      0.0022
     38  CD1       48.7220   37.8530   36.1840 C.3   131  LEU131      0.0001
     39  CD2       47.0870   39.5620   35.3000 C.3   131  LEU131      0.0001
     40  N         49.2400   40.3380   39.3600 N.am  132  ALA132     -0.1977
     41  CA        49.6800   41.6230   39.8890 C.3   132  ALA132      0.1597
     42  C         50.8860   42.1460   39.1220 C.2   132  ALA132      0.2287
     43  O         51.6540   41.3730   38.5480 O.2   132  ALA132     -0.2864
     44  CB        50.0200   41.5070   41.3780 C.3   132  ALA132      0.0319
     45  N         44.2060   29.3460   51.5360 N.3   179  GLU179     -0.1245
     46  CA        44.6890   29.4720   50.1620 C.3   179  GLU179      0.1567
     47  C         44.5540   30.9160   49.7000 C.2   179  GLU179      0.2260
     48  O         45.4540   31.4500   49.0450 O.2   179  GLU179     -0.2867
     49  CB        43.9460   28.5150   49.2230 C.3   179  GLU179      0.0388
     50  CG        44.2400   27.0680   49.5910 C.3   179  GLU179      0.1160
     51  CD        43.4290   26.0470   48.8030 C.2   179  GLU179      0.3649
     52  OE1       43.9760   24.9680   48.5630 O.co2 179  GLU179     -0.2457
     53  OE2       42.2340   26.2680   48.5190 O.co2 179  GLU179     -0.2457
     54  N         47.3790   33.0400   50.9440 N.3   182  LEU182     -0.1231
     55  CA        48.6070   32.8190   50.1660 C.3   182  LEU182      0.1693
     56  C         48.5760   33.5450   48.8070 C.2   182  LEU182      0.2591
     57  O         49.5950   34.0730   48.3450 O.2   182  LEU182     -0.2718
     58  CB        48.8740   31.3240   49.9600 C.3   182  LEU182      0.0284
     59  CG        49.0120   30.4140   51.1970 C.3   182  LEU182      0.0019
     60  CD1       48.8930   28.9530   50.7980 C.3   182  LEU182      0.0001
     61  CD2       50.3240   30.6550   51.9130 C.3   182  LEU182      0.0001
     62  N         47.4260   33.5290   48.1450 N.am  183  VAL183     -0.1980
     63  CA        47.3150   34.1720   46.8270 C.3   183  VAL183      0.1595
     64  C         47.5680   35.6730   46.9970 C.2   183  VAL183      0.2287
     65  O         48.3910   36.2740   46.2980 O.2   183  VAL183     -0.2864
     66  CB        45.9330   33.9240   46.1840 C.3   183  VAL183      0.0276
     67  CG1       45.7400   34.8100   44.9160 C.3   183  VAL183      0.0022
     68  CG2       45.7610   32.4270   45.8590 C.3   183  VAL183      0.0022
     69  N         51.1750   36.4290   47.7550 N.3   186  HIS186     -0.1226
     70  CA        51.9300   36.2560   46.5020 C.3   186  HIS186      0.1752
     71  C         51.7450   37.4390   45.5420 C.2   186  HIS186      0.2595
     72  O         52.7160   37.9750   45.0070 O.2   186  HIS186     -0.2718
     73  CB        51.4980   34.9390   45.8280 C.3   186  HIS186      0.0759
     74  CG        52.1880   34.6490   44.5240 C.ar  186  HIS186      0.0818
     75  ND1       53.1800   33.6970   44.4040 N.ar  186  HIS186     -0.2268
     76  CD2       51.9880   35.1400   43.2730 C.ar  186  HIS186      0.1154
     77  CE1       53.5580   33.6090   43.1400 C.ar  186  HIS186      0.1986
     78  NE2       52.8450   34.4660   42.4320 N.ar  186  HIS186     -0.2212
     79  N         50.5020   37.8450   45.3190 N.am  187  GLU187     -0.1979
     80  CA        50.2350   38.9800   44.4270 C.3   187  GLU187      0.1602
     81  C         50.8630   40.2680   44.9790 C.2   187  GLU187      0.2287
     82  O         51.5120   41.0090   44.2350 O.2   187  GLU187     -0.2864
     83  CB        48.7400   39.1470   44.1560 C.3   187  GLU187      0.0415
     84  CG        48.0350   37.9150   43.5450 C.3   187  GLU187      0.1163
     85  CD        48.7970   37.2740   42.4010 C.2   187  GLU187      0.3649
     86  OE1       49.5690   37.9740   41.7120 O.co2 187  GLU187     -0.2457
     87  OE2       48.5790   36.0720   42.1510 O.co2 187  GLU187     -0.2457
     88  N         54.5350   40.3290   44.2420 N.3   190  HIS190     -0.1241
     89  CA        54.9020   40.9150   42.9370 C.3   190  HIS190      0.1621
     90  C         54.8590   42.4480   43.0580 C.2   190  HIS190      0.2264
     91  O         55.7670   43.1320   42.5870 O.2   190  HIS190     -0.2867
     92  CB        53.9410   40.4690   41.8210 C.3   190  HIS190      0.0745
     93  CG        54.1600   39.0590   41.3580 C.ar  190  HIS190      0.0817
     94  ND1       55.3920   38.5880   40.9600 N.ar  190  HIS190     -0.2268
     95  CD2       53.2940   38.0250   41.2060 C.ar  190  HIS190      0.1154
     96  CE1       55.2810   37.3200   40.5940 C.ar  190  HIS190      0.1986
     97  NE2       54.0170   36.9530   40.7370 N.ar  190  HIS190     -0.2212
     98  N         59.0430   35.2960   40.3430 N.3   196  HIS196     -0.1241
     99  CA        58.9100   33.9530   40.8900 C.3   196  HIS196      0.1621
    100  C         60.2120   33.3290   41.3310 C.2   196  HIS196      0.2264
    101  O         61.2790   33.6250   40.7900 O.2   196  HIS196     -0.2867
    102  CB        58.2030   33.0320   39.8850 C.3   196  HIS196      0.0745
    103  CG        56.7620   33.3680   39.7000 C.ar  196  HIS196      0.0817
    104  ND1       56.0820   33.1300   38.5240 N.ar  196  HIS196     -0.2268
    105  CD2       55.8800   33.9630   40.5350 C.ar  196  HIS196      0.1154
    106  CE1       54.8390   33.5670   38.6450 C.ar  196  HIS196      0.1986
    107  NE2       54.6910   34.0760   39.8570 N.ar  196  HIS196     -0.2212
    108  N         58.0420   24.6900   49.4490 N.3   213  LYS213     -0.1231
    109  CA        58.3330   25.9020   48.6790 C.3   213  LYS213      0.1693
    110  C         57.9310   27.1880   49.4160 C.2   213  LYS213      0.2592
    111  O         57.1580   27.1680   50.3730 O.2   213  LYS213     -0.2718
    112  CB        57.5960   25.8470   47.3340 C.3   213  LYS213      0.0285
    113  CG        57.7850   24.5440   46.5460 C.3   213  LYS213      0.0035
    114  CD        59.2580   24.3050   46.3000 C.3   213  LYS213      0.0206
    115  CE        59.4780   23.2040   45.2610 C.3   213  LYS213      0.1093
    116  NZ        59.0570   21.8840   45.7580 N.3   213  LYS213     -0.1314
    117  N         58.4490   28.3060   48.9360 N.am  214  TYR214     -0.1962
    118  CA        58.1210   29.6090   49.4940 C.3   214  TYR214      0.1771
    119  C         56.9520   30.2100   48.7300 C.2   214  TYR214      0.2619
    120  O         56.5180   29.6630   47.7200 O.2   214  TYR214     -0.2715
    121  CB        59.3340   30.5460   49.4760 C.3   214  TYR214      0.0574
    122  CG        60.3940   30.1380   50.4680 C.ar  214  TYR214     -0.0198
    123  CD1       60.1980   30.3190   51.8350 C.ar  214  TYR214     -0.0009
    124  CD2       61.5600   29.5110   50.0480 C.ar  214  TYR214     -0.0009
    125  CE1       61.1550   29.9350   52.7480 C.ar  214  TYR214      0.0417
    126  CE2       62.5210   29.1090   50.9570 C.ar  214  TYR214      0.0417
    127  CZ        62.3240   29.3440   52.3000 C.ar  214  TYR214      0.1957
    128  OH        63.2860   28.9590   53.2010 O.3   214  TYR214     -0.2866
    129  N         56.4120   31.3110   49.2470 N.am  215  VAL215     -0.1977
    130  CA        55.1990   31.9190   48.7060 C.3   215  VAL215      0.1596
    131  C         55.2680   32.3720   47.2420 C.2   215  VAL215      0.2287
    132  O         54.2320   32.4420   46.5590 O.2   215  VAL215     -0.2864
    133  CB        54.6840   33.0640   49.6250 C.3   215  VAL215      0.0276
    134  CG1       55.5600   34.3050   49.4580 C.3   215  VAL215      0.0022
    135  CG2       53.2440   33.3920   49.2800 C.3   215  VAL215      0.0022
    136  N         56.6770   30.7860   44.8310 N.3   217  TYR217     -0.1228
    137  CA        56.8390   29.6560   43.9100 C.3   217  TYR217      0.1721
    138  C         55.9120   29.8980   42.7100 C.2   217  TYR217      0.2437
    139  O         54.8260   30.4420   42.8650 O.2   217  TYR217     -0.2733
    140  CB        56.4980   28.3240   44.6100 C.3   217  TYR217      0.0547
    141  CG        57.1010   27.1200   43.9100 C.ar  217  TYR217     -0.0200
    142  CD1       58.4880   26.9310   43.8770 C.ar  217  TYR217     -0.0009
    143  CD2       56.2940   26.1990   43.2520 C.ar  217  TYR217     -0.0009
    144  CE1       59.0500   25.8710   43.1790 C.ar  217  TYR217      0.0417
    145  CE2       56.8470   25.1230   42.5530 C.ar  217  TYR217      0.0417
    146  CZ        58.2230   24.9620   42.5410 C.ar  217  TYR217      0.1957
    147  OH        58.7770   23.8990   41.8710 O.3   217  TYR217     -0.2866
    148  N         56.3290   29.4900   41.4950 N.am  218  PRO218     -0.2718
    149  CA        55.5610   29.7800   40.2790 C.3   218  PRO218      0.1535
    150  C         54.2480   29.0210   40.1180 C.2   218  PRO218      0.2598
    151  O         53.4190   29.3810   39.2820 O.2   218  PRO218     -0.2715
    152  CB        56.5330   29.4100   39.1460 C.3   218  PRO218      0.0310
    153  CG        57.4860   28.4700   39.7540 C.3   218  PRO218      0.0237
    154  CD        57.6300   28.8830   41.1880 C.3   218  PRO218      0.0939
    155  N         54.0800   27.9700   40.9110 N.am  219  ILE219     -0.1964
    156  CA        52.9040   27.1140   40.8590 C.3   219  ILE219      0.1727
    157  C         52.2410   27.1270   42.2370 C.2   219  ILE219      0.2616
    158  O         52.9280   27.0120   43.2460 O.2   219  ILE219     -0.2715
    159  CB        53.3490   25.6480   40.5590 C.3   219  ILE219      0.0290
    160  CG1       53.8690   25.4950   39.1380 C.3   219  ILE219      0.0022
    161  CG2       52.2110   24.6580   40.8200 C.3   219  ILE219      0.0023
    162  CD1       54.2250   24.0470   38.8000 C.3   219  ILE219      0.0001
    163  N         50.9170   27.2390   42.2870 N.am  220  ALA220     -0.1963
    164  CA        50.2130   27.1640   43.5740 C.3   220  ALA220      0.1728
    165  C         50.0190   25.6580   43.7640 C.2   220  ALA220      0.2616
    166  O         48.9590   25.0960   43.4700 O.2   220  ALA220     -0.2715
    167  CB        48.8610   27.8950   43.5070 C.3   220  ALA220      0.0334
    168  N         51.1120   25.0070   44.1410 N.am  221  VAL221     -0.1963
    169  CA        51.1890   23.5590   44.2030 C.3   221  VAL221      0.1727
    170  C         50.9160   22.9430   45.5700 C.2   221  VAL221      0.2617
    171  O         50.5330   21.7710   45.6540 O.2   221  VAL221     -0.2715
    172  CB        52.5470   23.0920   43.6290 C.3   221  VAL221      0.0290
    173  CG1       53.7000   23.6070   44.4810 C.3   221  VAL221      0.0023
    174  CG2       52.5890   21.5810   43.4710 C.3   221  VAL221      0.0023
    175  N         51.1140   23.7200   46.6330 N.am  222  SER222     -0.1936
    176  CA        50.9320   23.2030   47.9870 C.3   222  SER222      0.2055
    177  C         49.8580   23.8920   48.8450 C.2   222  SER222      0.2643
    178  O         48.6840   23.5200   48.8040 O.2   222  SER222     -0.2714
    179  CB        52.2710   23.1860   48.7310 C.3   222  SER222      0.2130
    180  OG        52.1130   22.6600   50.0400 O.3   222  SER222     -0.2179
    181  N         50.2850   24.8450   49.6710 N.am  223  GLY223     -0.1954
    182  CA        49.4000   25.5590   50.5790 C.3   223  GLY223      0.1869
    183  C         49.3860   24.9780   51.9890 C.2   223  GLY223      0.2309
    184  O         48.9840   25.6470   52.9370 O.2   223  GLY223     -0.2863
    185  N         55.3650   27.6880   52.7240 N.3   228  ASN228     -0.1240
    186  CA        54.4030   28.2240   51.7710 C.3   228  ASN228      0.1653
    187  C         54.0010   29.6530   52.0800 C.2   228  ASN228      0.2266
    188  O         53.7400   30.4470   51.1800 O.2   228  ASN228     -0.2867
    189  CB        53.1390   27.3700   51.7240 C.3   228  ASN228      0.1155
    190  CG        53.3510   26.0100   51.0850 C.2   228  ASN228      0.2627
    191  OD1       52.4000   25.2340   50.9750 O.2   228  ASN228     -0.2716
    192  ND2       54.5790   25.7180   50.6440 N.am  228  ASN228     -0.0877
@<TRIPOS>BOND
     1     7     8    1
     2     7     6    1
     3     6     5    1
     4     5     2    1
     5     1     2    1
     6     2     3    1
     7    39    37    1
     8     3     4    2
     9     3     9   am
    10    18    17    1
    11    38    37    1
    12     9    10    1
    13    37    36    1
    14    17    19    1
    15    17    14    1
    16    13    14    1
    17    13    11   am
    18    36    33    1
    19    10    11    1
    20    14    15    1
    21    11    12    2
    22   104   106   ar
    23   104   103   ar
    24    43    42    2
    25   106   107   ar
    26   162   160    1
    27    16    15    2
    28    15    20   am
    29    33    34    1
    30    33    32    1
    31    42    41    1
    32   160   159    1
    33   152   153    1
    34   152   149    1
    35    31    30    2
    36   151   150    2
    37    40    34   am
    38    40    41    1
    39    34    35    2
    40   103   102    1
    41   103   105   ar
    42   153   154    1
    43   107   105   ar
    44   102    99    1
    45    41    44    1
    46    30    32   am
    47    30    29    1
    48    20    21    1
    49   150   149    1
    50   150   155   am
    51   149   148    1
    52    98    99    1
    53   159   161    1
    54   159   156    1
    55    96    97   ar
    56    96    94   ar
    57    97    95   ar
    58    28    29    1
    59    28    22   am
    60   101   100    2
    61   156   155    1
    62   156   157    1
    63    99   100    1
    64    94    93   ar
    65   154   148    1
    66    95    93   ar
    67    21    22    1
    68    21    24    1
    69    93    92    1
    70    22    23    2
    71   148   138   am
    72    86    85   ar
    73    92    89    1
    74   147   146    1
    75    87    85   ar
    76   157   163   am
    77   157   158    2
    78   163   164    1
    79    85    84    1
    80    24    25    1
    81    78    77   ar
    82    78    76   ar
    83    25    27    1
    84    25    26    1
    85   146   145   ar
    86   146   144   ar
    87   145   143   ar
    88    91    90    2
    89   138   139    2
    90   138   137    1
    91    89    90    1
    92    89    88    1
    93    77    75   ar
    94   144   142   ar
    95   143   141   ar
    96    76    74   ar
    97   166   165    2
    98   174   172    1
    99   167   164    1
   100    84    83    1
   101   164   165    1
   102   172   169    1
   103   172   173    1
   104   165   168   am
   105   142   141   ar
   106   137   140    1
   107   137   136    1
   108   141   140    1
   109   168   169    1
   110    83    80    1
   111   169   170    1
   112    82    81    2
   113    75    74   ar
   114    80    81    1
   115    80    79    1
   116    74    73    1
   117    67    66    1
   118    72    71    2
   119   115   116    1
   120   115   114    1
   121    79    71   am
   122    71    70    1
   123   170   171    2
   124   170   175   am
   125    73    70    1
   126    68    66    1
   127    66    63    1
   128    65    64    2
   129   114   113    1
   130    70    69    1
   131   113   112    1
   132   132   131    2
   133   175   176    1
   134    63    64    1
   135    63    62    1
   136   131   130    1
   137   112   109    1
   138   120   119    2
   139   176   179    1
   140   176   177    1
   141    62    56   am
   142    57    56    2
   143    53    51   ar
   144    52    51   ar
   145   109   110    1
   146   109   108    1
   147   130   129    1
   148   130   133    1
   149   119   129   am
   150   119   118    1
   151   179   180    1
   152    51    50    1
   153   178   177    2
   154    56    55    1
   155   177   181   am
   156   117   110   am
   157   117   118    1
   158    48    47    2
   159    49    50    1
   160    49    46    1
   161   135   133    1
   162   110   111    2
   163   134   133    1
   164   121   118    1
   165   121   122    1
   166   181   182    1
   167    47    46    1
   168    58    55    1
   169    58    59    1
   170   124   122   ar
   171   124   126   ar
   172    46    45    1
   173    55    54    1
   174   122   123   ar
   175   182   183    1
   176   192   190   am
   177    60    59    1
   178   126   127   ar
   179   191   190    2
   180   190   189    1
   181   188   187    2
   182    59    61    1
   183   189   186    1
   184   186   187    1
   185   186   185    1
   186   123   125   ar
   187   183   184    2
   188   127   125   ar
   189   127   128    1
