@<TRIPOS>MOLECULE
tmp/3ee2A01.pdb
 129 121 0 0 0
SMALL
GASTEIGER

@<TRIPOS>ATOM
      1  N         30.7140   15.4250   43.4140 N.3     7  TYR7       -0.1241
      2  CA        29.2990   15.1360   43.1840 C.3     7  TYR7        0.1605
      3  C         28.5590   16.4400   42.9800 C.2     7  TYR7        0.2264
      4  O         29.1470   17.5430   43.0760 O.2     7  TYR7       -0.2867
      5  CB        28.6960   14.3290   44.3690 C.3     7  TYR7        0.0534
      6  CG        27.3470   13.6370   44.0630 C.ar    7  TYR7       -0.0201
      7  CD1       27.2300   12.7130   43.0020 C.ar    7  TYR7       -0.0009
      8  CD2       26.2120   13.9090   44.8280 C.ar    7  TYR7       -0.0009
      9  CE1       26.0440   12.1310   42.6900 C.ar    7  TYR7        0.0417
     10  CE2       24.9520   13.2900   44.5170 C.ar    7  TYR7        0.0417
     11  CZ        24.9110   12.3870   43.4660 C.ar    7  TYR7        0.1957
     12  OH        23.7350   11.7040   43.1700 O.3     7  TYR7       -0.2866
     13  N         23.8800   17.8780   46.3220 N.3    10  MET10      -0.1245
     14  CA        22.6940   17.0160   46.5360 C.3    10  MET10       0.1570
     15  C         23.1470   15.9620   47.4950 C.2    10  MET10       0.2261
     16  O         24.3350   15.6170   47.4980 O.2    10  MET10      -0.2867
     17  CB        22.3270   16.2590   45.2550 C.3    10  MET10       0.0387
     18  CG        21.2780   16.8830   44.4260 C.3    10  MET10       0.0595
     19  SD        20.6960   15.7150   43.1220 S.3    10  MET10      -0.1393
     20  CE        22.2100   14.8380   42.7800 C.3    10  MET10       0.0692
     21  N         21.7480   12.6250   47.4230 N.3    12  GLY12      -0.1210
     22  CA        21.8330   11.6660   46.3070 C.3    12  GLY12       0.1956
     23  C         22.7450   10.4590   46.6260 C.2    12  GLY12       0.2611
     24  O         22.7010    9.9070   47.7250 O.2    12  GLY12      -0.2717
     25  N         23.5610   10.0860   45.6430 N.am   13  ARG13      -0.1979
     26  CA        24.3940    8.8820   45.6940 C.3    13  ARG13       0.1597
     27  C         25.7370    9.1220   46.4060 C.2    13  ARG13       0.2287
     28  O         26.4780    8.1660   46.6850 O.2    13  ARG13      -0.2864
     29  CB        24.6250    8.3250   44.2530 C.3    13  ARG13       0.0334
     30  CG        23.2900    7.8430   43.5610 C.3    13  ARG13       0.0492
     31  CD        23.5420    6.7630   42.6020 C.3    13  ARG13       0.2205
     32  NE        22.4340    5.8620   42.6510 N.pl3  13  ARG13      -0.0865
     33  CZ        22.4220    4.6850   43.2840 C.cat  13  ARG13       0.5346
     34  NH1       23.5130    4.1780   43.8480 N.pl3  13  ARG13       0.1354
     35  NH2       21.2710    4.0000   43.3070 N.pl3  13  ARG13       0.1354
     36  N         19.1970   -0.2600   47.3260 N.3    95  ASP95      -0.1239
     37  CA        19.6260    0.3960   46.0820 C.3    95  ASP95       0.1674
     38  C         18.8320    0.0110   44.8230 C.2    95  ASP95       0.2266
     39  O         18.5510    0.8570   43.9840 O.2    95  ASP95      -0.2867
     40  CB        21.1300    0.1840   45.8520 C.3    95  ASP95       0.1410
     41  CG        21.7320    1.3050   45.0030 C.2    95  ASP95       0.3668
     42  OD1       21.6750    2.4980   45.4300 O.co2  95  ASP95      -0.2456
     43  OD2       22.1840    0.9910   43.9030 O.co2  95  ASP95      -0.2456
     44  N         15.6700    2.0060   44.9970 N.3    98  MET98      -0.1245
     45  CA        15.9640    3.4170   44.6730 C.3    98  MET98       0.1570
     46  C         16.1710    3.5390   43.1550 C.2    98  MET98       0.2261
     47  O         15.7020    4.5210   42.5260 O.2    98  MET98      -0.2867
     48  CB        17.1680    3.9830   45.4470 C.3    98  MET98       0.0387
     49  CG        16.9820    4.0870   46.9890 C.3    98  MET98       0.0595
     50  SD        15.3460    4.7640   47.4680 S.3    98  MET98      -0.1393
     51  CE        15.7050    6.5120   47.5320 C.3    98  MET98       0.0692
     52  N         14.3030    9.0090   38.0350 N.3   103  TRP103     -0.1227
     53  CA        14.8670   10.2800   38.4940 C.3   103  TRP103      0.1737
     54  C         15.1120   11.2470   37.3420 C.2   103  TRP103      0.2595
     55  O         14.7860   12.4240   37.4670 O.2   103  TRP103     -0.2718
     56  CB        16.1520   10.0500   39.2590 C.3   103  TRP103      0.0564
     57  CG        15.9660    9.1120   40.4050 C.ar  103  TRP103      0.0003
     58  CD1       16.3120    7.7900   40.4410 C.ar  103  TRP103      0.0946
     59  CD2       15.3940    9.4140   41.6790 C.ar  103  TRP103      0.0152
     60  NE1       15.9990    7.2580   41.6630 N.ar  103  TRP103     -0.2442
     61  CE2       15.4420    8.2370   42.4450 C.ar  103  TRP103      0.0810
     62  CE3       14.8470   10.5660   42.2480 C.ar  103  TRP103      0.0012
     63  CZ2       14.9580    8.1730   43.7400 C.ar  103  TRP103      0.0191
     64  CZ3       14.3580   10.4910   43.5470 C.ar  103  TRP103      0.0001
     65  CH2       14.4170    9.3000   44.2710 C.ar  103  TRP103      0.0015
     66  N         15.6090   10.7290   36.2150 N.am  104  ALA104     -0.1980
     67  CA        15.9840   11.5620   35.0580 C.3   104  ALA104      0.1597
     68  C         14.8070   11.9570   34.1790 C.2   104  ALA104      0.2287
     69  O         14.9290   12.8610   33.3490 O.2   104  ALA104     -0.2864
     70  CB        17.0750   10.8600   34.1980 C.3   104  ALA104      0.0319
     71  N         12.1210   13.5280   32.1660 N.3   106  LYS106     -0.1245
     72  CA        11.7850   14.9360   32.0480 C.3   106  LYS106      0.1561
     73  C         10.2950   15.1820   31.7900 C.2   106  LYS106      0.2260
     74  O          9.8090   16.2680   32.1060 O.2   106  LYS106     -0.2867
     75  CB        12.6850   15.6870   31.0440 C.3   106  LYS106      0.0271
     76  CG        14.1950   15.6920   31.3550 C.3   106  LYS106      0.0035
     77  CD        14.5640   16.5920   32.5200 C.3   106  LYS106      0.0206
     78  CE        15.9960   16.3320   33.0090 C.3   106  LYS106      0.1093
     79  NZ        16.0840   16.1580   34.5100 N.3   106  LYS106     -0.1314
     80  N          6.6580   10.8710   34.7870 N.3   111  LYS111     -0.1245
     81  CA         7.4970   10.7770   36.0070 C.3   111  LYS111      0.1561
     82  C          6.6840   10.5900   37.2930 C.2   111  LYS111      0.2260
     83  O          6.9400    9.6800   38.0930 O.2   111  LYS111     -0.2867
     84  CB         8.3480   12.0510   36.2010 C.3   111  LYS111      0.0271
     85  CG         9.0260   12.1660   37.5890 C.3   111  LYS111      0.0035
     86  CD        10.5000   12.0520   37.4930 C.3   111  LYS111      0.0206
     87  CE        11.2200   13.4180   37.3710 C.3   111  LYS111      0.1093
     88  NZ        12.0270   13.8430   38.5650 N.3   111  LYS111     -0.1314
     89  N         22.6650    3.5090   55.1730 N.3   151  TYR151     -0.1241
     90  CA        21.9890    3.5570   53.8620 C.3   151  TYR151      0.1605
     91  C         20.4810    3.4920   53.9780 C.2   151  TYR151      0.2264
     92  O         19.7750    4.1880   53.2240 O.2   151  TYR151     -0.2867
     93  CB        22.4740    2.4490   52.9240 C.3   151  TYR151      0.0534
     94  CG        22.3410    2.8270   51.4580 C.ar  151  TYR151     -0.0201
     95  CD1       22.8440    4.0480   50.9830 C.ar  151  TYR151     -0.0009
     96  CD2       21.7390    1.9750   50.5510 C.ar  151  TYR151     -0.0009
     97  CE1       22.7600    4.3970   49.5780 C.ar  151  TYR151      0.0417
     98  CE2       21.6890    2.3050   49.1650 C.ar  151  TYR151      0.0417
     99  CZ        22.1510    3.5360   48.7040 C.ar  151  TYR151      0.1957
    100  OH        22.0730    3.9000   47.3320 O.3   151  TYR151     -0.2866
    101  N         19.4620    7.0620   54.8980 N.3   154  ILE154     -0.1231
    102  CA        19.6040    7.9100   53.7000 C.3   154  ILE154      0.1692
    103  C         18.4880    7.6660   52.6510 C.2   154  ILE154      0.2592
    104  O         17.8780    8.6200   52.1090 O.2   154  ILE154     -0.2718
    105  CB        21.0150    7.7350   53.0820 C.3   154  ILE154      0.0266
    106  CG1       22.0760    8.4100   53.9910 C.3   154  ILE154      0.0019
    107  CG2       21.0720    8.2970   51.6130 C.3   154  ILE154      0.0020
    108  CD1       23.5230    7.9370   53.6610 C.3   154  ILE154      0.0001
    109  N         18.2780    6.3980   52.2970 N.am  155  CYS155     -0.1970
    110  CA        17.2810    6.0380   51.3120 C.3   155  CYS155      0.1712
    111  C         15.9120    6.4500   51.8390 C.2   155  CYS155      0.2296
    112  O         15.1160    7.0770   51.1310 O.2   155  CYS155     -0.2864
    113  CB        17.2900    4.5330   51.0450 C.3   155  CYS155      0.0983
    114  SG        18.7080    4.0150   50.0060 S.3   155  CYS155     -0.0798
    115  N         15.0250   10.2080   51.5740 N.3   158  THR158     -0.1218
    116  CA        14.6030   10.5730   50.2070 C.3   158  THR158      0.1862
    117  C         13.1820   10.0620   49.9080 C.2   158  THR158      0.2287
    118  O         12.3700   10.8000   49.3310 O.2   158  THR158     -0.2866
    119  CB        15.6210   10.1450   49.1960 C.3   158  THR158      0.1770
    120  OG1       16.8120   10.9650   49.3900 O.3   158  THR158     -0.2211
    121  CG2       15.1040   10.2860   47.7620 C.3   158  THR158      0.0375
    122  N         17.0080   16.6940   47.4450 N.3   198  LEU198     -0.1245
    123  CA        17.4700   15.3050   47.3150 C.3   198  LEU198      0.1561
    124  C         18.9690   15.1490   47.6300 C.2   198  LEU198      0.2260
    125  O         19.6660   16.1380   47.9710 O.2   198  LEU198     -0.2867
    126  CB        17.2050   14.8050   45.8810 C.3   198  LEU198      0.0270
    127  CG        15.7400   14.9510   45.4270 C.3   198  LEU198      0.0019
    128  CD1       15.5900   14.7060   43.9230 C.3   198  LEU198      0.0001
    129  CD2       14.7800   14.0910   46.2310 C.3   198  LEU198      0.0001
@<TRIPOS>BOND
     1    75    76    1
     2    75    72    1
     3    76    77    1
     4    73    72    1
     5    73    74    2
     6    72    71    1
     7    77    78    1
     8    78    79    1
     9    69    68    2
    10    68    67    1
    11    70    67    1
    12    80    81    1
    13    67    66    1
    14    81    84    1
    15    81    82    1
    16    84    85    1
    17    66    54   am
    18    82    83    2
    19    54    55    2
    20    54    53    1
    21    87    86    1
    22    87    88    1
    23    86    85    1
    24    52    53    1
    25    53    56    1
    26    56    57    1
    27    57    58   ar
    28    57    59   ar
    29    58    60   ar
    30    60    61   ar
    31    59    62   ar
    32    59    61   ar
    33    62    64   ar
    34    61    63   ar
    35    47    46    2
    36    31    32    1
    37    31    30    1
    38    32    33    2
    39     9     7   ar
    40     9    11   ar
    41    20    19    1
    42     3     4    2
    43     3     2    1
    44     7     6   ar
    45    19    18    1
    46    46    45    1
    47    12    11    1
    48     2     1    1
    49     2     5    1
    50    33    35    1
    51    33    34    1
    52    11    10   ar
    53    64    65   ar
    54    30    29    1
    55    63    65   ar
    56    43    41   ar
    57   128   127    1
    58    39    38    2
    59     6     5    1
    60     6     8   ar
    61    29    26    1
    62    18    17    1
    63    10     8   ar
    64    45    44    1
    65    45    48    1
    66    38    37    1
    67    41    42   ar
    68    41    40    1
    69    17    14    1
    70   127   126    1
    71   127   129    1
    72    48    49    1
    73    25    26    1
    74    25    23   am
    75    26    27    1
    76    40    37    1
    77   126   123    1
    78    37    36    1
    79    22    23    1
    80    22    21    1
    81    13    14    1
    82    27    28    2
    83    14    15    1
    84    23    24    2
    85    49    50    1
    86   123   122    1
    87   123   124    1
    88   100    99    1
    89    50    51    1
    90    15    16    2
    91   124   125    2
    92   121   119    1
    93    99    98   ar
    94    99    97   ar
    95    98    96   ar
    96   119   120    1
    97   119   116    1
    98   118   117    2
    99    97    95   ar
   100   117   116    1
   101   114   113    1
   102   116   115    1
   103    96    94   ar
   104    95    94   ar
   105   113   110    1
   106   112   111    2
   107   110   111    1
   108   110   109    1
   109    94    93    1
   110   107   105    1
   111   104   103    2
   112   109   103   am
   113   103   102    1
   114    93    90    1
   115   105   102    1
   116   105   106    1
   117    92    91    2
   118   108   106    1
   119   102   101    1
   120    90    91    1
   121    90    89    1
