@<TRIPOS>MOLECULE
tmp/3ee5C01.pdb
 132 132 0 0 0
SMALL
GASTEIGER

@<TRIPOS>ATOM
      1  N         32.3920   10.4760  105.2230 N.3   150  LYS150     -0.1231
      2  CA        31.7730    9.2380  105.6640 C.3   150  LYS150      0.1693
      3  C         32.5130    8.5310  106.7900 C.2   150  LYS150      0.2592
      4  O         31.9350    7.6630  107.4460 O.2   150  LYS150     -0.2718
      5  CB        31.5540    8.3030  104.4530 C.3   150  LYS150      0.0285
      6  CG        32.4320    7.0690  104.3770 C.3   150  LYS150      0.0035
      7  CD        32.0530    6.2490  103.1380 C.3   150  LYS150      0.0206
      8  CE        32.9830    5.0530  102.9590 C.3   150  LYS150      0.1093
      9  NZ        32.8430    4.4240  101.6150 N.3   150  LYS150     -0.1314
     10  N         33.7770    8.8920  107.0240 N.am  151  PHE151     -0.1976
     11  CA        34.5650    8.2900  108.1130 C.3   151  PHE151      0.1639
     12  C         34.8490    9.2740  109.2600 C.2   151  PHE151      0.2290
     13  O         35.7580    9.0810  110.0720 O.2   151  PHE151     -0.2864
     14  CB        35.8850    7.7360  107.5800 C.3   151  PHE151      0.0560
     15  CG        35.7330    6.4730  106.7880 C.ar  151  PHE151     -0.0200
     16  CD1       36.5960    6.1900  105.7410 C.ar  151  PHE151     -0.0042
     17  CD2       34.7120    5.5660  107.0820 C.ar  151  PHE151     -0.0042
     18  CE1       36.4510    5.0300  104.9900 C.ar  151  PHE151     -0.0003
     19  CE2       34.5600    4.4070  106.3380 C.ar  151  PHE151     -0.0003
     20  CZ        35.4330    4.1370  105.2870 C.ar  151  PHE151     -0.0000
     21  N         39.5930    5.6230  108.9140 N.3   156  PRO156     -0.2102
     22  CA        38.7840    4.7480  109.7670 C.3   156  PRO156      0.1504
     23  C         39.6910    3.8810  110.6270 C.2   156  PRO156      0.2575
     24  O         39.2620    3.2750  111.5920 O.2   156  PRO156     -0.2718
     25  CB        37.9450    3.9510  108.7650 C.3   156  PRO156      0.0282
     26  CG        38.7830    3.9670  107.5100 C.3   156  PRO156      0.0208
     27  CD        39.3530    5.3630  107.4850 C.3   156  PRO156      0.0893
     28  N         40.9550    3.8100  110.2540 N.am  157  TYR157     -0.1977
     29  CA        41.9680    3.0550  110.9960 C.3   157  TYR157      0.1639
     30  C         43.2740    3.3670  110.2810 C.2   157  TYR157      0.2290
     31  O         43.2940    3.6190  109.0720 O.2   157  TYR157     -0.2864
     32  CB        41.6480    1.5450  111.0920 C.3   157  TYR157      0.0560
     33  CG        41.4660    0.7870  109.7930 C.ar  157  TYR157     -0.0198
     34  CD1       42.5350    0.1200  109.1940 C.ar  157  TYR157     -0.0009
     35  CD2       40.2160    0.7360  109.1680 C.ar  157  TYR157     -0.0009
     36  CE1       42.3650   -0.5850  107.9890 C.ar  157  TYR157      0.0417
     37  CE2       40.0330    0.0470  107.9770 C.ar  157  TYR157      0.0417
     38  CZ        41.1110   -0.6100  107.3880 C.ar  157  TYR157      0.1957
     39  OH        40.9240   -1.2460  106.1880 O.3   157  TYR157     -0.2866
     40  N         44.3940    1.8040  106.8700 N.3   160  TYR160     -0.1241
     41  CA        43.4210    1.8940  105.7960 C.3   160  TYR160      0.1605
     42  C         44.0990    2.4740  104.5390 C.2   160  TYR160      0.2264
     43  O         44.7630    3.5060  104.6040 O.2   160  TYR160     -0.2867
     44  CB        42.2800    2.8030  106.2120 C.3   160  TYR160      0.0534
     45  CG        41.2870    3.0770  105.1100 C.ar  160  TYR160     -0.0201
     46  CD1       40.4700    2.0560  104.6090 C.ar  160  TYR160     -0.0009
     47  CD2       41.1520    4.3580  104.5730 C.ar  160  TYR160     -0.0009
     48  CE1       39.5320    2.3200  103.5990 C.ar  160  TYR160      0.0417
     49  CE2       40.2260    4.6260  103.5640 C.ar  160  TYR160      0.0417
     50  CZ        39.4220    3.6080  103.0890 C.ar  160  TYR160      0.1957
     51  OH        38.4950    3.8700  102.1250 O.3   160  TYR160     -0.2866
     52  N         42.2080    2.2420  101.3340 N.3   162  GLY162     -0.1225
     53  CA        41.2110    2.2370  100.2740 C.3   162  GLY162      0.1811
     54  C         40.7450    3.6080   99.7880 C.2   162  GLY162      0.2280
     55  O         41.2780    4.6220  100.1990 O.2   162  GLY162     -0.2866
     56  N         32.5890   -7.2450   98.0980 N.3   185  TRP185     -0.1227
     57  CA        33.1320   -6.1980   98.9730 C.3   185  TRP185      0.1737
     58  C         34.0730   -6.6340  100.1060 C.2   185  TRP185      0.2596
     59  O         33.8770   -7.6930  100.7360 O.2   185  TRP185     -0.2718
     60  CB        31.9680   -5.4220   99.5910 C.3   185  TRP185      0.0564
     61  CG        32.3710   -4.2130  100.3590 C.ar  185  TRP185      0.0003
     62  CD1       32.3420   -2.9130   99.9250 C.ar  185  TRP185      0.0946
     63  CD2       32.8500   -4.1780  101.7110 C.ar  185  TRP185      0.0152
     64  NE1       32.7700   -2.0750  100.9260 N.ar  185  TRP185     -0.2442
     65  CE2       33.0890   -2.8250  102.0320 C.ar  185  TRP185      0.0810
     66  CE3       33.0960   -5.1620  102.6870 C.ar  185  TRP185      0.0012
     67  CZ2       33.5660   -2.4300  103.2870 C.ar  185  TRP185      0.0191
     68  CZ3       33.5690   -4.7680  103.9360 C.ar  185  TRP185      0.0001
     69  CH2       33.7990   -3.4110  104.2210 C.ar  185  TRP185      0.0015
     70  N         35.0960   -5.8060  100.3490 N.am  186  GLY186     -0.1942
     71  CA        36.0240   -6.0350  101.4470 C.3   186  GLY186      0.2014
     72  C         37.3970   -6.6570  101.3140 C.2   186  GLY186      0.2639
     73  O         37.6260   -7.5420  100.4980 O.2   186  GLY186     -0.2714
     74  N         38.3100   -6.1670  102.1510 N.am  187  GLY187     -0.1939
     75  CA        39.6820   -6.6620  102.2370 C.3   187  GLY187      0.2014
     76  C         40.7240   -6.5910  101.1360 C.2   187  GLY187      0.2639
     77  O         41.9080   -6.8000  101.4240 O.2   187  GLY187     -0.2714
     78  N         40.3440   -6.3120   99.8910 N.am  188  GLU188     -0.1963
     79  CA        41.3670   -6.2650   98.8420 C.3   188  GLU188      0.1733
     80  C         42.3230   -5.0810   99.0440 C.2   188  GLU188      0.2616
     81  O         43.5150   -5.1960   98.7620 O.2   188  GLU188     -0.2715
     82  CB        40.7390   -6.2190   97.4340 C.3   188  GLU188      0.0429
     83  CG        40.4360   -4.8460   96.9140 C.3   188  GLU188      0.1163
     84  CD        39.3320   -4.1860   97.6770 C.2   188  GLU188      0.3649
     85  OE1       39.0360   -3.0130   97.3790 O.co2 188  GLU188     -0.2457
     86  OE2       38.7570   -4.8440   98.5700 O.co2 188  GLU188     -0.2457
     87  N         41.8040   -3.9620   99.5460 N.am  189  ASP189     -0.1957
     88  CA        42.6390   -2.7760   99.8020 C.3   189  ASP189      0.1840
     89  C         43.5940   -3.0710  100.9440 C.2   189  ASP189      0.2622
     90  O         44.7420   -2.6130  100.9570 O.2   189  ASP189     -0.2715
     91  CB        41.7620   -1.5560  100.1250 C.3   189  ASP189      0.1450
     92  CG        40.6840   -1.8520  101.1740 C.2   189  ASP189      0.3671
     93  OD1       40.2360   -3.0270  101.2830 O.co2 189  ASP189     -0.2456
     94  OD2       40.2740   -0.8930  101.8780 O.co2 189  ASP189     -0.2456
     95  N         43.1280   -3.8720  101.8990 N.am  190  ASP190     -0.1971
     96  CA        43.9740   -4.2540  103.0210 C.3   190  ASP190      0.1709
     97  C         45.0820   -5.1890  102.5140 C.2   190  ASP190      0.2293
     98  O         46.2410   -5.1320  102.9530 O.2   190  ASP190     -0.2864
     99  CB        43.1270   -4.9470  104.1110 C.3   190  ASP190      0.1436
    100  CG        42.1050   -4.0110  104.7290 C.2   190  ASP190      0.3671
    101  OD1       42.4650   -2.8570  105.0380 O.co2 190  ASP190     -0.2456
    102  OD2       40.9480   -4.4130  104.9210 O.co2 190  ASP190     -0.2456
    103  N         37.4040  -12.9560  103.2860 N.3   230  ARG230     -0.1231
    104  CA        38.3870  -11.8790  103.1720 C.3   230  ARG230      0.1694
    105  C         39.3860  -11.8390  104.3260 C.2   230  ARG230      0.2592
    106  O         40.5830  -11.6090  104.1140 O.2   230  ARG230     -0.2718
    107  CB        37.6810  -10.5230  103.0530 C.3   230  ARG230      0.0321
    108  CG        36.8850  -10.0940  104.2700 C.3   230  ARG230      0.0489
    109  CD        36.0220   -8.8890  103.9200 C.3   230  ARG230      0.2205
    110  NE        35.3120   -8.3590  105.0800 N.pl3 230  ARG230     -0.0865
    111  CZ        34.0580   -8.6560  105.4110 C.cat 230  ARG230      0.5346
    112  NH1       33.3280   -9.4870  104.6700 N.pl3 230  ARG230      0.1354
    113  NH2       33.5350   -8.1240  106.5050 N.pl3 230  ARG230      0.1354
    114  N         38.9010  -12.0700  105.5440 N.am  231  PHE231     -0.1976
    115  CA        39.7890  -12.0340  106.6940 C.3   231  PHE231      0.1639
    116  C         40.8600  -13.0920  106.6000 C.2   231  PHE231      0.2290
    117  O         42.0210  -12.8490  106.9680 O.2   231  PHE231     -0.2864
    118  CB        38.9950  -12.1780  107.9810 C.3   231  PHE231      0.0560
    119  CG        37.9880  -11.0950  108.1640 C.ar  231  PHE231     -0.0200
    120  CD1       36.6380  -11.3390  107.9570 C.ar  231  PHE231     -0.0042
    121  CD2       38.3960   -9.7990  108.4610 C.ar  231  PHE231     -0.0042
    122  CE1       35.7040  -10.3030  108.0370 C.ar  231  PHE231     -0.0003
    123  CE2       37.4630   -8.7560  108.5420 C.ar  231  PHE231     -0.0003
    124  CZ        36.1180   -9.0110  108.3290 C.ar  231  PHE231     -0.0000
    125  N         43.4800  -11.8730  103.7860 N.3   234  ILE234     -0.1245
    126  CA        44.4930  -10.8680  104.1080 C.3   234  ILE234      0.1561
    127  C         45.5960  -11.4050  105.0180 C.2   234  ILE234      0.2260
    128  O         46.7040  -10.8560  105.0610 O.2   234  ILE234     -0.2867
    129  CB        43.8550   -9.5840  104.7210 C.3   234  ILE234      0.0252
    130  CG1       43.3030   -9.8600  106.1220 C.3   234  ILE234      0.0019
    131  CG2       42.7290   -9.0770  103.8050 C.3   234  ILE234      0.0019
    132  CD1       42.5640   -8.6560  106.7520 C.3   234  ILE234      0.0001
@<TRIPOS>BOND
     1    83    82    1
     2    83    84    1
     3    85    84   ar
     4    82    79    1
     5    84    86   ar
     6    56    57    1
     7    81    80    2
     8    79    80    1
     9    79    78    1
    10    57    60    1
    11    57    58    1
    12    80    87   am
    13    87    88    1
    14    60    61    1
    15    54    55    2
    16    54    53    1
    17    88    91    1
    18    88    89    1
    19    78    76   am
    20    62    61   ar
    21    62    64   ar
    22    58    70   am
    23    58    59    2
    24    91    92    1
    25    53    52    1
    26    70    71    1
    27    61    63   ar
    28    73    72    2
    29    64    65   ar
    30    89    90    2
    31    89    95   am
    32    76    77    2
    33    76    75    1
    34    92    93   ar
    35    92    94   ar
    36    72    71    1
    37    72    74   am
    38     9     8    1
    39    63    65   ar
    40    63    66   ar
    41    95    96    1
    42    65    67   ar
    43    51    50    1
    44    74    75    1
    45    97    98    2
    46    97    96    1
    47    66    68   ar
    48     8     7    1
    49    96    99    1
    50   107   104    1
    51   107   108    1
    52    50    49   ar
    53    50    48   ar
    54     7     6    1
    55   104   103    1
    56   104   105    1
    57    67    69   ar
    58    49    47   ar
    59    48    46   ar
    60   125   126    1
    61   131   129    1
    62   109   108    1
    63   109   110    1
    64    68    69   ar
    65   126   129    1
    66   126   127    1
    67    99   100    1
    68   106   105    2
    69   105   114   am
    70     6     5    1
    71     5     2    1
    72    42    43    2
    73    42    41    1
    74    47    45   ar
    75    46    45   ar
    76   112   111    1
    77   129   130    1
    78   100   102   ar
    79   100   101   ar
    80    18    20   ar
    81    18    16   ar
    82   127   128    2
    83   110   111    2
    84    45    44    1
    85     1     2    1
    86    20    19   ar
    87   111   113    1
    88   114   115    1
    89     2     3    1
    90    16    15   ar
    91    41    44    1
    92    41    40    1
    93   130   132    1
    94    39    38    1
    95    19    17   ar
    96   116   115    1
    97   116   117    2
    98   115   118    1
    99    15    17   ar
   100    15    14    1
   101     3    10   am
   102     3     4    2
   103    10    11    1
   104    38    37   ar
   105    38    36   ar
   106    27    26    1
   107    27    21    1
   108    26    25    1
   109    14    11    1
   110   120   122   ar
   111   120   119   ar
   112    37    35   ar
   113   118   119    1
   114    36    34   ar
   115   122   124   ar
   116    11    12    1
   117   119   121   ar
   118   124   123   ar
   119   121   123   ar
   120    25    22    1
   121    21    22    1
   122    31    30    2
   123    35    33   ar
   124    34    33   ar
   125    12    13    2
   126    22    23    1
   127    33    32    1
   128    28    23   am
   129    28    29    1
   130    30    29    1
   131    23    24    2
   132    29    32    1
