@<TRIPOS>MOLECULE
tmp/3ee5C00.pdb
 178 176 0 0 0
SMALL
GASTEIGER

@<TRIPOS>ATOM
      1  N         37.3170    1.6330   89.0970 N.3    58  PRO58      -0.2102
      2  CA        36.6550    0.3180   88.9990 C.3    58  PRO58       0.1504
      3  C         35.1880    0.6860   88.8150 C.2    58  PRO58       0.2576
      4  O         34.6820    1.5420   89.5460 O.2    58  PRO58      -0.2718
      5  CB        36.9330   -0.3170   90.3600 C.3    58  PRO58       0.0282
      6  CG        36.9510    0.9020   91.2770 C.3    58  PRO58       0.0208
      7  CD        37.7510    1.9070   90.4750 C.3    58  PRO58       0.0893
      8  N         34.4960    0.0470   87.8770 N.am   59  PHE59      -0.1963
      9  CA        33.1360    0.4560   87.5840 C.3    59  PHE59       0.1771
     10  C         32.1000   -0.5740   87.0920 C.2    59  PHE59       0.2619
     11  O         32.4300   -1.5420   86.3990 O.2    59  PHE59      -0.2715
     12  CB        33.2570    1.5590   86.5240 C.3    59  PHE59       0.0574
     13  CG        31.9650    2.1750   86.1100 C.ar   59  PHE59      -0.0200
     14  CD1       31.4950    3.3180   86.7430 C.ar   59  PHE59      -0.0042
     15  CD2       31.2560    1.6690   85.0290 C.ar   59  PHE59      -0.0042
     16  CE1       30.3320    3.9700   86.2970 C.ar   59  PHE59      -0.0003
     17  CE2       30.0930    2.2990   84.5680 C.ar   59  PHE59      -0.0003
     18  CZ        29.6320    3.4630   85.2090 C.ar   59  PHE59      -0.0000
     19  N         30.8410   -0.3180   87.4460 N.am   60  ARG60      -0.1963
     20  CA        29.6820   -1.0800   86.9930 C.3    60  ARG60       0.1729
     21  C         28.4090   -0.4690   87.5300 C.2    60  ARG60       0.2616
     22  O         28.1870   -0.4170   88.7410 O.2    60  ARG60      -0.2715
     23  CB        29.6980   -2.5660   87.3620 C.3    60  ARG60       0.0348
     24  CG        28.4770   -3.2750   86.6760 C.3    60  ARG60       0.0492
     25  CD        28.5070   -4.7940   86.6980 C.3    60  ARG60       0.2205
     26  NE        28.3490   -5.3320   88.0460 N.pl3  60  ARG60      -0.0865
     27  CZ        28.7060   -6.5630   88.3960 C.cat  60  ARG60       0.5346
     28  NH1       28.5430   -6.9770   89.6380 N.pl3  60  ARG60       0.1354
     29  NH2       29.2220   -7.3850   87.4960 N.pl3  60  ARG60       0.1354
     30  N         27.5820    0.0000   86.6090 N.am   61  ASN61      -0.1958
     31  CA        26.3130    0.6230   86.9330 C.3    61  ASN61       0.1819
     32  C         26.3860    1.7590   87.9790 C.2    61  ASN61       0.2621
     33  O         25.5810    1.8110   88.9010 O.2    61  ASN61      -0.2715
     34  CB        25.3100   -0.4570   87.3730 C.3    61  ASN61       0.1195
     35  CG        23.8780    0.0540   87.4070 C.2    61  ASN61       0.2630
     36  OD1       23.4750    0.8540   86.5670 O.2    61  ASN61      -0.2716
     37  ND2       23.1010   -0.4130   88.3730 N.am   61  ASN61      -0.0877
     38  N         27.3540    2.6610   87.8250 N.am   62  ARG62      -0.1977
     39  CA        27.5070    3.8220   88.7140 C.3    62  ARG62       0.1597
     40  C         27.6510    5.0650   87.8360 C.2    62  ARG62       0.2287
     41  O         28.4510    5.9520   88.1220 O.2    62  ARG62      -0.2864
     42  CB        28.7520    3.6950   89.5870 C.3    62  ARG62       0.0334
     43  CG        28.6580    2.7220   90.7350 C.3    62  ARG62       0.0492
     44  CD        27.6090    3.1060   91.7690 C.3    62  ARG62       0.2205
     45  NE        27.8510    2.3400   92.9830 N.pl3  62  ARG62      -0.0865
     46  CZ        28.8240    2.6050   93.8450 C.cat  62  ARG62       0.5346
     47  NH1       29.6330    3.6290   93.6340 N.pl3  62  ARG62       0.1354
     48  NH2       29.0170    1.8290   94.8930 N.pl3  62  ARG62       0.1354
     49  N         31.1230   -8.7340   91.7120 N.3    97  PHE97      -0.1241
     50  CA        32.1240   -7.6970   91.4450 C.3    97  PHE97       0.1605
     51  C         33.5360   -8.0300   91.9440 C.2    97  PHE97       0.2264
     52  O         33.7140   -8.6630   92.9840 O.2    97  PHE97      -0.2867
     53  CB        31.6400   -6.3990   92.0920 C.3    97  PHE97       0.0534
     54  CG        32.2220   -5.1430   91.4940 C.ar   97  PHE97      -0.0203
     55  CD1       31.8520   -4.7260   90.2160 C.ar   97  PHE97      -0.0042
     56  CD2       33.1170   -4.3500   92.2350 C.ar   97  PHE97      -0.0042
     57  CE1       32.3620   -3.5220   89.6780 C.ar   97  PHE97      -0.0003
     58  CE2       33.6270   -3.1680   91.7150 C.ar   97  PHE97      -0.0003
     59  CZ        33.2520   -2.7470   90.4400 C.ar   97  PHE97      -0.0000
     60  N         36.4850   -5.6320   92.3960 N.3    99  ARG99      -0.1245
     61  CA        37.1480   -4.3220   92.3800 C.3    99  ARG99       0.1563
     62  C         38.6160   -4.3390   92.0060 C.2    99  ARG99       0.2260
     63  O         39.0330   -3.6810   91.0460 O.2    99  ARG99      -0.2867
     64  CB        36.9950   -3.6230   93.7510 C.3    99  ARG99       0.0307
     65  CG        37.7730   -2.2930   93.8940 C.3    99  ARG99       0.0489
     66  CD        37.3180   -1.4630   95.1160 C.3    99  ARG99       0.2205
     67  NE        37.9640   -0.1610   95.0720 N.pl3  99  ARG99      -0.0865
     68  CZ        39.2380    0.0570   95.3870 C.cat  99  ARG99       0.5346
     69  NH1       40.0210   -0.9250   95.8100 N.pl3  99  ARG99       0.1354
     70  NH2       39.7660    1.2540   95.1840 N.pl3  99  ARG99       0.1354
     71  N         37.8220    5.1680   93.5530 N.3   123  ASP123     -0.1225
     72  CA        36.4550    4.6940   93.5400 C.3   123  ASP123      0.1805
     73  C         35.7370    5.8200   92.8240 C.2   123  ASP123      0.2598
     74  O         36.1960    6.9680   92.8190 O.2   123  ASP123     -0.2718
     75  CB        35.9180    4.4560   94.9760 C.3   123  ASP123      0.1424
     76  CG        36.4720    3.1590   95.5960 C.2   123  ASP123      0.3668
     77  OD1       37.0010    2.3250   94.8210 O.co2 123  ASP123     -0.2456
     78  OD2       36.3840    2.9510   96.8390 O.co2 123  ASP123     -0.2456
     79  N         34.6100    5.4960   92.2100 N.am  124  VAL124     -0.1966
     80  CA        33.8810    6.4600   91.4100 C.3   124  VAL124      0.1727
     81  C         33.0980    7.5070   92.2030 C.2   124  VAL124      0.2616
     82  O         32.6360    8.5070   91.6510 O.2   124  VAL124     -0.2715
     83  CB        32.9080    5.7030   90.4890 C.3   124  VAL124      0.0290
     84  CG1       31.7530    5.1290   91.3260 C.3   124  VAL124      0.0023
     85  CG2       32.4020    6.6090   89.3890 C.3   124  VAL124      0.0023
     86  N         32.9580    7.2750   93.4970 N.am  125  ASP125     -0.1971
     87  CA        32.1740    8.1660   94.3400 C.3   125  ASP125      0.1709
     88  C         32.9870    8.9650   95.3590 C.2   125  ASP125      0.2293
     89  O         32.4710    9.3330   96.4160 O.2   125  ASP125     -0.2864
     90  CB        31.0950    7.3500   95.0590 C.3   125  ASP125      0.1436
     91  CG        31.6590    6.1490   95.7940 C.2   125  ASP125      0.3671
     92  OD1       32.8810    6.1300   96.0760 O.co2 125  ASP125     -0.2456
     93  OD2       30.8750    5.2250   96.1270 O.co2 125  ASP125     -0.2456
     94  N         32.3920   10.4760  105.2230 N.3   150  LYS150     -0.1245
     95  CA        31.7730    9.2380  105.6640 C.3   150  LYS150      0.1561
     96  C         32.5130    8.5310  106.7900 C.2   150  LYS150      0.2260
     97  O         31.9350    7.6630  107.4460 O.2   150  LYS150     -0.2867
     98  CB        31.5540    8.3030  104.4530 C.3   150  LYS150      0.0271
     99  CG        32.4320    7.0690  104.3770 C.3   150  LYS150      0.0035
    100  CD        32.0530    6.2490  103.1380 C.3   150  LYS150      0.0206
    101  CE        32.9830    5.0530  102.9590 C.3   150  LYS150      0.1093
    102  NZ        32.8430    4.4240  101.6150 N.3   150  LYS150     -0.1314
    103  N         32.5890   -7.2450   98.0980 N.3   185  TRP185     -0.1241
    104  CA        33.1320   -6.1980   98.9730 C.3   185  TRP185      0.1605
    105  C         34.0730   -6.6340  100.1060 C.2   185  TRP185      0.2264
    106  O         33.8770   -7.6930  100.7360 O.2   185  TRP185     -0.2867
    107  CB        31.9680   -5.4220   99.5910 C.3   185  TRP185      0.0550
    108  CG        32.3710   -4.2130  100.3590 C.ar  185  TRP185      0.0003
    109  CD1       32.3420   -2.9130   99.9250 C.ar  185  TRP185      0.0946
    110  CD2       32.8500   -4.1780  101.7110 C.ar  185  TRP185      0.0152
    111  NE1       32.7700   -2.0750  100.9260 N.ar  185  TRP185     -0.2442
    112  CE2       33.0890   -2.8250  102.0320 C.ar  185  TRP185      0.0810
    113  CE3       33.0960   -5.1620  102.6870 C.ar  185  TRP185      0.0012
    114  CZ2       33.5660   -2.4300  103.2870 C.ar  185  TRP185      0.0191
    115  CZ3       33.5690   -4.7680  103.9360 C.ar  185  TRP185      0.0001
    116  CH2       33.7990   -3.4110  104.2210 C.ar  185  TRP185      0.0015
    117  N         32.3300   11.6310   99.9020 N.3   215  HIS215     -0.1241
    118  CA        31.8320   10.3610   99.3830 C.3   215  HIS215      0.1621
    119  C         30.3580   10.4930   99.0110 C.2   215  HIS215      0.2264
    120  O         29.5300   10.8640   99.8490 O.2   215  HIS215     -0.2867
    121  CB        31.9930    9.2870  100.4510 C.3   215  HIS215      0.0745
    122  CG        31.3930    7.9700  100.0860 C.ar  215  HIS215      0.0817
    123  ND1       30.0360    7.7830   99.9340 N.ar  215  HIS215     -0.2268
    124  CD2       31.9670    6.7650   99.8550 C.ar  215  HIS215      0.1154
    125  CE1       29.8030    6.5220   99.6290 C.ar  215  HIS215      0.1986
    126  NE2       30.9580    5.8830   99.5760 N.ar  215  HIS215     -0.2212
    127  N         25.3580    6.5250   99.1380 N.3   218  HIS218     -0.1226
    128  CA        24.6400    5.5530   98.3030 C.3   218  HIS218      0.1752
    129  C         24.3410    4.2290   99.0010 C.2   218  HIS218      0.2597
    130  O         25.0130    3.8390   99.9470 O.2   218  HIS218     -0.2718
    131  CB        25.4490    5.2590   97.0360 C.3   218  HIS218      0.0759
    132  CG        26.7460    4.5750   97.3110 C.ar  218  HIS218      0.0818
    133  ND1       26.8270    3.2420   97.6480 N.ar  218  HIS218     -0.2268
    134  CD2       28.0100    5.0540   97.3640 C.ar  218  HIS218      0.1154
    135  CE1       28.0840    2.9280   97.9000 C.ar  218  HIS218      0.1986
    136  NE2       28.8240    4.0130   97.7340 N.ar  218  HIS218     -0.2212
    137  N         23.3470    3.5140   98.5000 N.am  219  SER219     -0.1938
    138  CA        22.9760    2.2270   99.0870 C.3   219  SER219      0.2055
    139  C         23.7300    1.0720   98.4340 C.2   219  SER219      0.2643
    140  O         24.4390    1.2620   97.4390 O.2   219  SER219     -0.2714
    141  CB        21.4790    2.0080   98.9490 C.3   219  SER219      0.2130
    142  OG        21.0880    2.2420   97.6120 O.3   219  SER219     -0.2179
    143  N         23.5790   -0.1210   99.0080 N.am  220  ARG220     -0.1963
    144  CA        24.2510   -1.3180   98.5080 C.3   220  ARG220      0.1729
    145  C         24.0220   -1.6320   97.0290 C.2   220  ARG220      0.2616
    146  O         22.9380   -1.4050   96.4830 O.2   220  ARG220     -0.2715
    147  CB        23.8480   -2.5380   99.3490 C.3   220  ARG220      0.0348
    148  CG        24.5290   -2.6030  100.6980 C.3   220  ARG220      0.0492
    149  CD        23.6290   -3.2340  101.7580 C.3   220  ARG220      0.2205
    150  NE        23.7210   -2.5180  103.0340 N.pl3 220  ARG220     -0.0865
    151  CZ        24.8380   -2.3970  103.7570 C.cat 220  ARG220      0.5346
    152  NH1       25.9690   -2.9510  103.3370 N.pl3 220  ARG220      0.1354
    153  NH2       24.8280   -1.7020  104.8970 N.pl3 220  ARG220      0.1354
    154  N         25.0720   -2.1310   96.3830 N.am  221  ASP221     -0.1957
    155  CA        24.9860   -2.5280   94.9830 C.3   221  ASP221      0.1840
    156  C         24.7100   -4.0100   95.1000 C.2   221  ASP221      0.2621
    157  O         25.2920   -4.6840   95.9580 O.2   221  ASP221     -0.2715
    158  CB        26.3240   -2.3860   94.2300 C.3   221  ASP221      0.1450
    159  CG        26.7880   -0.9440   94.0690 C.2   221  ASP221      0.3671
    160  OD1       27.8720   -0.6280   94.6080 O.co2 221  ASP221     -0.2456
    161  OD2       26.0990   -0.1440   93.3970 O.co2 221  ASP221     -0.2456
    162  N         23.8310   -4.5380   94.2640 N.am  222  LYS222     -0.1977
    163  CA        23.6030   -5.9670   94.3530 C.3   222  LYS222      0.1596
    164  C         24.8310   -6.5920   93.7020 C.2   222  LYS222      0.2287
    165  O         25.5250   -5.9250   92.9360 O.2   222  LYS222     -0.2864
    166  CB        22.3220   -6.3760   93.6150 C.3   222  LYS222      0.0298
    167  CG        21.4030   -7.2510   94.4720 C.3   222  LYS222      0.0038
    168  CD        22.1950   -8.3920   95.1360 C.3   222  LYS222      0.0206
    169  CE        21.3830   -9.0880   96.2080 C.3   222  LYS222      0.1093
    170  NZ        22.2340  -10.0220   96.9990 N.3   222  LYS222     -0.1314
    171  N         27.6980   -7.5740   95.1610 N.3   224  ASN224     -0.1240
    172  CA        28.9720   -7.1680   95.7380 C.3   224  ASN224      0.1653
    173  C         28.8750   -7.2950   97.2520 C.2   224  ASN224      0.2266
    174  O         29.2950   -6.4140   97.9920 O.2   224  ASN224     -0.2867
    175  CB        29.3190   -5.7250   95.3400 C.3   224  ASN224      0.1155
    176  CG        30.7680   -5.3580   95.6650 C.2   224  ASN224      0.2627
    177  OD1       31.6800   -6.1710   95.4960 O.2   224  ASN224     -0.2716
    178  ND2       30.9820   -4.1300   96.1210 N.am  224  ASN224     -0.0877
@<TRIPOS>BOND
     1    17    15   ar
     2    17    18   ar
     3    15    13   ar
     4    18    16   ar
     5    13    12    1
     6    13    14   ar
     7    16    14   ar
     8    11    10    2
     9    12     9    1
    10    36    35    2
    11    30    31    1
    12    30    21   am
    13    24    25    1
    14    24    23    1
    15    25    26    1
    16    31    34    1
    17    31    32    1
    18    20    23    1
    19    20    19    1
    20    20    21    1
    21    10    19   am
    22    10     9    1
    23    34    35    1
    24    35    37   am
    25    29    27    1
    26    21    22    2
    27     9     8    1
    28    38    32   am
    29    38    39    1
    30    40    41    2
    31    40    39    1
    32     8     3   am
    33    32    33    2
    34    26    27    2
    35    27    28    1
    36    39    42    1
    37     3     2    1
    38     3     4    2
    39     2     1    1
    40     2     5    1
    41     1     7    1
    42    85    83    1
    43    42    43    1
    44    57    55   ar
    45    57    59   ar
    46    55    54   ar
    47     5     6    1
    48    59    58   ar
    49     7     6    1
    50    83    84    1
    51    83    80    1
    52    43    44    1
    53    63    62    2
    54    80    81    1
    55    80    79    1
    56    50    49    1
    57    50    51    1
    58    50    53    1
    59    54    53    1
    60    54    56   ar
    61    82    81    2
    62    58    56   ar
    63    44    45    1
    64    51    52    2
    65    62    61    1
    66    81    86   am
    67    79    73   am
    68    61    60    1
    69    61    64    1
    70    74    73    2
    71    73    72    1
    72   165   164    2
    73    45    46    2
    74   161   159   ar
    75    86    87    1
    76    72    71    1
    77    72    75    1
    78   166   163    1
    79   166   167    1
    80    47    46    1
    81   164   163    1
    82    64    65    1
    83    46    48    1
    84    65    66    1
    85   159   158    1
    86   159   160   ar
    87   158   155    1
    88   162   163    1
    89   162   156   am
    90    87    90    1
    91    87    88    1
    92   167   168    1
    93    77    76   ar
    94    75    76    1
    95   155   156    1
    96   155   154    1
    97    90    91    1
    98    67    66    1
    99    67    68    2
   100   156   157    2
   101   168   169    1
   102   171   172    1
   103    70    68    1
   104   175   176    1
   105   175   172    1
   106    88    89    2
   107    68    69    1
   108   177   176    2
   109    76    78   ar
   110   176   178   am
   111   172   173    1
   112    91    92   ar
   113    91    93   ar
   114   169   170    1
   115   154   145   am
   116   146   145    2
   117   145   144    1
   118   131   132    1
   119   131   128    1
   120   173   174    2
   121   132   134   ar
   122   132   133   ar
   123   134   136   ar
   124   140   139    2
   125   142   141    1
   126   133   135   ar
   127   136   135   ar
   128   103   104    1
   129   128   129    1
   130   128   127    1
   131   139   143   am
   132   139   138    1
   133   137   129   am
   134   137   138    1
   135   144   143    1
   136   144   147    1
   137   141   138    1
   138   104   107    1
   139   104   105    1
   140   129   130    2
   141   119   118    1
   142   119   120    2
   143   147   148    1
   144   118   117    1
   145   118   121    1
   146   126   125   ar
   147   126   124   ar
   148   107   108    1
   149   125   123   ar
   150   124   122   ar
   151   109   108   ar
   152   109   111   ar
   153   123   122   ar
   154   122   121    1
   155   105   106    2
   156   108   110   ar
   157   148   149    1
   158   111   112   ar
   159   102   101    1
   160   110   112   ar
   161   110   113   ar
   162   149   150    1
   163   112   114   ar
   164   113   115   ar
   165   101   100    1
   166   150   151    2
   167   100    99    1
   168   114   116   ar
   169   152   151    1
   170   151   153    1
   171   115   116   ar
   172    99    98    1
   173    98    95    1
   174    94    95    1
   175    95    96    1
   176    96    97    2
