@<TRIPOS>MOLECULE
tmp/3eeaA00.pdb
 203 195 0 0 0
SMALL
GASTEIGER

@<TRIPOS>ATOM
      1  N          4.1310   -4.2720   -5.7960 N.3    27  ARG27      -0.1231
      2  CA         4.6210   -3.5420   -6.9580 C.3    27  ARG27       0.1694
      3  C          5.2350   -2.1890   -6.5520 C.2    27  ARG27       0.2592
      4  O          6.3340   -1.7850   -7.0030 O.2    27  ARG27      -0.2718
      5  CB         3.4730   -3.3750   -7.9080 C.3    27  ARG27       0.0321
      6  CG         3.7770   -2.6770   -9.2090 C.3    27  ARG27       0.0489
      7  CD         2.5050   -2.4660   -9.9450 C.3    27  ARG27       0.2205
      8  NE         2.7200   -1.6720  -11.1430 N.pl3  27  ARG27      -0.0865
      9  CZ         3.1230   -2.1840  -12.3100 C.cat  27  ARG27       0.5346
     10  NH1        3.3980   -3.4870  -12.4200 N.pl3  27  ARG27       0.1354
     11  NH2        3.2880   -1.3820  -13.3550 N.pl3  27  ARG27       0.1354
     12  N          4.5160   -1.4550   -5.7210 N.am   28  TRP28      -0.1976
     13  CA         5.0400   -0.2020   -5.2190 C.3    28  TRP28       0.1640
     14  C          4.3880    0.1970   -3.8960 C.2    28  TRP28       0.2290
     15  O          3.3930   -0.4380   -3.4750 O.2    28  TRP28      -0.2864
     16  CB         4.8480    0.9040   -6.2270 C.3    28  TRP28       0.0576
     17  CG         3.5310    1.1120   -6.7930 C.ar   28  TRP28       0.0006
     18  CD1        3.1840    0.8930   -8.1190 C.ar   28  TRP28       0.0946
     19  CD2        2.3850    1.7950   -6.2000 C.ar   28  TRP28       0.0152
     20  NE1        1.9070    1.2760   -8.3350 N.ar   28  TRP28      -0.2442
     21  CE2        1.3800    1.8390   -7.1930 C.ar   28  TRP28       0.0810
     22  CE3        2.0880    2.2760   -4.9110 C.ar   28  TRP28       0.0012
     23  CZ2        0.1120    2.3860   -6.9640 C.ar   28  TRP28       0.0191
     24  CZ3        0.8120    2.8280   -4.6700 C.ar   28  TRP28       0.0001
     25  CH2       -0.1700    2.8560   -5.6920 C.ar   28  TRP28       0.0015
     26  N          3.6850    3.9910   -1.6640 N.3    30  ALA30      -0.1245
     27  CA         3.6040    5.4310   -1.7340 C.3    30  ALA30       0.1562
     28  C          3.2360    5.9760   -0.3460 C.2    30  ALA30       0.2260
     29  O          2.1830    5.6090    0.1860 O.2    30  ALA30      -0.2867
     30  CB         2.5610    5.8480   -2.7710 C.3    30  ALA30       0.0290
     31  N          2.6110    9.2190    2.2790 N.3    32  TYR32      -0.1241
     32  CA         2.1800   10.5980    2.4020 C.3    32  TYR32       0.1605
     33  C          2.0990   11.0450    3.8590 C.2    32  TYR32       0.2264
     34  O          1.7960   10.2340    4.7650 O.2    32  TYR32      -0.2867
     35  CB         0.7650   10.7240    1.8730 C.3    32  TYR32       0.0534
     36  CG         0.6200   10.4960    0.3910 C.ar   32  TYR32      -0.0201
     37  CD1        0.4460   11.5750   -0.5070 C.ar   32  TYR32      -0.0009
     38  CD2        0.6590    9.2100   -0.1320 C.ar   32  TYR32      -0.0009
     39  CE1        0.3370   11.3480   -1.8700 C.ar   32  TYR32       0.0417
     40  CE2        0.4920    8.9880   -1.4900 C.ar   32  TYR32       0.0417
     41  CZ         0.3440   10.0470   -2.3470 C.ar   32  TYR32       0.1957
     42  OH         0.2200    9.7910   -3.6810 O.3    32  TYR32      -0.2866
     43  N          7.5340    2.9290   -8.1550 N.3    47  LEU47      -0.1231
     44  CA         6.5930    3.4280   -9.1540 C.3    47  LEU47       0.1678
     45  C          7.3000    3.3770  -10.5200 C.2    47  LEU47       0.2434
     46  O          8.5050    3.6010  -10.5810 O.2    47  LEU47      -0.2733
     47  CB         6.2250    4.8940   -8.8900 C.3    47  LEU47       0.0284
     48  CG         5.2730    5.2480   -7.7700 C.3    47  LEU47       0.0019
     49  CD1        5.1690    6.7760   -7.6000 C.3    47  LEU47       0.0001
     50  CD2        3.9120    4.6190   -8.0330 C.3    47  LEU47       0.0001
     51  N          6.5490    3.1070  -11.5920 N.am   48  PRO48      -0.2729
     52  CA         7.1170    3.2920  -12.9200 C.3    48  PRO48       0.1401
     53  C          7.5670    4.7290  -13.0730 C.2    48  PRO48       0.2269
     54  O          6.8670    5.6380  -12.6150 O.2    48  PRO48      -0.2865
     55  CB         5.9500    2.9940  -13.8590 C.3    48  PRO48       0.0296
     56  CG         5.0090    2.2430  -13.0910 C.3    48  PRO48       0.0237
     57  CD         5.1520    2.6620  -11.6640 C.3    48  PRO48       0.0939
     58  N          5.4460    7.7450  -13.7540 N.3    51  PHE51      -0.1241
     59  CA         4.4870    8.2200  -12.7420 C.3    51  PHE51       0.1605
     60  C          5.1270    8.9800  -11.5640 C.2    51  PHE51       0.2264
     61  O          4.4280    9.5640  -10.7260 O.2    51  PHE51      -0.2867
     62  CB         3.6170    7.0690  -12.2650 C.3    51  PHE51       0.0534
     63  CG         2.6730    6.5610  -13.3080 C.ar   51  PHE51      -0.0203
     64  CD1        1.6040    7.3500  -13.7410 C.ar   51  PHE51      -0.0042
     65  CD2        2.8510    5.2950  -13.8770 C.ar   51  PHE51      -0.0042
     66  CE1        0.7230    6.8900  -14.7200 C.ar   51  PHE51      -0.0003
     67  CE2        1.9640    4.8170  -14.8530 C.ar   51  PHE51      -0.0003
     68  CZ         0.8950    5.6230  -15.2690 C.ar   51  PHE51      -0.0000
     69  N          3.9890   12.5950  -11.3790 N.3    54  VAL54      -0.1231
     70  CA         2.5900   12.5910  -10.9250 C.3    54  VAL54       0.1692
     71  C          2.4480   12.4350   -9.3920 C.2    54  VAL54       0.2592
     72  O          1.7620   13.2190   -8.7270 O.2    54  VAL54      -0.2718
     73  CB         1.7950   11.4550  -11.6060 C.3    54  VAL54       0.0266
     74  CG1        0.3800   11.3380  -10.9980 C.3    54  VAL54       0.0020
     75  CG2        1.7550   11.6760  -13.1300 C.3    54  VAL54       0.0020
     76  N          3.0970   11.4070   -8.8460 N.am   55  PHE55      -0.1976
     77  CA         3.1970   11.2410   -7.4020 C.3    55  PHE55       0.1639
     78  C          3.6920   12.5170   -6.7150 C.2    55  PHE55       0.2290
     79  O          3.0930   12.9670   -5.7430 O.2    55  PHE55      -0.2864
     80  CB         4.1400   10.0720   -7.0590 C.3    55  PHE55       0.0560
     81  CG         4.4650    9.9810   -5.6000 C.ar   55  PHE55      -0.0200
     82  CD1        3.4830    9.6000   -4.7000 C.ar   55  PHE55      -0.0042
     83  CD2        5.7070   10.3460   -5.1150 C.ar   55  PHE55      -0.0042
     84  CE1        3.7260    9.5240   -3.3570 C.ar   55  PHE55      -0.0003
     85  CE2        5.9620   10.3100   -3.7550 C.ar   55  PHE55      -0.0003
     86  CZ         4.9640    9.8810   -2.8610 C.ar   55  PHE55      -0.0000
     87  N          0.9930   15.6230   -6.8090 N.3    58  MET58      -0.1196
     88  CA        -0.4580   15.4010   -6.5730 C.3    58  MET58       0.1786
     89  C         -0.8050   15.2200   -5.0690 C.2    58  MET58       0.2306
     90  O         -0.6820   14.1170   -4.5140 O.2    58  MET58      -0.2863
     91  CB        -0.8970   14.1880   -7.4040 C.2    58  MET58       0.0070
     92  CG        -2.3680   13.7900   -7.3170 C.2    58  MET58       0.0282
     93  SD        -2.8660   12.3230   -8.2940 S.3    58  MET58      -0.1125
     94  CE        -1.9540   10.9560   -7.5080 C.3    58  MET58       0.0742
     95  N         -3.4250   14.5520   -2.0250 N.3    60  LEU60      -0.1245
     96  CA        -4.6380   13.7670   -1.9820 C.3    60  LEU60       0.1561
     97  C         -5.5800   14.3950   -0.9310 C.2    60  LEU60       0.2260
     98  O         -5.2940   14.3710    0.2520 O.2    60  LEU60      -0.2867
     99  CB        -4.3450   12.3110   -1.6260 C.3    60  LEU60       0.0270
    100  CG        -3.4360   11.4260   -2.5000 C.3    60  LEU60       0.0019
    101  CD1       -3.3200   10.0030   -1.8520 C.3    60  LEU60       0.0001
    102  CD2       -3.9210   11.3170   -3.9560 C.3    60  LEU60       0.0001
    103  N        -11.8010   12.5560   -2.2630 N.3    65  ILE65      -0.1245
    104  CA       -11.5640   11.1500   -2.4390 C.3    65  ILE65       0.1561
    105  C        -12.2370   10.3990   -1.3000 C.2    65  ILE65       0.2260
    106  O        -11.6540   10.2610   -0.2110 O.2    65  ILE65      -0.2867
    107  CB       -10.0280   10.8340   -2.4720 C.3    65  ILE65       0.0252
    108  CG1       -9.3460   11.7020   -3.5000 C.3    65  ILE65       0.0019
    109  CG2       -9.8200    9.3440   -2.8230 C.3    65  ILE65       0.0019
    110  CD1       -7.8200   11.6440   -3.4620 C.3    65  ILE65       0.0001
    111  N        -12.6610    7.2920   -0.3210 N.3    67  LEU67      -0.1231
    112  CA       -11.8690    6.2590    0.3770 C.3    67  LEU67       0.1693
    113  C        -10.9930    6.8530    1.4740 C.2    67  LEU67       0.2591
    114  O        -10.8130    6.2560    2.5770 O.2    67  LEU67      -0.2718
    115  CB       -10.9540    5.5180   -0.6040 C.3    67  LEU67       0.0284
    116  CG       -10.2290    4.2620   -0.1000 C.3    67  LEU67       0.0019
    117  CD1      -11.1680    3.0750   -0.0920 C.3    67  LEU67       0.0001
    118  CD2       -8.9870    3.9520   -0.9430 C.3    67  LEU67       0.0001
    119  N        -10.4250    8.0120    1.1580 N.am   68  LEU68      -0.1980
    120  CA        -9.4740    8.6700    2.0180 C.3    68  LEU68       0.1596
    121  C        -10.1870    9.3270    3.1380 C.2    68  LEU68       0.2287
    122  O         -9.6880    9.3650    4.2690 O.2    68  LEU68      -0.2864
    123  CB        -8.7040    9.7210    1.2340 C.3    68  LEU68       0.0297
    124  CG        -7.3080   10.0720    1.7210 C.3    68  LEU68       0.0022
    125  CD1       -6.4570    8.8140    1.9600 C.3    68  LEU68       0.0001
    126  CD2       -6.6350   11.0380    0.7400 C.3    68  LEU68       0.0001
    127  N        -13.1920    6.3100   -5.3680 N.3    89  LEU89      -0.1245
    128  CA       -12.0810    7.0090   -5.9410 C.3    89  LEU89       0.1561
    129  C        -12.6020    8.0620   -6.9250 C.2    89  LEU89       0.2260
    130  O        -13.7400    8.0310   -7.3530 O.2    89  LEU89      -0.2867
    131  CB       -11.2000    6.0100   -6.6920 C.3    89  LEU89       0.0270
    132  CG       -10.1180    5.2280   -5.9470 C.3    89  LEU89       0.0019
    133  CD1      -10.2360    5.3630   -4.4760 C.3    89  LEU89       0.0001
    134  CD2      -10.1780    3.8130   -6.3710 C.3    89  LEU89       0.0001
    135  N         -8.2170    8.5170  -10.5330 N.3    93  LEU93      -0.1245
    136  CA        -7.5710    7.4580   -9.7330 C.3    93  LEU93       0.1561
    137  C         -8.0320    6.0580  -10.1520 C.2    93  LEU93       0.2260
    138  O         -7.2100    5.1400  -10.2080 O.2    93  LEU93      -0.2867
    139  CB        -7.8120    7.6740   -8.2350 C.3    93  LEU93       0.0270
    140  CG        -6.9850    8.8270   -7.6460 C.3    93  LEU93       0.0019
    141  CD1       -7.4510    9.2600   -6.2460 C.3    93  LEU93       0.0001
    142  CD2       -5.4800    8.4680   -7.6310 C.3    93  LEU93       0.0001
    143  N         -5.8700    5.2720  -13.1570 N.3    96  LEU96      -0.1231
    144  CA        -4.4840    5.0700  -12.7750 C.3    96  LEU96       0.1693
    145  C         -4.2680    3.7090  -12.0960 C.2    96  LEU96       0.2592
    146  O         -3.2840    3.0400  -12.3900 O.2    96  LEU96      -0.2718
    147  CB        -3.9730    6.2190  -11.8850 C.3    96  LEU96       0.0284
    148  CG        -3.3190    7.3800  -12.6360 C.3    96  LEU96       0.0019
    149  CD1       -4.0030    7.6530  -13.9820 C.3    96  LEU96       0.0001
    150  CD2       -3.2550    8.6320  -11.7330 C.3    96  LEU96       0.0001
    151  N         -5.2190    3.2990  -11.2630 N.am   97  LEU97      -0.1966
    152  CA        -5.0810    2.1320  -10.3660 C.3    97  LEU97       0.1728
    153  C         -5.8630    0.9020  -10.8430 C.2    97  LEU97       0.2616
    154  O         -6.0110   -0.0820  -10.0990 O.2    97  LEU97      -0.2715
    155  CB        -5.5590    2.5290   -8.9610 C.3    97  LEU97       0.0311
    156  CG        -4.9610    3.8100   -8.3460 C.3    97  LEU97       0.0022
    157  CD1       -5.6430    4.1510   -6.9980 C.3    97  LEU97       0.0001
    158  CD2       -3.4390    3.6290   -8.1800 C.3    97  LEU97       0.0001
    159  N         -6.3650    0.9460  -12.0770 N.am   98  ARG98      -0.1963
    160  CA        -7.3070   -0.0760  -12.5590 C.3    98  ARG98       0.1729
    161  C         -6.7430   -1.5180  -12.5530 C.2    98  ARG98       0.2616
    162  O         -7.4910   -2.4600  -12.3670 O.2    98  ARG98      -0.2715
    163  CB        -7.7950    0.2730  -13.9710 C.3    98  ARG98       0.0348
    164  CG        -6.8410   -0.1560  -15.0800 C.3    98  ARG98       0.0492
    165  CD        -7.0060    0.6520  -16.3430 C.3    98  ARG98       0.2205
    166  NE        -5.9530    0.2850  -17.2750 N.pl3  98  ARG98      -0.0865
    167  CZ        -4.7460    0.8480  -17.3430 C.cat  98  ARG98       0.5346
    168  NH1       -4.3850    1.8450  -16.5300 N.pl3  98  ARG98       0.1354
    169  NH2       -3.8860    0.4080  -18.2500 N.pl3  98  ARG98       0.1354
    170  N         -5.4360   -1.6780  -12.7470 N.am   99  ASN99      -0.1958
    171  CA        -4.8110   -3.0110  -12.7540 C.3    99  ASN99       0.1819
    172  C         -4.3020   -3.4850  -11.4000 C.2    99  ASN99       0.2621
    173  O         -3.5520   -4.5010  -11.3260 O.2    99  ASN99      -0.2715
    174  CB        -3.6210   -3.0510  -13.7250 C.3    99  ASN99       0.1195
    175  CG        -4.0430   -3.1250  -15.1850 C.2    99  ASN99       0.2630
    176  OD1       -3.2650   -2.7470  -16.0760 O.2    99  ASN99      -0.2716
    177  ND2       -5.2610   -3.5980  -15.4400 N.am   99  ASN99      -0.0877
    178  N         -4.6760   -2.7650  -10.3340 N.am  100  LEU100     -0.1977
    179  CA        -4.0180   -2.9300   -9.0270 C.3   100  LEU100      0.1596
    180  C         -4.9670   -3.2850   -7.8770 C.2   100  LEU100      0.2287
    181  O         -6.1310   -2.9310   -7.9120 O.2   100  LEU100     -0.2864
    182  CB        -3.2300   -1.6420   -8.7060 C.3   100  LEU100      0.0297
    183  CG        -2.1460   -1.1580   -9.6790 C.3   100  LEU100      0.0022
    184  CD1       -1.6050    0.2550   -9.3090 C.3   100  LEU100      0.0001
    185  CD2       -0.9510   -2.0840   -9.7920 C.3   100  LEU100      0.0001
    186  N         -5.1290   -2.3470   -4.0280 N.3   102  VAL102     -0.1245
    187  CA        -4.4980   -1.2510   -3.2260 C.3   102  VAL102      0.1561
    188  C         -4.8910   -1.3030   -1.7610 C.2   102  VAL102      0.2260
    189  O         -6.0700   -1.3620   -1.4090 O.2   102  VAL102     -0.2867
    190  CB        -4.7450    0.1520   -3.7970 C.3   102  VAL102      0.0252
    191  CG1       -4.0390    1.2200   -2.8990 C.3   102  VAL102      0.0019
    192  CG2       -4.3050    0.2380   -5.2930 C.3   102  VAL102      0.0019
    193  N          0.3130    3.6730    1.1550 N.3   118  PHE118     -0.1241
    194  CA        -0.4200    2.8910    0.1710 C.3   118  PHE118      0.1605
    195  C          0.5150    1.8590   -0.4830 C.2   118  PHE118      0.2264
    196  O          1.6720    2.1680   -0.8270 O.2   118  PHE118     -0.2867
    197  CB        -0.9720    3.7950   -0.8670 C.3   118  PHE118      0.0534
    198  CG        -1.8530    4.9020   -0.3100 C.ar  118  PHE118     -0.0203
    199  CD1       -3.1830    4.6610   -0.0400 C.ar  118  PHE118     -0.0042
    200  CD2       -1.3200    6.1540    0.0040 C.ar  118  PHE118     -0.0042
    201  CE1       -3.9950    5.6830    0.4750 C.ar  118  PHE118     -0.0003
    202  CE2       -2.1190    7.1860    0.5160 C.ar  118  PHE118     -0.0003
    203  CZ        -3.4510    6.9340    0.7760 C.ar  118  PHE118     -0.0000
@<TRIPOS>BOND
     1   169   167    1
     2   167   166    2
     3   167   168    1
     4   166   165    1
     5   165   164    1
     6   176   175    2
     7   177   175   am
     8    68    67   ar
     9    68    66   ar
    10   175   174    1
    11   164   163    1
    12    67    65   ar
    13    66    64   ar
    14   149   148    1
    15   163   160    1
    16    65    63   ar
    17    55    56    1
    18    55    52    1
    19    58    59    1
    20    64    63   ar
    21   174   171    1
    22    11     9    1
    23    63    62    1
    24   143   144    1
    25    75    73    1
    26    56    57    1
    27    53    52    1
    28    53    54    2
    29    52    51    1
    30   144   145    1
    31   144   147    1
    32   171   170    1
    33   171   172    1
    34   170   161   am
    35    59    62    1
    36    59    60    1
    37   148   147    1
    38   148   150    1
    39   160   161    1
    40   160   159    1
    41   161   162    2
    42    10     9    1
    43   146   145    2
    44     9     8    2
    45   145   151   am
    46   159   153   am
    47    57    51    1
    48    73    74    1
    49    73    70    1
    50    51    45   am
    51    60    61    2
    52   172   173    2
    53   172   178   am
    54    69    70    1
    55   151   152    1
    56     8     7    1
    57    70    71    1
    58   153   152    1
    59   153   154    2
    60    46    45    2
    61   135   136    1
    62    45    44    1
    63   152   155    1
    64   178   179    1
    65   138   137    2
    66   137   136    1
    67     7     6    1
    68   185   183    1
    69   136   139    1
    70   183   184    1
    71   183   182    1
    72    71    76   am
    73    71    72    2
    74     6     5    1
    75    44    47    1
    76    44    43    1
    77   179   182    1
    78   179   180    1
    79   155   156    1
    80    47    48    1
    81    76    77    1
    82   156   158    1
    83   156   157    1
    84    20    18   ar
    85    20    21   ar
    86    93    94    1
    87    93    92    1
    88   139   140    1
    89    18    17   ar
    90    50    48    1
    91   181   180    2
    92     5     2    1
    93    48    49    1
    94   140   142    1
    95   140   141    1
    96    91    92    2
    97    91    88    1
    98    77    80    1
    99    77    78    1
   100   130   129    2
   101    21    23   ar
   102    21    19   ar
   103    80    81    1
   104     4     3    2
   105    23    25   ar
   106     2     3    1
   107     2     1    1
   108   129   128    1
   109    87    88    1
   110    17    16    1
   111    17    19   ar
   112    78    79    2
   113   131   132    1
   114   131   128    1
   115    88    89    1
   116     3    12   am
   117   134   132    1
   118    16    13    1
   119    19    22   ar
   120   132   133    1
   121   128   127    1
   122    12    13    1
   123    25    24   ar
   124    81    83   ar
   125    81    82   ar
   126   192   190    1
   127    13    14    1
   128    83    85   ar
   129    89    90    2
   130    22    24   ar
   131    82    84   ar
   132   186   187    1
   133   102   100    1
   134    14    15    2
   135   190   187    1
   136   190   191    1
   137    85    86   ar
   138    42    41    1
   139   108   110    1
   140   108   107    1
   141    84    86   ar
   142   187   188    1
   143   109   107    1
   144    30    27    1
   145   100   101    1
   146   100    99    1
   147   107   104    1
   148   104   103    1
   149   104   105    1
   150    41    39   ar
   151    41    40   ar
   152    95    96    1
   153    96    99    1
   154    96    97    1
   155    39    37   ar
   156   188   189    2
   157    27    26    1
   158    27    28    1
   159    40    38   ar
   160   105   106    2
   161   118   116    1
   162    97    98    2
   163   197   198    1
   164   197   194    1
   165   196   195    2
   166   115   116    1
   167   115   112    1
   168    37    36   ar
   169   195   194    1
   170    28    29    2
   171   111   112    1
   172   198   199   ar
   173   198   200   ar
   174    38    36   ar
   175   116   117    1
   176   199   201   ar
   177   200   202   ar
   178   194   193    1
   179   112   113    1
   180    36    35    1
   181   201   203   ar
   182   202   203   ar
   183   126   124    1
   184   119   113   am
   185   119   120    1
   186   123   124    1
   187   123   120    1
   188   113   114    2
   189   124   125    1
   190    35    32    1
   191   120   121    1
   192    31    32    1
   193    32    33    1
   194   121   122    2
   195    33    34    2
