@<TRIPOS>MOLECULE
tmp/3eehA00.pdb
 183 174 0 0 0
SMALL
GASTEIGER

@<TRIPOS>ATOM
      1  N         59.2420   42.9910   19.0210 N.3    14  ILE14      -0.1245
      2  CA        59.3630   43.7740   20.2310 C.3    14  ILE14       0.1561
      3  C         60.7960   43.6380   20.6910 C.2    14  ILE14       0.2260
      4  O         61.3090   42.5110   20.7650 O.2    14  ILE14      -0.2867
      5  CB        58.4340   43.2450   21.3330 C.3    14  ILE14       0.0252
      6  CG1       56.9820   43.3350   20.8800 C.3    14  ILE14       0.0019
      7  CG2       58.5820   44.0660   22.6400 C.3    14  ILE14       0.0019
      8  CD1       56.0360   42.4830   21.7420 C.3    14  ILE14       0.0001
      9  N         63.0410   44.3620   24.0130 N.3    16  TRP16      -0.1241
     10  CA        62.8380   44.5940   25.4370 C.3    16  TRP16       0.1605
     11  C         64.0870   44.4240   26.2670 C.2    16  TRP16       0.2264
     12  O         65.0200   43.7030   25.8910 O.2    16  TRP16      -0.2867
     13  CB        61.7440   43.6970   26.0020 C.3    16  TRP16       0.0550
     14  CG        61.9810   42.2330   25.8210 C.ar   16  TRP16       0.0003
     15  CD1       61.5570   41.4620   24.7990 C.ar   16  TRP16       0.0946
     16  CD2       62.7430   41.3800   26.6890 C.ar   16  TRP16       0.0152
     17  NE1       61.9900   40.1720   24.9670 N.ar   16  TRP16      -0.2442
     18  CE2       62.7330   40.0940   26.1160 C.ar   16  TRP16       0.0810
     19  CE3       63.4470   41.5890   27.8830 C.ar   16  TRP16       0.0012
     20  CZ2       63.3980   39.0130   26.6870 C.ar   16  TRP16       0.0191
     21  CZ3       64.1070   40.5170   28.4600 C.ar   16  TRP16       0.0001
     22  CH2       64.0570   39.2360   27.8750 C.ar   16  TRP16       0.0015
     23  N         64.8330   44.7330   30.8170 N.3    18  PHE18      -0.1241
     24  CA        64.4540   45.1070   32.1750 C.3    18  PHE18       0.1605
     25  C         65.6750   44.9820   33.0630 C.2    18  PHE18       0.2264
     26  O         66.5860   44.2300   32.7630 O.2    18  PHE18      -0.2867
     27  CB        63.3830   44.1600   32.7200 C.3    18  PHE18       0.0534
     28  CG        62.1120   44.1570   31.9200 C.ar   18  PHE18      -0.0203
     29  CD1       61.0920   45.0340   32.2210 C.ar   18  PHE18      -0.0042
     30  CD2       61.9280   43.2370   30.9050 C.ar   18  PHE18      -0.0042
     31  CE1       59.9050   45.0170   31.4890 C.ar   18  PHE18      -0.0003
     32  CE2       60.7560   43.2160   30.1550 C.ar   18  PHE18      -0.0003
     33  CZ        59.7520   44.1200   30.4350 C.ar   18  PHE18      -0.0000
     34  N         63.2030   43.6990   37.9840 N.3    22  LEU22      -0.1245
     35  CA        62.0510   44.3100   37.3570 C.3    22  LEU22       0.1561
     36  C         61.6250   45.6290   37.9700 C.2    22  LEU22       0.2260
     37  O         60.4520   45.9920   37.9070 O.2    22  LEU22      -0.2867
     38  CB        60.8710   43.3500   37.2600 C.3    22  LEU22       0.0270
     39  CG        61.0770   42.0100   36.5420 C.3    22  LEU22       0.0019
     40  CD1       59.7540   41.1820   36.6110 C.3    22  LEU22       0.0001
     41  CD2       61.5690   42.1700   35.0850 C.3    22  LEU22       0.0001
     42  N         61.9590   49.2870   25.4820 N.3    28  ILE28      -0.1245
     43  CA        60.6840   48.7640   24.9700 C.3    28  ILE28       0.1561
     44  C         60.2970   49.5900   23.7750 C.2    28  ILE28       0.2260
     45  O         60.4430   50.8270   23.7800 O.2    28  ILE28      -0.2867
     46  CB        59.5790   48.7460   26.0650 C.3    28  ILE28       0.0252
     47  CG1       58.3830   47.8670   25.6130 C.3    28  ILE28       0.0019
     48  CG2       59.1470   50.1690   26.4150 C.3    28  ILE28       0.0019
     49  CD1       58.6950   46.3800   25.4420 C.3    28  ILE28       0.0001
     50  N         55.1460   46.5970   21.0790 N.3    32  TYR32      -0.1241
     51  CA        54.5900   45.9990   22.3000 C.3    32  TYR32       0.1605
     52  C         53.0990   46.2510   22.4070 C.2    32  TYR32       0.2264
     53  O         52.3480   45.3540   22.7400 O.2    32  TYR32      -0.2867
     54  CB        55.2960   46.5470   23.5330 C.3    32  TYR32       0.0534
     55  CG        54.6730   46.2010   24.8770 C.ar   32  TYR32      -0.0201
     56  CD1       54.8900   44.9520   25.4610 C.ar   32  TYR32      -0.0009
     57  CD2       53.8990   47.1260   25.5640 C.ar   32  TYR32      -0.0009
     58  CE1       54.3590   44.6260   26.6800 C.ar   32  TYR32       0.0417
     59  CE2       53.3470   46.8130   26.7950 C.ar   32  TYR32       0.0417
     60  CZ        53.5910   45.5520   27.3510 C.ar   32  TYR32       0.1957
     61  OH        53.0750   45.2280   28.5760 O.3    32  TYR32      -0.2866
     62  N         50.7740   42.9860   22.7440 N.3    36  TRP36      -0.1241
     63  CA        50.4210   42.7000   24.1280 C.3    36  TRP36       0.1605
     64  C         49.0380   43.2340   24.4580 C.2    36  TRP36       0.2264
     65  O         48.3970   42.7670   25.3880 O.2    36  TRP36      -0.2867
     66  CB        51.4490   43.3110   25.0990 C.3    36  TRP36       0.0550
     67  CG        52.0960   42.2990   25.9570 C.ar   36  TRP36       0.0003
     68  CD1       51.8430   42.0690   27.2670 C.ar   36  TRP36       0.0946
     69  CD2       53.1070   41.3740   25.5690 C.ar   36  TRP36       0.0152
     70  NE1       52.6390   41.0570   27.7410 N.ar   36  TRP36      -0.2442
     71  CE2       53.4260   40.6020   26.7120 C.ar   36  TRP36       0.0810
     72  CE3       53.8010   41.1330   24.3650 C.ar   36  TRP36       0.0012
     73  CZ2       54.3970   39.6040   26.6910 C.ar   36  TRP36       0.0191
     74  CZ3       54.7760   40.1540   24.3460 C.ar   36  TRP36       0.0001
     75  CH2       55.0720   39.4030   25.4950 C.ar   36  TRP36       0.0015
     76  N         56.2800   45.2430   35.8900 N.3    48  HIS48      -0.1241
     77  CA        55.6450   43.9280   35.9720 C.3    48  HIS48       0.1621
     78  C         54.3620   43.8220   35.1450 C.2    48  HIS48       0.2264
     79  O         53.7930   42.7450   35.0450 O.2    48  HIS48      -0.2867
     80  CB        55.2200   43.6150   37.4350 C.3    48  HIS48       0.0745
     81  CG        56.3530   43.4410   38.3870 C.ar   48  HIS48       0.0817
     82  ND1       57.1730   44.4860   38.7670 N.ar   48  HIS48      -0.2268
     83  CD2       56.7570   42.3640   39.1050 C.ar   48  HIS48       0.1154
     84  CE1       58.0580   44.0530   39.6470 C.ar   48  HIS48       0.1986
     85  NE2       57.8260   42.7700   39.8780 N.ar   48  HIS48      -0.2212
     86  N         53.5570   43.6690   32.0500 N.3    50  PHE50      -0.1227
     87  CA        53.5030   42.7470   30.9230 C.3    50  PHE50       0.1736
     88  C         53.0120   41.3600   31.3360 C.2    50  PHE50       0.2595
     89  O         52.4580   40.6240   30.5040 O.2    50  PHE50      -0.2718
     90  CB        54.8570   42.6430   30.1790 C.3    50  PHE50       0.0547
     91  CG        55.8950   41.8720   30.9230 C.ar   50  PHE50      -0.0202
     92  CD1       56.0520   40.5130   30.7120 C.ar   50  PHE50      -0.0042
     93  CD2       56.6970   42.5050   31.8650 C.ar   50  PHE50      -0.0042
     94  CE1       57.0000   39.7900   31.4470 C.ar   50  PHE50      -0.0003
     95  CE2       57.6380   41.7950   32.5880 C.ar   50  PHE50      -0.0003
     96  CZ        57.7860   40.4260   32.3850 C.ar   50  PHE50      -0.0000
     97  N         53.2040   40.9840   32.6000 N.am   51  LEU51      -0.1980
     98  CA        52.7440   39.6600   33.0730 C.3    51  LEU51       0.1596
     99  C         51.2280   39.5120   32.9900 C.2    51  LEU51       0.2287
    100  O         50.7240   38.4300   32.7480 O.2    51  LEU51      -0.2864
    101  CB        53.1960   39.3950   34.5080 C.3    51  LEU51       0.0297
    102  CG        54.7270   39.3260   34.6240 C.3    51  LEU51       0.0022
    103  CD1       55.0660   39.4680   36.1530 C.3    51  LEU51       0.0001
    104  CD2       55.2010   38.0200   34.0430 C.3    51  LEU51       0.0001
    105  N         50.0430   38.0580   29.7730 N.3    54  ILE54      -0.1245
    106  CA        50.4080   36.6600   29.4850 C.3    54  ILE54       0.1561
    107  C         49.3800   35.7160   30.0900 C.2    54  ILE54       0.2260
    108  O         48.9000   35.9360   31.2070 O.2    54  ILE54      -0.2867
    109  CB        51.8200   36.3270   30.0070 C.3    54  ILE54       0.0252
    110  CG1       52.8590   37.1290   29.2310 C.3    54  ILE54       0.0019
    111  CG2       52.1770   34.8040   29.8440 C.3    54  ILE54       0.0019
    112  CD1       54.2500   37.0640   29.8870 C.3    54  ILE54       0.0001
    113  N         52.3080   32.3700   32.6570 N.3    59  ARG59      -0.1245
    114  CA        52.9610   33.1180   33.7670 C.3    59  ARG59       0.1563
    115  C         53.9700   32.3440   34.6300 C.2    59  ARG59       0.2260
    116  O         55.0110   32.8880   34.9430 O.2    59  ARG59      -0.2867
    117  CB        51.9420   33.8360   34.6450 C.3    59  ARG59       0.0307
    118  CG        51.4370   35.0830   34.0240 C.3    59  ARG59       0.0489
    119  CD        50.4040   35.8260   34.9250 C.3    59  ARG59       0.2205
    120  NE        49.3450   36.3010   34.0510 N.pl3  59  ARG59      -0.0865
    121  CZ        48.0560   36.3620   34.3430 C.cat  59  ARG59       0.5346
    122  NH1       47.6070   36.0270   35.5520 N.pl3  59  ARG59       0.1354
    123  NH2       47.2010   36.7690   33.4010 N.pl3  59  ARG59       0.1354
    124  N         57.2180   31.7280   33.0420 N.3    62  MET62      -0.1230
    125  CA        58.0890   32.9120   33.0810 C.3    62  MET62       0.1702
    126  C         59.0360   32.8810   34.3030 C.2    62  MET62       0.2592
    127  O         60.1740   33.3260   34.2020 O.2    62  MET62      -0.2718
    128  CB        57.2920   34.2250   33.0910 C.3    62  MET62       0.0401
    129  CG        56.5360   34.5240   31.8210 C.3    62  MET62       0.0596
    130  SD        57.6260   34.7070   30.3630 S.3    62  MET62      -0.1393
    131  CE        57.1760   33.3380   29.6550 C.3    62  MET62       0.0692
    132  N         58.5640   32.3670   35.4400 N.am   63  LYS63      -0.1980
    133  CA        59.4160   32.1960   36.6360 C.3    63  LYS63       0.1596
    134  C         60.6210   31.3180   36.3210 C.2    63  LYS63       0.2287
    135  O         61.7520   31.6680   36.6530 O.2    63  LYS63      -0.2864
    136  CB        58.6350   31.6140   37.8230 C.3    63  LYS63       0.0298
    137  CG        57.6380   32.5970   38.4340 C.3    63  LYS63       0.0038
    138  CD        56.8960   31.9730   39.6070 C.3    63  LYS63       0.0206
    139  CE        55.6940   32.8300   40.0500 C.3    63  LYS63       0.1093
    140  NZ        55.0420   32.3040   41.3050 N.3    63  LYS63      -0.1314
    141  N         61.8410   30.8350   33.3300 N.3    65  THR65      -0.1203
    142  CA        62.6400   31.6120   32.4070 C.3    65  THR65       0.1994
    143  C         63.5630   32.5760   33.1610 C.2    65  THR65       0.2617
    144  O         64.7730   32.6080   32.8860 O.2    65  THR65      -0.2717
    145  CB        61.7410   32.3040   31.3680 C.3    65  THR65       0.1784
    146  OG1       61.0480   31.2820   30.6480 O.3    65  THR65      -0.2211
    147  CG2       62.5030   33.1920   30.4060 C.3    65  THR65       0.0376
    148  N         63.0190   33.3260   34.1070 N.am   66  MET66      -0.1979
    149  CA        63.8360   34.3160   34.8480 C.3    66  MET66       0.1605
    150  C         64.9400   33.6140   35.6460 C.2    66  MET66       0.2287
    151  O         66.0830   34.0900   35.7210 O.2    66  MET66      -0.2864
    152  CB        62.9960   35.1810   35.7970 C.3    66  MET66       0.0413
    153  CG        63.8630   36.2830   36.4980 C.3    66  MET66       0.0598
    154  SD        64.7970   37.3880   35.3230 S.3    66  MET66      -0.1393
    155  CE        63.7320   38.8480   35.4230 C.3    66  MET66       0.0692
    156  N         67.8220   32.7810   33.3980 N.3    69  LEU69      -0.1245
    157  CA        68.5680   33.9870   33.1130 C.3    69  LEU69       0.1561
    158  C         69.4620   34.3820   34.2730 C.2    69  LEU69       0.2260
    159  O         70.5730   34.7680   34.0910 O.2    69  LEU69      -0.2867
    160  CB        67.6290   35.1080   32.7300 C.3    69  LEU69       0.0270
    161  CG        66.9360   34.9150   31.3970 C.3    69  LEU69       0.0019
    162  CD1       65.7760   35.7680   31.2610 C.3    69  LEU69       0.0001
    163  CD2       67.8610   35.0960   30.2740 C.3    69  LEU69       0.0001
    164  N         59.6790   34.3310   22.5630 N.3    93  ILE93      -0.1245
    165  CA        60.5540   35.2400   23.3430 C.3    93  ILE93       0.1561
    166  C         61.9120   34.5800   23.4630 C.2    93  ILE93       0.2260
    167  O         62.0340   33.3910   23.7960 O.2    93  ILE93      -0.2867
    168  CB        59.9620   35.5180   24.7480 C.3    93  ILE93       0.0252
    169  CG1       58.5950   36.1680   24.6550 C.3    93  ILE93       0.0019
    170  CG2       60.9130   36.3590   25.6860 C.3    93  ILE93       0.0019
    171  CD1       57.8170   36.1690   25.9820 C.3    93  ILE93       0.0001
    172  N         68.1520   41.9070   31.8620 N.3   108  VAL108     -0.1245
    173  CA        67.7450   40.8340   30.9560 C.3   108  VAL108      0.1561
    174  C         67.2110   41.5050   29.7010 C.2   108  VAL108      0.2260
    175  O         66.4800   42.5080   29.7700 O.2   108  VAL108     -0.2867
    176  CB        66.7650   39.8550   31.6070 C.3   108  VAL108      0.0252
    177  CG1       67.4720   39.0310   32.7260 C.3   108  VAL108      0.0019
    178  CG2       65.4990   40.5580   32.1470 C.3   108  VAL108      0.0019
    179  N         60.7220   39.7350   21.3260 N.3   112  ALA112     -0.1245
    180  CA        59.4930   38.9290   21.3460 C.3   112  ALA112      0.1562
    181  C         58.8450   39.1070   19.9650 C.2   112  ALA112      0.2260
    182  O         58.7180   40.2290   19.4580 O.2   112  ALA112     -0.2867
    183  CB        58.5820   39.3650   22.4810 C.3   112  ALA112      0.0290
@<TRIPOS>BOND
     1     1     2    1
     2   182   181    2
     3   181   180    1
     4     2     3    1
     5     2     5    1
     6     3     4    2
     7     6     5    1
     8     6     8    1
     9    50    51    1
    10   179   180    1
    11     5     7    1
    12   180   183    1
    13    51    52    1
    14    51    54    1
    15    52    53    2
    16   164   165    1
    17    62    63    1
    18   165   166    1
    19   165   168    1
    20   166   167    2
    21    54    55    1
    22    44    45    2
    23    44    43    1
    24     9    10    1
    25    63    64    1
    26    63    66    1
    27    74    72   ar
    28    74    75   ar
    29    72    69   ar
    30    64    65    2
    31   169   168    1
    32   169   171    1
    33   168   170    1
    34    15    17   ar
    35    15    14   ar
    36    55    56   ar
    37    55    57   ar
    38    17    18   ar
    39    43    42    1
    40    43    46    1
    41    66    67    1
    42    10    13    1
    43    10    11    1
    44    49    47    1
    45    56    58   ar
    46    75    73   ar
    47    57    59   ar
    48    69    67   ar
    49    69    71   ar
    50    47    46    1
    51    14    13    1
    52    14    16   ar
    53    12    11    2
    54    67    68   ar
    55    46    48    1
    56    18    20   ar
    57    18    16   ar
    58    58    60   ar
    59    20    22   ar
    60    16    19   ar
    61    73    71   ar
    62    71    70   ar
    63    59    60   ar
    64    68    70   ar
    65    60    61    1
    66    22    21   ar
    67    19    21   ar
    68   110   112    1
    69   110   109    1
    70   106   105    1
    71   106   109    1
    72   106   107    1
    73   131   130    1
    74   174   175    2
    75   174   173    1
    76   111   109    1
    77   107   108    2
    78    32    33   ar
    79    32    30   ar
    80    90    87    1
    81    90    91    1
    82   163   161    1
    83   130   129    1
    84   147   145    1
    85    33    31   ar
    86    89    88    2
    87   146   145    1
    88    92    91   ar
    89    92    94   ar
    90    23    24    1
    91    30    28   ar
    92    87    88    1
    93    87    86    1
    94    91    93   ar
    95   173   176    1
    96   173   172    1
    97   162   161    1
    98    88    97   am
    99   145   142    1
   100   161   160    1
   101    94    96   ar
   102    31    29   ar
   103   176   178    1
   104   176   177    1
   105   129   128    1
   106    93    95   ar
   107    28    29   ar
   108    28    27    1
   109    24    27    1
   110    24    25    1
   111    96    95   ar
   112   142   143    1
   113   142   141    1
   114    97    98    1
   115   113   114    1
   116   160   157    1
   117   100    99    2
   118    26    25    2
   119   144   143    2
   120    99    98    1
   121   124   125    1
   122    98   101    1
   123   125   128    1
   124   125   126    1
   125   157   156    1
   126   157   158    1
   127   143   148   am
   128   123   121    1
   129   114   115    1
   130   114   117    1
   131   118   117    1
   132   118   119    1
   133   104   102    1
   134   120   121    2
   135   120   119    1
   136   159   158    2
   137   148   149    1
   138   127   126    2
   139   126   132   am
   140   121   122    1
   141   101   102    1
   142   102   103    1
   143   115   116    2
   144   149   150    1
   145   149   152    1
   146    79    78    2
   147    41    39    1
   148    78    77    1
   149   154   155    1
   150   154   153    1
   151   132   133    1
   152   150   151    2
   153   152   153    1
   154    76    77    1
   155    77    80    1
   156   134   133    1
   157   134   135    2
   158    39    40    1
   159    39    38    1
   160   133   136    1
   161    38    35    1
   162    35    36    1
   163    35    34    1
   164    80    81    1
   165   136   137    1
   166    37    36    2
   167    81    82   ar
   168    81    83   ar
   169   137   138    1
   170    82    84   ar
   171    83    85   ar
   172   138   139    1
   173    84    85   ar
   174   139   140    1
