@<TRIPOS>MOLECULE
tmp/3eeiA00.pdb
 148 140 0 0 0
SMALL
GASTEIGER

@<TRIPOS>ATOM
      1  N        -33.6660    4.8140  -25.4460 N.3     9  ALA9       -0.1231
      2  CA       -35.0050    4.9280  -24.8260 C.3     9  ALA9        0.1694
      3  C        -35.6990    6.2460  -25.2190 C.2     9  ALA9        0.2591
      4  O        -36.9180    6.3110  -25.4100 O.2     9  ALA9       -0.2718
      5  CB       -34.8720    4.8750  -23.2810 C.3     9  ALA9        0.0304
      6  N        -34.8990    7.2960  -25.2810 N.am   10  MET10      -0.1979
      7  CA       -35.4220    8.6590  -25.4130 C.3    10  MET10       0.1605
      8  C        -34.8840    9.3380  -26.6810 C.2    10  MET10       0.2287
      9  O        -33.7950    9.0320  -27.1270 O.2    10  MET10      -0.2864
     10  CB       -34.9790    9.4680  -24.1960 C.3    10  MET10       0.0413
     11  CG       -35.5840    8.9700  -22.9010 C.3    10  MET10       0.0598
     12  SD       -34.9390    9.7980  -21.4400 S.3    10  MET10      -0.1393
     13  CE       -35.8360   11.3520  -21.5400 C.3    10  MET10       0.0692
     14  N        -31.4430   10.5630  -26.8360 N.3    13  GLU13      -0.1245
     15  CA       -30.4230    9.5100  -26.8650 C.3    13  GLU13       0.1567
     16  C        -30.1510    8.9410  -28.2470 C.2    13  GLU13       0.2260
     17  O        -29.1170    8.3030  -28.4580 O.2    13  GLU13      -0.2867
     18  CB       -30.7800    8.3910  -25.8700 C.3    13  GLU13       0.0388
     19  CG       -30.7450    8.9270  -24.4400 C.3    13  GLU13       0.1160
     20  CD       -31.3310    7.9560  -23.4500 C.2    13  GLU13       0.3649
     21  OE1      -32.2910    7.2380  -23.8100 O.co2  13  GLU13      -0.2457
     22  OE2      -30.8380    7.9370  -22.2880 O.co2  13  GLU13      -0.2457
     23  N        -39.2750    4.4140  -22.5610 N.3    51  ILE51      -0.1245
     24  CA       -38.6510    4.1530  -21.2620 C.3    51  ILE51       0.1561
     25  C        -39.1320    2.8630  -20.6100 C.2    51  ILE51       0.2260
     26  O        -40.3250    2.5510  -20.6850 O.2    51  ILE51      -0.2867
     27  CB       -38.8940    5.3630  -20.3340 C.3    51  ILE51       0.0252
     28  CG1      -38.0370    6.5370  -20.8740 C.3    51  ILE51       0.0019
     29  CG2      -38.6020    5.0230  -18.8650 C.3    51  ILE51       0.0019
     30  CD1      -38.5440    7.9290  -20.4520 C.3    51  ILE51       0.0001
     31  N        -28.2670    7.0810  -21.2370 N.3    77  SER77      -0.1202
     32  CA       -27.8600    7.6730  -19.9740 C.3    77  SER77       0.2020
     33  C        -28.1080    6.6840  -18.8440 C.2    77  SER77       0.2619
     34  O        -28.8840    5.7300  -19.0080 O.2    77  SER77      -0.2717
     35  CB       -28.6980    8.9260  -19.7170 C.3    77  SER77       0.2103
     36  OG       -30.0910    8.5670  -19.6410 O.3    77  SER77      -0.2182
     37  N        -27.4970    6.9150  -17.6930 N.am   78  ALA78      -0.1965
     38  CA       -27.6570    6.0080  -16.5540 C.3    78  ALA78       0.1728
     39  C        -27.1770    6.6900  -15.2830 C.2    78  ALA78       0.2616
     40  O        -26.4100    7.6890  -15.3310 O.2    78  ALA78      -0.2715
     41  CB       -26.8770    4.6920  -16.8110 C.3    78  ALA78       0.0334
     42  N        -27.5960    6.1350  -14.1410 N.am   79  GLY79      -0.1955
     43  CA       -27.1520    6.6210  -12.8350 C.3    79  GLY79       0.1869
     44  C        -25.7760    6.0160  -12.5970 C.2    79  GLY79       0.2309
     45  O        -25.5870    4.7780  -12.6970 O.2    79  GLY79      -0.2863
     46  N        -37.7030    1.4790  -12.3880 N.3   152  ARG152     -0.1231
     47  CA       -37.8000    2.6570  -11.5500 C.3   152  ARG152      0.1694
     48  C        -36.6510    3.6110  -11.7770 C.2   152  ARG152      0.2592
     49  O        -35.5270    3.1930  -12.0790 O.2   152  ARG152     -0.2718
     50  CB       -37.8310    2.2540  -10.0700 C.3   152  ARG152      0.0321
     51  CG       -36.5130    1.7630   -9.5250 C.3   152  ARG152      0.0489
     52  CD       -36.6860    1.2350   -8.0630 C.3   152  ARG152      0.2205
     53  NE       -37.4010   -0.0400   -8.0730 N.pl3 152  ARG152     -0.0865
     54  CZ       -37.4620   -0.8600   -7.0320 C.cat 152  ARG152      0.5346
     55  NH1      -38.1660   -1.9930   -7.0990 N.pl3 152  ARG152      0.1354
     56  NH2      -36.8250   -0.5360   -5.9030 N.pl3 152  ARG152      0.1354
     57  N        -36.9310    4.9080  -11.6120 N.am  153  PHE153     -0.1962
     58  CA       -35.8700    5.8830  -11.6580 C.3   153  PHE153      0.1771
     59  C        -35.3720    6.0120  -10.2360 C.2   153  PHE153      0.2619
     60  O        -36.1400    6.3840   -9.3320 O.2   153  PHE153     -0.2715
     61  CB       -36.4230    7.2470  -12.1070 C.3   153  PHE153      0.0574
     62  CG       -35.3740    8.2700  -12.1960 C.ar  153  PHE153     -0.0200
     63  CD1      -34.5570    8.3170  -13.3200 C.ar  153  PHE153     -0.0042
     64  CD2      -35.1720    9.1750  -11.1570 C.ar  153  PHE153     -0.0042
     65  CE1      -33.5570    9.2630  -13.4370 C.ar  153  PHE153     -0.0003
     66  CE2      -34.1570   10.1350  -11.2510 C.ar  153  PHE153     -0.0003
     67  CZ       -33.3640   10.1870  -12.3960 C.ar  153  PHE153     -0.0000
     68  N        -34.1080    5.6700  -10.0200 N.am  154  VAL154     -0.1977
     69  CA       -33.5660    5.6410   -8.6700 C.3   154  VAL154      0.1596
     70  C        -33.0440    7.0100   -8.2660 C.2   154  VAL154      0.2287
     71  O        -32.2250    7.5660   -8.9780 O.2   154  VAL154     -0.2864
     72  CB       -32.4060    4.6520   -8.6040 C.3   154  VAL154      0.0276
     73  CG1      -31.8340    4.5900   -7.1710 C.3   154  VAL154      0.0022
     74  CG2      -32.9010    3.2350   -8.9850 C.3   154  VAL154      0.0022
     75  N        -26.8290    2.2180  -13.0880 N.3   173  VAL173     -0.1231
     76  CA       -28.2180    1.7750  -13.0030 C.3   173  VAL173      0.1692
     77  C        -29.0670    2.5500  -13.9790 C.2   173  VAL173      0.2592
     78  O        -28.8950    3.7820  -14.1460 O.2   173  VAL173     -0.2718
     79  CB       -28.8120    1.8970  -11.5670 C.3   173  VAL173      0.0266
     80  CG1      -28.7010    3.2980  -10.9930 C.3   173  VAL173      0.0020
     81  CG2      -30.2570    1.3980  -11.5380 C.3   173  VAL173      0.0020
     82  N        -29.9690    1.8360  -14.6450 N.am  174  GLU174     -0.1966
     83  CA       -30.9220    2.4760  -15.5490 C.3   174  GLU174      0.1733
     84  C        -32.1430    1.5810  -15.7120 C.2   174  GLU174      0.2616
     85  O        -32.4470    0.8380  -14.7900 O.2   174  GLU174     -0.2715
     86  CB       -30.2690    2.9310  -16.8510 C.3   174  GLU174      0.0429
     87  CG       -29.2950    1.9120  -17.4710 C.3   174  GLU174      0.1163
     88  CD       -30.0520    0.6630  -17.8240 C.2   174  GLU174      0.3649
     89  OE1      -30.0710   -0.2680  -16.9810 O.co2 174  GLU174     -0.2457
     90  OE2      -30.6790    0.6320  -18.9120 O.co2 174  GLU174     -0.2457
     91  N        -32.8970    1.7050  -16.8030 N.am  175  MET175     -0.1963
     92  CA       -34.2450    1.1030  -16.8240 C.3   175  MET175      0.1736
     93  C        -34.5030    0.2360  -18.0550 C.2   175  MET175      0.2616
     94  O        -35.6170   -0.2880  -18.1930 O.2   175  MET175     -0.2715
     95  CB       -35.3150    2.2130  -16.7770 C.3   175  MET175      0.0427
     96  CG       -35.2050    3.0320  -15.5220 C.3   175  MET175      0.0599
     97  SD       -36.3990    4.4180  -15.3950 S.3   175  MET175     -0.1393
     98  CE       -37.9510    3.6310  -15.6620 C.3   175  MET175      0.0692
     99  N        -33.5110    0.0980  -18.9360 N.am  176  GLU176     -0.1977
    100  CA       -33.7200   -0.7540  -20.1460 C.3   176  GLU176      0.1602
    101  C        -32.7200   -1.8600  -20.4160 C.2   176  GLU176      0.2287
    102  O        -33.0680   -2.8850  -21.0620 O.2   176  GLU176     -0.2864
    103  CB       -33.7750    0.1330  -21.3850 C.3   176  GLU176      0.0415
    104  CG       -34.9410    1.1270  -21.3270 C.3   176  GLU176      0.1163
    105  CD       -34.5420    2.4630  -20.7450 C.2   176  GLU176      0.3649
    106  OE1      -33.3520    2.8230  -20.8770 O.co2 176  GLU176     -0.2457
    107  OE2      -35.4240    3.1540  -20.1980 O.co2 176  GLU176     -0.2457
    108  N        -23.5440    2.9350  -21.7990 N.3   195  ARG195     -0.1245
    109  CA       -24.3270    3.9980  -21.1610 C.3   195  ARG195      0.1563
    110  C        -23.3450    5.0340  -20.6620 C.2   195  ARG195      0.2260
    111  O        -22.1760    4.7070  -20.4460 O.2   195  ARG195     -0.2867
    112  CB       -25.1500    3.4810  -19.9680 C.3   195  ARG195      0.0307
    113  CG       -26.2770    2.4800  -20.3590 C.3   195  ARG195      0.0489
    114  CD       -27.4730    3.2630  -20.8580 C.3   195  ARG195      0.2205
    115  NE       -28.6110    2.4210  -21.1920 N.pl3 195  ARG195     -0.0865
    116  CZ       -29.8690    2.8300  -21.1390 C.cat 195  ARG195      0.5346
    117  NH1      -30.1710    4.0600  -20.7160 N.pl3 195  ARG195      0.1354
    118  NH2      -30.8300    1.9970  -21.5050 N.pl3 195  ARG195      0.1354
    119  N        -25.4510   10.3730  -16.2350 N.3   198  SER198     -0.1202
    120  CA       -26.2120   11.6410  -16.2260 C.3   198  SER198      0.2020
    121  C        -26.4950   12.1420  -14.7910 C.2   198  SER198      0.2618
    122  O        -26.9650   13.2870  -14.5660 O.2   198  SER198     -0.2717
    123  CB       -27.5380   11.4200  -16.9490 C.3   198  SER198      0.2103
    124  OG       -28.1960   10.2680  -16.4110 O.3   198  SER198     -0.2182
    125  N        -26.2070   11.2940  -13.8120 N.am  199  ASP199     -0.1973
    126  CA       -26.5540   11.5190  -12.4250 C.3   199  ASP199      0.1709
    127  C        -25.9760   10.3990  -11.5660 C.2   199  ASP199      0.2293
    128  O        -25.3770    9.4310  -12.0970 O.2   199  ASP199     -0.2864
    129  CB       -28.0880   11.5660  -12.2420 C.3   199  ASP199      0.1436
    130  CG       -28.7560   10.2560  -12.6210 C.2   199  ASP199      0.3671
    131  OD1      -29.1230   10.1190  -13.7980 O.co2 199  ASP199     -0.2456
    132  OD2      -28.8780    9.3770  -11.7370 O.co2 199  ASP199     -0.2456
    133  N        -27.9420    8.7540   -9.1350 N.3   201  ALA201     -0.1245
    134  CA       -29.0750    7.9750   -8.6430 C.3   201  ALA201      0.1562
    135  C        -29.3900    8.2780   -7.1840 C.2   201  ALA201      0.2260
    136  O        -30.0120    7.4510   -6.4750 O.2   201  ALA201     -0.2867
    137  CB       -28.8120    6.4440   -8.8030 C.3   201  ALA201      0.0290
    138  N        -30.1650   14.7000  -13.8010 N.3   209  PHE209     -0.1241
    139  CA       -30.5000   14.0330  -15.0540 C.3   209  PHE209      0.1605
    140  C        -30.8590   14.9630  -16.2150 C.2   209  PHE209      0.2264
    141  O        -30.3510   14.8430  -17.3310 O.2   209  PHE209     -0.2867
    142  CB       -31.6440   13.0360  -14.8220 C.3   209  PHE209      0.0534
    143  CG       -32.1460   12.4240  -16.0760 C.ar  209  PHE209     -0.0203
    144  CD1      -31.4180   11.4120  -16.7010 C.ar  209  PHE209     -0.0042
    145  CD2      -33.3420   12.8620  -16.6640 C.ar  209  PHE209     -0.0042
    146  CE1      -31.8620   10.8530  -17.8910 C.ar  209  PHE209     -0.0003
    147  CE2      -33.8010   12.2890  -17.8610 C.ar  209  PHE209     -0.0003
    148  CZ       -33.0550   11.2850  -18.4770 C.ar  209  PHE209     -0.0000
@<TRIPOS>BOND
     1    17    16    2
     2    16    15    1
     3     9     8    2
     4    15    14    1
     5    15    18    1
     6     8     7    1
     7    18    19    1
     8     1     2    1
     9     7     6    1
    10     7    10    1
    11     4     3    2
    12     6     3   am
    13     3     2    1
    14     2     5    1
    15    19    20    1
    16    10    11    1
    17    21    20   ar
    18    20    22   ar
    19    11    12    1
    20    23    24    1
    21   108   109    1
    22    13    12    1
    23   118   116    1
    24   103   104    1
    25   103   100    1
    26   104   105    1
    27    24    25    1
    28    24    27    1
    29    31    32    1
    30   115   116    2
    31   115   114    1
    32   109   110    1
    33   109   112    1
    34   116   117    1
    35   102   101    2
    36   106   105   ar
    37    28    30    1
    38    28    27    1
    39   114   113    1
    40   105   107   ar
    41    26    25    2
    42   110   111    2
    43   101   100    1
    44   113   112    1
    45    27    29    1
    46   100    99    1
    47    32    35    1
    48    32    33    1
    49    35    36    1
    50    34    33    2
    51    99    93   am
    52    90    88   ar
    53    33    37   am
    54   148   146   ar
    55   148   147   ar
    56    94    93    2
    57    93    92    1
    58   146   144   ar
    59   147   145   ar
    60    88    87    1
    61    88    89   ar
    62    37    38    1
    63    87    86    1
    64   141   140    2
    65   123   124    1
    66   123   120    1
    67    86    83    1
    68    92    91    1
    69    92    95    1
    70    41    38    1
    71    91    84   am
    72    95    96    1
    73   144   143   ar
    74   145   143   ar
    75    38    39    1
    76   119   120    1
    77   120   121    1
    78   140   139    1
    79   143   142    1
    80    84    83    1
    81    84    85    2
    82    98    97    1
    83    83    82    1
    84    96    97    1
    85    40    39    2
    86    39    42   am
    87   139   142    1
    88   139   138    1
    89   121   122    2
    90   121   125   am
    91    82    77   am
    92    78    77    2
    93    42    43    1
    94    77    76    1
    95   125   126    1
    96   131   130   ar
    97    65    63   ar
    98    65    67   ar
    99    63    62   ar
   100    75    76    1
   101    76    79    1
   102    43    44    1
   103    45    44    2
   104   130   129    1
   105   130   132   ar
   106   126   129    1
   107   126   127    1
   108    67    66   ar
   109    46    47    1
   110    62    61    1
   111    62    64   ar
   112    61    58    1
   113   128   127    2
   114    49    48    2
   115    48    57   am
   116    48    47    1
   117    58    57    1
   118    58    59    1
   119    79    81    1
   120    79    80    1
   121    47    50    1
   122    66    64   ar
   123    59    68   am
   124    59    60    2
   125    50    51    1
   126    68    69    1
   127    51    52    1
   128   133   134    1
   129    74    72    1
   130    71    70    2
   131   137   134    1
   132    69    72    1
   133    69    70    1
   134   134   135    1
   135    72    73    1
   136    53    52    1
   137    53    54    2
   138   135   136    2
   139    55    54    1
   140    54    56    1
