@<TRIPOS>MOLECULE
tmp/3eelB01.pdb
 190 184 0 0 0
SMALL
GASTEIGER

@<TRIPOS>ATOM
      1  N         32.5710    3.6300   28.1690 N.3     7  ILE7       -0.1231
      2  CA        33.0800    3.6720   29.5260 C.3     7  ILE7        0.1692
      3  C         31.9300    3.3560   30.4960 C.2     7  ILE7        0.2592
      4  O         30.7960    3.8700   30.3370 O.2     7  ILE7       -0.2718
      5  CB        33.8210    5.0260   29.8570 C.3     7  ILE7        0.0266
      6  CG1       34.3220    5.0300   31.3070 C.3     7  ILE7        0.0019
      7  CG2       32.9080    6.2670   29.6530 C.3     7  ILE7        0.0020
      8  CD1       35.4300    6.1060   31.5910 C.3     7  ILE7        0.0001
      9  N         32.2260    2.5100   31.4960 N.am    8  VAL8       -0.1966
     10  CA        31.1850    1.9400   32.3520 C.3     8  VAL8        0.1727
     11  C         31.8180    1.4290   33.6470 C.2     8  VAL8        0.2616
     12  O         33.0000    1.0520   33.6520 O.2     8  VAL8       -0.2715
     13  CB        30.4230    0.7360   31.6150 C.3     8  VAL8        0.0290
     14  CG1       31.3770   -0.4470   31.1730 C.3     8  VAL8        0.0023
     15  CG2       29.2370    0.2320   32.4290 C.3     8  VAL8        0.0023
     16  N         31.0310    1.4250   34.7230 N.am    9  ALA9       -0.1977
     17  CA        31.3980    0.7610   35.9580 C.3     9  ALA9        0.1597
     18  C         30.4560   -0.4470   36.1700 C.2     9  ALA9        0.2287
     19  O         29.2410   -0.2770   36.2300 O.2     9  ALA9       -0.2864
     20  CB        31.3080    1.7010   37.1110 C.3     9  ALA9        0.0319
     21  N         16.8800    2.6890   37.6650 N.3    21  GLY21      -0.1210
     22  CA        17.2840    3.9570   37.0420 C.3    21  GLY21       0.1956
     23  C         18.4720    4.7060   37.6500 C.2    21  GLY21       0.2612
     24  O         18.8300    5.7800   37.1380 O.2    21  GLY21      -0.2717
     25  N         19.1140    4.1190   38.6800 N.am   22  ASN22      -0.1960
     26  CA        20.2930    4.6800   39.3830 C.3    22  ASN22       0.1819
     27  C         21.5050    3.7820   39.4280 C.2    22  ASN22       0.2621
     28  O         21.4050    2.5690   39.2800 O.2    22  ASN22      -0.2715
     29  CB        19.9740    5.0460   40.8420 C.3    22  ASN22       0.1195
     30  CG        18.8050    5.9840   40.9560 C.2    22  ASN22       0.2630
     31  OD1       18.8030    7.0600   40.3600 O.2    22  ASN22      -0.2716
     32  ND2       17.7780    5.5630   41.7060 N.am   22  ASN22      -0.0877
     33  N         22.6580    4.3870   39.6790 N.am   23  LEU23      -0.1977
     34  CA        23.8830    3.6220   39.9730 C.3    23  LEU23       0.1596
     35  C         23.7010    2.8170   41.2920 C.2    23  LEU23       0.2287
     36  O         23.1380    3.3440   42.2340 O.2    23  LEU23      -0.2864
     37  CB        25.0890    4.5720   40.0320 C.3    23  LEU23       0.0297
     38  CG        25.2730    5.4560   38.7720 C.3    23  LEU23       0.0022
     39  CD1       26.5010    6.3730   38.9280 C.3    23  LEU23       0.0001
     40  CD2       25.4000    4.6170   37.4890 C.3    23  LEU23       0.0001
     41  N         25.7880    2.0040   43.5430 N.3    25  TRP25      -0.1227
     42  CA        26.8100    2.4120   44.5160 C.3    25  TRP25       0.1737
     43  C         27.0790    3.9200   44.3280 C.2    25  TRP25       0.2595
     44  O         26.6920    4.5430   43.3020 O.2    25  TRP25      -0.2718
     45  CB        28.1430    1.6360   44.3200 C.3    25  TRP25       0.0564
     46  CG        28.4950    1.5740   42.8500 C.ar   25  TRP25       0.0003
     47  CD1       29.1020    2.5690   42.0910 C.ar   25  TRP25       0.0946
     48  CD2       28.2320    0.4970   41.9530 C.ar   25  TRP25       0.0152
     49  NE1       29.2200    2.1710   40.7940 N.ar   25  TRP25      -0.2442
     50  CE2       28.7040    0.9010   40.6640 C.ar   25  TRP25       0.0810
     51  CE3       27.6600   -0.7730   42.1000 C.ar   25  TRP25       0.0012
     52  CZ2       28.5870    0.0810   39.5230 C.ar   25  TRP25       0.0191
     53  CZ3       27.5590   -1.5950   40.9640 C.ar   25  TRP25       0.0001
     54  CH2       28.0150   -1.1520   39.6850 C.ar   25  TRP25       0.0015
     55  N         27.7930    4.4750   45.3060 N.am   26  ARG26      -0.1980
     56  CA        28.2030    5.8630   45.2870 C.3    26  ARG26       0.1597
     57  C         29.6550    5.8750   45.6820 C.2    26  ARG26       0.2287
     58  O         29.9980    5.8200   46.8580 O.2    26  ARG26      -0.2864
     59  CB        27.3650    6.6610   46.2810 C.3    26  ARG26       0.0334
     60  CG        27.5130    8.1600   46.1450 C.3    26  ARG26       0.0492
     61  CD        26.1530    8.8690   46.4670 C.3    26  ARG26       0.2205
     62  NE        26.3900   10.0810   47.2420 N.pl3  26  ARG26      -0.0865
     63  CZ        26.6560   11.2710   46.7070 C.cat  26  ARG26       0.5346
     64  NH1       26.8820   12.3130   47.4980 N.pl3  26  ARG26       0.1354
     65  NH2       26.6920   11.4210   45.3850 N.pl3  26  ARG26       0.1354
     66  N         35.5610    6.5200   42.0330 N.3    30  GLU30      -0.1231
     67  CA        35.2440    5.9240   40.7290 C.3    30  GLU30       0.1699
     68  C         34.6960    7.0730   39.8530 C.2    30  GLU30       0.2592
     69  O         35.0500    7.1920   38.6740 O.2    30  GLU30      -0.2718
     70  CB        34.1880    4.8230   40.8760 C.3    30  GLU30       0.0402
     71  CG        34.2380    3.7650   39.7190 C.3    30  GLU30       0.1161
     72  CD        33.7810    4.3020   38.3980 C.2    30  GLU30       0.3649
     73  OE1       32.7490    5.0120   38.3610 O.co2  30  GLU30      -0.2457
     74  OE2       34.4520    4.0440   37.3880 O.co2  30  GLU30      -0.2457
     75  N         33.8290    7.8800   40.4570 N.am   31  MET31      -0.1979
     76  CA        33.2540    9.0670   39.8500 C.3    31  MET31       0.1605
     77  C         34.3420   10.0920   39.4730 C.2    31  MET31       0.2287
     78  O         34.2720   10.7080   38.4140 O.2    31  MET31      -0.2864
     79  CB        32.2070    9.6650   40.8090 C.3    31  MET31       0.0413
     80  CG        31.5390   10.9210   40.2730 C.3    31  MET31       0.0598
     81  SD        30.6600   10.6700   38.6770 S.3    31  MET31      -0.1393
     82  CE        29.1590    9.8950   39.3110 C.3    31  MET31       0.0692
     83  N         37.4910    9.2670   38.6600 N.3    33  TYR33      -0.1227
     84  CA        38.1250    8.6760   37.4720 C.3    33  TYR33       0.1736
     85  C         37.2670    8.9630   36.2740 C.2    33  TYR33       0.2595
     86  O         37.7990    9.3760   35.2340 O.2    33  TYR33      -0.2718
     87  CB        38.2870    7.1520   37.6560 C.3    33  TYR33       0.0548
     88  CG        38.8130    6.3590   36.4710 C.ar   33  TYR33      -0.0200
     89  CD1       37.9420    5.7070   35.6200 C.ar   33  TYR33      -0.0009
     90  CD2       40.1870    6.1930   36.2580 C.ar   33  TYR33      -0.0009
     91  CE1       38.4030    4.9760   34.5390 C.ar   33  TYR33       0.0417
     92  CE2       40.6600    5.4110   35.1940 C.ar   33  TYR33       0.0417
     93  CZ        39.7390    4.8320   34.3290 C.ar   33  TYR33       0.1957
     94  OH        40.1330    4.0430   33.2700 O.3    33  TYR33      -0.2866
     95  N         35.9490    8.7540   36.4000 N.am   34  PHE34      -0.1976
     96  CA        35.0470    8.8950   35.2490 C.3    34  PHE34       0.1639
     97  C         35.1270   10.3670   34.7130 C.2    34  PHE34       0.2290
     98  O         35.2630   10.6220   33.5110 O.2    34  PHE34      -0.2864
     99  CB        33.6070    8.5520   35.6200 C.3    34  PHE34       0.0560
    100  CG        32.5900    8.9950   34.5720 C.ar   34  PHE34      -0.0200
    101  CD1       31.7820   10.1370   34.8010 C.ar   34  PHE34      -0.0042
    102  CD2       32.4570    8.3040   33.3640 C.ar   34  PHE34      -0.0042
    103  CE1       30.8770   10.5960   33.8290 C.ar   34  PHE34      -0.0003
    104  CE2       31.5260    8.7350   32.4050 C.ar   34  PHE34      -0.0003
    105  CZ        30.7350    9.8780   32.6440 C.ar   34  PHE34      -0.0000
    106  N         19.5200    7.7680   30.9930 N.3    56  THR56      -0.1218
    107  CA        20.7200    8.1230   31.7280 C.3    56  THR56       0.1862
    108  C         20.7970    9.6330   32.0280 C.2    56  THR56       0.2287
    109  O         21.0870   10.0280   33.1940 O.2    56  THR56      -0.2866
    110  CB        21.9700    7.5870   31.0240 C.3    56  THR56       0.1770
    111  OG1       21.8830    6.1490   31.0280 O.3    56  THR56      -0.2211
    112  CG2       23.2740    8.0540   31.7700 C.3    56  THR56       0.0375
    113  N         18.7030   10.7000   34.7490 N.3    59  SER59      -0.1202
    114  CA        19.2190   10.3210   36.0770 C.3    59  SER59       0.2020
    115  C         20.3920   11.1290   36.6320 C.2    59  SER59       0.2619
    116  O         20.6990   10.9920   37.8230 O.2    59  SER59      -0.2717
    117  CB        19.5810    8.8420   36.1430 C.3    59  SER59       0.2103
    118  OG        18.4270    8.0560   36.4030 O.3    59  SER59      -0.2182
    119  N         21.0870   11.9020   35.8000 N.am   60  ILE60      -0.1966
    120  CA        22.1470   12.7630   36.3110 C.3    60  ILE60       0.1712
    121  C         21.5030   13.9060   37.1330 C.2    60  ILE60       0.2458
    122  O         20.5250   14.4980   36.6920 O.2    60  ILE60      -0.2730
    123  CB        23.0320   13.3750   35.1810 C.3    60  ILE60       0.0289
    124  CG1       23.7270   12.2420   34.3740 C.3    60  ILE60       0.0022
    125  CG2       24.0920   14.3110   35.7690 C.3    60  ILE60       0.0023
    126  CD1       24.3800   12.7160   32.9950 C.3    60  ILE60       0.0001
    127  N         22.0070   14.1580   38.3460 N.am   61  PRO61      -0.2727
    128  CA        21.4740   15.2690   39.1340 C.3    61  PRO61       0.1402
    129  C         21.4630   16.5710   38.3440 C.2    61  PRO61       0.2269
    130  O         22.4620   16.9670   37.7640 O.2    61  PRO61      -0.2865
    131  CB        22.4470   15.3520   40.3180 C.3    61  PRO61       0.0296
    132  CG        22.8570   13.9000   40.5340 C.3    61  PRO61       0.0237
    133  CD        23.0310   13.3920   39.0940 C.3    61  PRO61       0.0939
    134  N         24.1440   19.1060   38.0490 N.3    64  PHE64      -0.1241
    135  CA        25.3790   18.5810   37.4960 C.3    64  PHE64       0.1605
    136  C         25.3350   18.3050   35.9920 C.2    64  PHE64       0.2264
    137  O         26.3120   17.8500   35.4250 O.2    64  PHE64      -0.2867
    138  CB        25.7790   17.3060   38.2540 C.3    64  PHE64       0.0534
    139  CG        26.0520   17.5300   39.7320 C.ar   64  PHE64      -0.0203
    140  CD1       25.7310   16.5280   40.6710 C.ar   64  PHE64      -0.0042
    141  CD2       26.6300   18.7240   40.1960 C.ar   64  PHE64      -0.0042
    142  CE1       25.9850   16.7010   42.0370 C.ar   64  PHE64      -0.0003
    143  CE2       26.8940   18.9160   41.5990 C.ar   64  PHE64      -0.0003
    144  CZ        26.5690   17.8940   42.5100 C.ar   64  PHE64      -0.0000
    145  N         27.2350   17.6850   31.7370 N.3    67  LEU67      -0.1245
    146  CA        28.5310   17.4350   32.2970 C.3    67  LEU67       0.1561
    147  C         29.4700   18.5080   31.7700 C.2    67  LEU67       0.2260
    148  O         29.6560   18.6060   30.5570 O.2    67  LEU67      -0.2867
    149  CB        29.0310   16.0190   31.9180 C.3    67  LEU67       0.0270
    150  CG        28.0320   14.9560   32.4200 C.3    67  LEU67       0.0019
    151  CD1       28.4980   13.5300   31.9740 C.3    67  LEU67       0.0001
    152  CD2       27.8020   15.0480   33.9350 C.3    67  LEU67       0.0001
    153  N         32.6960   18.9960   28.5580 N.3    70  ARG70      -0.1245
    154  CA        32.4960   17.9450   27.5270 C.3    70  ARG70       0.1563
    155  C         31.2850   18.2630   26.6740 C.2    70  ARG70       0.2260
    156  O         30.2890   18.7770   27.1820 O.2    70  ARG70      -0.2867
    157  CB        32.2760   16.5870   28.2270 C.3    70  ARG70       0.0307
    158  CG        33.5570   16.0470   28.8870 C.3    70  ARG70       0.0489
    159  CD        33.2510   15.1740   30.1290 C.3    70  ARG70       0.2205
    160  NE        32.8040   16.0150   31.2500 N.pl3  70  ARG70      -0.0865
    161  CZ        32.4400   15.5900   32.4750 C.cat  70  ARG70       0.5346
    162  NH1       32.4410   14.3090   32.8120 N.pl3  70  ARG70       0.1354
    163  NH2       32.0630   16.4720   33.3830 N.pl3  70  ARG70       0.1354
    164  N         28.7240    6.7950   27.4640 N.3   119  ILE119     -0.1245
    165  CA        28.6550    6.8310   28.9380 C.3   119  ILE119      0.1561
    166  C         27.3720    6.2190   29.5150 C.2   119  ILE119      0.2260
    167  O         27.1020    6.3450   30.7230 O.2   119  ILE119     -0.2867
    168  CB        28.9160    8.2740   29.5040 C.3   119  ILE119      0.0252
    169  CG1       27.7090    9.2220   29.2410 C.3   119  ILE119      0.0019
    170  CG2       30.2200    8.8260   28.9470 C.3   119  ILE119      0.0019
    171  CD1       27.8040   10.5120   30.0020 C.3   119  ILE119      0.0001
    172  N         24.6070    0.8110   25.7000 N.3   125  TYR125     -0.1241
    173  CA        25.7640   -0.0950   25.6970 C.3   125  TYR125      0.1605
    174  C         25.5670   -1.3650   24.8460 C.2   125  TYR125      0.2264
    175  O         26.4920   -1.8150   24.1850 O.2   125  TYR125     -0.2867
    176  CB        26.0940   -0.5410   27.1310 C.3   125  TYR125      0.0534
    177  CG        26.6540    0.4930   28.0490 C.ar  125  TYR125     -0.0201
    178  CD1       27.6150    1.4260   27.6110 C.ar  125  TYR125     -0.0009
    179  CD2       26.2590    0.5160   29.3940 C.ar  125  TYR125     -0.0009
    180  CE1       28.1660    2.3640   28.5150 C.ar  125  TYR125      0.0417
    181  CE2       26.7640    1.4530   30.2750 C.ar  125  TYR125      0.0417
    182  CZ        27.7230    2.3600   29.8430 C.ar  125  TYR125      0.1957
    183  OH        28.2480    3.2500   30.7380 O.3   125  TYR125     -0.2866
    184  N         35.3990   -0.2690   34.6740 N.3   138  THR138     -0.1218
    185  CA        35.7270   -0.4090   36.0910 C.3   138  THR138      0.1862
    186  C         35.0690   -1.6850   36.6550 C.2   138  THR138      0.2287
    187  O         33.8610   -1.7990   36.7200 O.2   138  THR138     -0.2866
    188  CB        35.2970    0.8720   36.8960 C.3   138  THR138      0.1770
    189  OG1       35.8490    2.0350   36.2490 O.3   138  THR138     -0.2211
    190  CG2       35.8280    0.7940   38.3530 C.3   138  THR138      0.0375
@<TRIPOS>BOND
     1   175   174    2
     2   174   173    1
     3   173   172    1
     4   173   176    1
     5   155   156    2
     6   155   154    1
     7   176   177    1
     8   164   165    1
     9   154   157    1
    10   154   153    1
    11   178   177   ar
    12   178   180   ar
    13   177   179   ar
    14     1     2    1
    15   157   158    1
    16   180   182   ar
    17   158   159    1
    18   165   168    1
    19   165   166    1
    20   170   168    1
    21   169   168    1
    22   169   171    1
    23   179   181   ar
    24   166   167    2
    25     2     5    1
    26     2     3    1
    27     7     5    1
    28   182   181   ar
    29   182   183    1
    30     5     6    1
    31   159   160    1
    32     4     3    2
    33     3     9   am
    34   148   147    2
    35   106   107    1
    36   110   111    1
    37   110   107    1
    38   110   112    1
    39    14    13    1
    40   160   161    2
    41     6     8    1
    42     9    10    1
    43    13    10    1
    44    13    15    1
    45   107   108    1
    46   145   146    1
    47   147   146    1
    48   149   146    1
    49   149   150    1
    50   151   150    1
    51   108   109    2
    52    10    11    1
    53   104   105   ar
    54   104   102   ar
    55   150   152    1
    56   161   162    1
    57   161   163    1
    58   105   103   ar
    59   126   124    1
    60    94    93    1
    61   102   100   ar
    62    98    97    2
    63    11    12    2
    64    11    16   am
    65   103   101   ar
    66    93    91   ar
    67    93    92   ar
    68   124   123    1
    69    91    89   ar
    70   100   101   ar
    71   100    99    1
    72   184   185    1
    73    97    96    1
    74    16    17    1
    75   113   114    1
    76   123   125    1
    77   123   120    1
    78    92    90   ar
    79    86    85    2
    80    96    99    1
    81    96    95    1
    82   137   136    2
    83    89    88   ar
    84   119   120    1
    85   119   115   am
    86    17    18    1
    87    17    20    1
    88   136   135    1
    89   114   117    1
    90   114   115    1
    91   185   186    1
    92   185   188    1
    93   117   118    1
    94    18    19    2
    95   189   188    1
    96    90    88   ar
    97    85    95   am
    98    85    84    1
    99   120   121    1
   100    88    87    1
   101   115   116    2
   102   186   187    2
   103   122   121    2
   104   188   190    1
   105    22    23    1
   106    22    21    1
   107   121   127   am
   108    24    23    2
   109    74    72   ar
   110    84    87    1
   111    84    83    1
   112    40    38    1
   113   135   134    1
   114   135   138    1
   115    23    25   am
   116   130   129    2
   117   138   139    1
   118   129   128    1
   119   127   133    1
   120   127   128    1
   121    73    72   ar
   122    72    71    1
   123    78    77    2
   124    69    68    2
   125    81    82    1
   126    81    80    1
   127    25    26    1
   128    38    39    1
   129    38    37    1
   130   133   132    1
   131   128   131    1
   132    28    27    2
   133    26    27    1
   134    26    29    1
   135    27    33   am
   136    77    76    1
   137    52    54   ar
   138    52    50   ar
   139    33    34    1
   140    54    53   ar
   141    71    70    1
   142   139   141   ar
   143   139   140   ar
   144    76    75    1
   145    76    79    1
   146    68    75   am
   147    68    67    1
   148    34    37    1
   149    34    35    1
   150   141   143   ar
   151    80    79    1
   152   131   132    1
   153    31    30    2
   154    50    49   ar
   155    50    48   ar
   156   140   142   ar
   157    67    70    1
   158    67    66    1
   159    49    47   ar
   160    29    30    1
   161    30    32   am
   162    53    51   ar
   163    35    36    2
   164   143   144   ar
   165    48    51   ar
   166    48    46   ar
   167   142   144   ar
   168    47    46   ar
   169    46    45    1
   170    44    43    2
   171    41    42    1
   172    45    42    1
   173    43    42    1
   174    43    55   am
   175    56    55    1
   176    56    57    1
   177    56    59    1
   178    65    63    1
   179    57    58    2
   180    60    59    1
   181    60    61    1
   182    61    62    1
   183    63    62    2
   184    63    64    1
