@<TRIPOS>MOLECULE
tmp/3eemB01.pdb
 187 181 0 0 0
SMALL
GASTEIGER

@<TRIPOS>ATOM
      1  N         32.6720    3.5140   28.2050 N.3     7  ILE7       -0.1231
      2  CA        33.2060    3.6800   29.5500 C.3     7  ILE7        0.1692
      3  C         32.0800    3.3610   30.5530 C.2     7  ILE7        0.2592
      4  O         30.9500    3.8740   30.4440 O.2     7  ILE7       -0.2718
      5  CB        33.8840    5.0580   29.7990 C.3     7  ILE7        0.0266
      6  CG1       34.3860    5.1060   31.2650 C.3     7  ILE7        0.0019
      7  CG2       32.9310    6.2360   29.5770 C.3     7  ILE7        0.0020
      8  CD1       35.4650    6.2120   31.5440 C.3     7  ILE7        0.0001
      9  N         32.3740    2.4650   31.4890 N.am    8  VAL8       -0.1966
     10  CA        31.3310    1.8890   32.3640 C.3     8  VAL8        0.1727
     11  C         31.9680    1.3590   33.6430 C.2     8  VAL8        0.2616
     12  O         33.1230    0.9400   33.6360 O.2     8  VAL8       -0.2715
     13  CB        30.5260    0.7370   31.6100 C.3     8  VAL8        0.0290
     14  CG1       31.4140   -0.4370   31.2570 C.3     8  VAL8        0.0023
     15  CG2       29.3100    0.2850   32.4120 C.3     8  VAL8        0.0023
     16  N         31.2000    1.3650   34.7240 N.am    9  ALA9       -0.1977
     17  CA        31.5840    0.7050   35.9840 C.3     9  ALA9        0.1597
     18  C         30.6590   -0.5250   36.1690 C.2     9  ALA9        0.2287
     19  O         29.4510   -0.3620   36.2250 O.2     9  ALA9       -0.2864
     20  CB        31.4140    1.6870   37.1360 C.3     9  ALA9        0.0319
     21  N         17.0030    2.7770   37.6140 N.3    21  GLY21      -0.1210
     22  CA        17.3140    4.0880   37.0120 C.3    21  GLY21       0.1956
     23  C         18.5680    4.7630   37.5660 C.2    21  GLY21       0.2612
     24  O         19.0410    5.7650   37.0060 O.2    21  GLY21      -0.2717
     25  N         19.1630    4.1620   38.6020 N.am   22  ASN22      -0.1960
     26  CA        20.3700    4.6580   39.2430 C.3    22  ASN22       0.1819
     27  C         21.5740    3.7170   39.2880 C.2    22  ASN22       0.2621
     28  O         21.4630    2.5240   39.1190 O.2    22  ASN22      -0.2715
     29  CB        20.0430    5.1350   40.6880 C.3    22  ASN22       0.1195
     30  CG        19.1450    6.3330   40.6850 C.2    22  ASN22       0.2630
     31  OD1       19.5630    7.4190   40.2560 O.2    22  ASN22      -0.2716
     32  ND2       17.9030    6.1560   41.1330 N.am   22  ASN22      -0.0877
     33  N         22.7280    4.2860   39.5780 N.am   23  LEU23      -0.1977
     34  CA        23.9530    3.5200   39.8590 C.3    23  LEU23       0.1596
     35  C         23.7430    2.7070   41.1690 C.2    23  LEU23       0.2287
     36  O         23.0770    3.2300   42.1080 O.2    23  LEU23      -0.2864
     37  CB        25.1340    4.4890   39.9780 C.3    23  LEU23       0.0297
     38  CG        25.3740    5.4820   38.8200 C.3    23  LEU23       0.0022
     39  CD1       26.6590    6.3140   39.1270 C.3    23  LEU23       0.0001
     40  CD2       25.5110    4.7330   37.4800 C.3    23  LEU23       0.0001
     41  N         25.8870    1.9000   43.5060 N.3    25  TRP25      -0.1227
     42  CA        26.8970    2.2490   44.5160 C.3    25  TRP25       0.1737
     43  C         27.1180    3.7330   44.3020 C.2    25  TRP25       0.2595
     44  O         26.7600    4.2940   43.2190 O.2    25  TRP25      -0.2718
     45  CB        28.2240    1.4740   44.2890 C.3    25  TRP25       0.0564
     46  CG        28.5790    1.4140   42.7720 C.ar   25  TRP25       0.0003
     47  CD1       29.1830    2.3880   42.0180 C.ar   25  TRP25       0.0946
     48  CD2       28.3160    0.3350   41.8950 C.ar   25  TRP25       0.0152
     49  NE1       29.3220    1.9790   40.7030 N.ar   25  TRP25      -0.2442
     50  CE2       28.7740    0.7190   40.5950 C.ar   25  TRP25       0.0810
     51  CE3       27.7530   -0.9320   42.0650 C.ar   25  TRP25       0.0012
     52  CZ2       28.6620   -0.1380   39.4720 C.ar   25  TRP25       0.0191
     53  CZ3       27.6540   -1.7860   40.9430 C.ar   25  TRP25       0.0001
     54  CH2       28.0950   -1.3750   39.6670 C.ar   25  TRP25       0.0015
     55  N         27.6920    4.3730   45.3170 N.am   26  ARG26      -0.1980
     56  CA        28.0980    5.7790   45.2400 C.3    26  ARG26       0.1597
     57  C         29.5860    5.8200   45.5750 C.2    26  ARG26       0.2287
     58  O         29.9680    5.7810   46.7280 O.2    26  ARG26      -0.2864
     59  CB        27.2810    6.6920   46.1970 C.3    26  ARG26       0.0334
     60  CG        27.9210    8.1170   46.3850 C.3    26  ARG26       0.0492
     61  CD        26.9250    9.2740   46.7170 C.3    26  ARG26       0.2205
     62  NE        27.2740   10.4490   45.9300 N.pl3  26  ARG26      -0.0865
     63  CZ        26.6730   10.8190   44.7900 C.cat  26  ARG26       0.5346
     64  NH1       25.6410   10.1270   44.2970 N.pl3  26  ARG26       0.1354
     65  NH2       27.0980   11.9090   44.1460 N.pl3  26  ARG26       0.1354
     66  N         35.7520    6.3150   41.9460 N.3    30  GLU30      -0.1231
     67  CA        35.3340    5.7910   40.6810 C.3    30  GLU30       0.1699
     68  C         34.7550    6.9790   39.8620 C.2    30  GLU30       0.2592
     69  O         35.1620    7.1560   38.7150 O.2    30  GLU30      -0.2718
     70  CB        34.3020    4.6840   40.8820 C.3    30  GLU30       0.0402
     71  CG        34.2220    3.6910   39.7570 C.3    30  GLU30       0.1161
     72  CD        33.8590    4.2730   38.4260 C.2    30  GLU30       0.3649
     73  OE1       32.7920    4.9270   38.3390 O.co2  30  GLU30      -0.2457
     74  OE2       34.5990    4.0330   37.4550 O.co2  30  GLU30      -0.2457
     75  N         33.8090    7.7380   40.4300 N.am   31  MET31      -0.1979
     76  CA        33.2700    8.8970   39.7490 C.3    31  MET31       0.1605
     77  C         34.3840    9.9450   39.3250 C.2    31  MET31       0.2287
     78  O         34.2750   10.5860   38.2740 O.2    31  MET31      -0.2864
     79  CB        32.1420    9.5330   40.5980 C.3    31  MET31       0.0413
     80  CG        31.5760   10.8650   40.0380 C.3    31  MET31       0.0598
     81  SD        30.7960   10.9360   38.3260 S.3    31  MET31      -0.1393
     82  CE        29.2630   10.0750   38.7670 C.3    31  MET31       0.0692
     83  N         37.6530    9.2810   38.6250 N.3    33  TYR33      -0.1227
     84  CA        38.2020    8.6140   37.4160 C.3    33  TYR33       0.1736
     85  C         37.3630    8.8640   36.1410 C.2    33  TYR33       0.2595
     86  O         37.9010    9.3140   35.1320 O.2    33  TYR33      -0.2718
     87  CB        38.3330    7.1250   37.6940 C.3    33  TYR33       0.0548
     88  CG        38.8670    6.3240   36.5260 C.ar   33  TYR33      -0.0200
     89  CD1       37.9950    5.6830   35.6520 C.ar   33  TYR33      -0.0009
     90  CD2       40.2300    6.1810   36.3080 C.ar   33  TYR33      -0.0009
     91  CE1       38.4650    4.9150   34.6310 C.ar   33  TYR33       0.0417
     92  CE2       40.7110    5.4080   35.2310 C.ar   33  TYR33       0.0417
     93  CZ        39.8060    4.8050   34.4070 C.ar   33  TYR33       0.1957
     94  OH        40.2400    4.0240   33.3690 O.3    33  TYR33      -0.2866
     95  N         36.0510    8.6000   36.2050 N.am   34  PHE34      -0.1976
     96  CA        35.1590    8.8220   35.0260 C.3    34  PHE34       0.1639
     97  C         35.2250   10.3380   34.6120 C.2    34  PHE34       0.2290
     98  O         35.3060   10.7100   33.4070 O.2    34  PHE34      -0.2864
     99  CB        33.7310    8.4470   35.4060 C.3    34  PHE34       0.0560
    100  CG        32.7050    8.9010   34.4190 C.ar   34  PHE34      -0.0200
    101  CD1       31.9170   10.0450   34.6860 C.ar   34  PHE34      -0.0042
    102  CD2       32.5250    8.2190   33.1910 C.ar   34  PHE34      -0.0042
    103  CE1       30.9890   10.5270   33.7800 C.ar   34  PHE34      -0.0003
    104  CE2       31.5450    8.6730   32.3130 C.ar   34  PHE34      -0.0003
    105  CZ        30.7880    9.8430   32.6010 C.ar   34  PHE34      -0.0000
    106  N         19.6510    7.7060   31.0350 N.3    56  THR56      -0.1218
    107  CA        20.8460    8.0580   31.7460 C.3    56  THR56       0.1862
    108  C         20.9330    9.5630   31.9790 C.2    56  THR56       0.2287
    109  O         21.2420   10.0040   33.1320 O.2    56  THR56      -0.2866
    110  CB        22.0890    7.5140   31.0460 C.3    56  THR56       0.1770
    111  OG1       21.9920    6.0960   31.0770 O.3    56  THR56      -0.2211
    112  CG2       23.3980    7.9320   31.7860 C.3    56  THR56       0.0375
    113  N         18.7660   10.5720   34.7390 N.3    59  SER59      -0.1202
    114  CA        19.2840   10.1970   36.0570 C.3    59  SER59       0.2020
    115  C         20.4070   11.0940   36.6220 C.2    59  SER59       0.2619
    116  O         20.7450   10.9420   37.8170 O.2    59  SER59      -0.2717
    117  CB        19.8210    8.7790   36.0510 C.3    59  SER59       0.2103
    118  OG        21.1470    8.7610   35.4310 O.3    59  SER59      -0.2182
    119  N         21.0130   11.9650   35.8010 N.am   60  ILE60      -0.1966
    120  CA        22.1170   12.7820   36.3060 C.3    60  ILE60       0.1712
    121  C         21.5180   13.9410   37.1460 C.2    60  ILE60       0.2458
    122  O         20.5810   14.5850   36.6580 O.2    60  ILE60      -0.2730
    123  CB        22.9910   13.3720   35.1760 C.3    60  ILE60       0.0289
    124  CG1       23.7720   12.2480   34.4260 C.3    60  ILE60       0.0022
    125  CG2       23.9940   14.3870   35.7800 C.3    60  ILE60       0.0023
    126  CD1       24.2880   12.6800   32.9800 C.3    60  ILE60       0.0001
    127  N         22.0250   14.1840   38.3900 N.am   61  PRO61      -0.2727
    128  CA        21.4120   15.3070   39.1510 C.3    61  PRO61       0.1402
    129  C         21.3970   16.5700   38.3080 C.2    61  PRO61       0.2269
    130  O         22.4110   16.8960   37.6760 O.2    61  PRO61      -0.2865
    131  CB        22.3650   15.5030   40.3410 C.3    61  PRO61       0.0296
    132  CG        22.9380   14.1270   40.6090 C.3    61  PRO61       0.0237
    133  CD        23.0820   13.5090   39.1860 C.3    61  PRO61       0.0939
    134  N         24.2270   18.9730   38.0070 N.3    64  PHE64      -0.1241
    135  CA        25.4770   18.4920   37.4150 C.3    64  PHE64       0.1605
    136  C         25.3420   18.1950   35.9090 C.2    64  PHE64       0.2264
    137  O         26.2440   17.6500   35.3010 O.2    64  PHE64      -0.2867
    138  CB        25.9700   17.2580   38.1400 C.3    64  PHE64       0.0534
    139  CG        26.3720   17.4860   39.5850 C.ar   64  PHE64      -0.0203
    140  CD1       25.4520   17.2830   40.6290 C.ar   64  PHE64      -0.0042
    141  CD2       27.7050   17.7960   39.9200 C.ar   64  PHE64      -0.0042
    142  CE1       25.8310   17.4430   42.0000 C.ar   64  PHE64      -0.0003
    143  CE2       28.1090   17.9690   41.2990 C.ar   64  PHE64      -0.0003
    144  CZ        27.1550   17.7920   42.3420 C.ar   64  PHE64      -0.0000
    145  N         27.1820   17.5240   31.6590 N.3    67  LEU67      -0.1245
    146  CA        28.5210   17.2790   32.1990 C.3    67  LEU67       0.1561
    147  C         29.4820   18.3560   31.6770 C.2    67  LEU67       0.2260
    148  O         29.6170   18.4750   30.4480 O.2    67  LEU67      -0.2867
    149  CB        29.0090   15.8760   31.8090 C.3    67  LEU67       0.0270
    150  CG        28.0060   14.8420   32.3570 C.3    67  LEU67       0.0019
    151  CD1       28.2380   13.4430   31.7830 C.3    67  LEU67       0.0001
    152  CD2       27.9730   14.8140   33.9150 C.3    67  LEU67       0.0001
    153  N         28.7320    6.7920   27.4300 N.3   119  ILE119     -0.1245
    154  CA        28.7130    6.7740   28.9280 C.3   119  ILE119      0.1561
    155  C         27.4380    6.1280   29.5120 C.2   119  ILE119      0.2260
    156  O         27.1820    6.2350   30.7350 O.2   119  ILE119     -0.2867
    157  CB        28.9440    8.1940   29.5490 C.3   119  ILE119      0.0252
    158  CG1       27.7230    9.1680   29.3070 C.3   119  ILE119      0.0019
    159  CG2       30.2350    8.8370   28.9860 C.3   119  ILE119      0.0019
    160  CD1       27.9200   10.5530   29.9850 C.3   119  ILE119      0.0001
    161  N         24.6240    0.7650   25.6790 N.3   125  TYR125     -0.1241
    162  CA        25.7980   -0.1350   25.6770 C.3   125  TYR125      0.1605
    163  C         25.6180   -1.4010   24.7970 C.2   125  TYR125      0.2264
    164  O         26.6020   -1.8510   24.1420 O.2   125  TYR125     -0.2867
    165  CB        26.1800   -0.5930   27.0710 C.3   125  TYR125      0.0534
    166  CG        26.7580    0.4450   28.0040 C.ar  125  TYR125     -0.0201
    167  CD1       27.7200    1.3780   27.5800 C.ar  125  TYR125     -0.0009
    168  CD2       26.3620    0.4600   29.3380 C.ar  125  TYR125     -0.0009
    169  CE1       28.2700    2.3300   28.4840 C.ar  125  TYR125      0.0417
    170  CE2       26.8740    1.3860   30.2260 C.ar  125  TYR125      0.0417
    171  CZ        27.8430    2.3080   29.8050 C.ar  125  TYR125      0.1957
    172  OH        28.3390    3.1940   30.7330 O.3   125  TYR125     -0.2866
    173  N         36.5460    1.1060   28.4200 N.3   136  LEU136     -0.1245
    174  CA        37.1800    1.3310   29.7490 C.3   136  LEU136      0.1561
    175  C         36.1630    0.8310   30.7830 C.2   136  LEU136      0.2260
    176  O         35.0390    1.3930   30.9320 O.2   136  LEU136     -0.2867
    177  CB        37.5150    2.8330   29.9460 C.3   136  LEU136      0.0270
    178  CG        38.7050    3.3710   29.1290 C.3   136  LEU136      0.0019
    179  CD1       38.7700    4.9410   29.2340 C.3   136  LEU136      0.0001
    180  CD2       40.0620    2.6610   29.5960 C.3   136  LEU136      0.0001
    181  N         35.5200   -0.2630   34.6980 N.3   138  THR138     -0.1218
    182  CA        35.8300   -0.4460   36.0980 C.3   138  THR138      0.1862
    183  C         35.1520   -1.7330   36.6260 C.2   138  THR138      0.2287
    184  O         33.9570   -1.8650   36.6390 O.2   138  THR138     -0.2866
    185  CB        35.4590    0.7560   36.9250 C.3   138  THR138      0.1770
    186  OG1       35.9480    1.9210   36.2600 O.3   138  THR138     -0.2211
    187  CG2       36.0760    0.6440   38.3140 C.3   138  THR138      0.0375
@<TRIPOS>BOND
     1   164   163    2
     2   163   162    1
     3   162   161    1
     4   162   165    1
     5   165   166    1
     6   153   154    1
     7   167   166   ar
     8   167   169   ar
     9   166   168   ar
    10     1     2    1
    11   173   174    1
    12   169   171   ar
    13   154   155    1
    14   154   157    1
    15   159   157    1
    16   178   179    1
    17   178   180    1
    18   178   177    1
    19   158   157    1
    20   158   160    1
    21   168   170   ar
    22   155   156    2
    23     2     5    1
    24     2     3    1
    25     7     5    1
    26   174   177    1
    27   174   175    1
    28     5     6    1
    29   171   170   ar
    30   171   172    1
    31     4     3    2
    32   148   147    2
    33     3     9   am
    34   175   176    2
    35   106   107    1
    36   110   111    1
    37   110   107    1
    38   110   112    1
    39    14    13    1
    40     6     8    1
    41     9    10    1
    42    13    10    1
    43    13    15    1
    44   145   146    1
    45   147   146    1
    46   107   108    1
    47   151   150    1
    48   149   146    1
    49   149   150    1
    50   108   109    2
    51   104   105   ar
    52   104   102   ar
    53   150   152    1
    54    10    11    1
    55   105   103   ar
    56   126   124    1
    57   102   100   ar
    58    94    93    1
    59    98    97    2
    60    12    11    2
    61    11    16   am
    62   103   101   ar
    63    93    91   ar
    64    93    92   ar
    65   100   101   ar
    66   100    99    1
    67   124   123    1
    68    97    96    1
    69    91    89   ar
    70   181   182    1
    71    16    17    1
    72   113   114    1
    73    96    99    1
    74    96    95    1
    75    86    85    2
    76   123   125    1
    77   123   120    1
    78    92    90   ar
    79   137   136    2
    80   118   117    1
    81    89    88   ar
    82   119   120    1
    83   119   115   am
    84   136   135    1
    85    17    18    1
    86    17    20    1
    87   117   114    1
    88   114   115    1
    89   182   183    1
    90   182   185    1
    91    85    95   am
    92    85    84    1
    93    18    19    2
    94   186   185    1
    95   120   121    1
    96    90    88   ar
    97    88    87    1
    98   115   116    2
    99   183   184    2
   100   122   121    2
   101   185   187    1
   102    24    23    2
   103    22    23    1
   104    22    21    1
   105   121   127   am
   106   135   134    1
   107   135   138    1
   108    84    87    1
   109    84    83    1
   110    74    72   ar
   111    40    38    1
   112    23    25   am
   113   130   129    2
   114   138   139    1
   115    78    77    2
   116   129   128    1
   117    81    82    1
   118    81    80    1
   119    73    72   ar
   120   127   128    1
   121   127   133    1
   122    72    71    1
   123    25    26    1
   124    69    68    2
   125    38    39    1
   126    38    37    1
   127    28    27    2
   128   128   131    1
   129   133   132    1
   130    26    27    1
   131    26    29    1
   132    27    33   am
   133    77    76    1
   134    52    54   ar
   135    52    50   ar
   136    33    34    1
   137   139   141   ar
   138   139   140   ar
   139    54    53   ar
   140    76    75    1
   141    76    79    1
   142    71    70    1
   143    34    37    1
   144    34    35    1
   145    68    75   am
   146    68    67    1
   147   141   143   ar
   148    80    79    1
   149    31    30    2
   150   131   132    1
   151    50    49   ar
   152    50    48   ar
   153   140   142   ar
   154    67    70    1
   155    67    66    1
   156    30    29    1
   157    30    32   am
   158    49    47   ar
   159    53    51   ar
   160    35    36    2
   161   143   144   ar
   162    48    51   ar
   163    48    46   ar
   164   142   144   ar
   165    47    46   ar
   166    46    45    1
   167    44    43    2
   168    41    42    1
   169    65    63    1
   170    45    42    1
   171    64    63    1
   172    43    42    1
   173    43    55   am
   174    63    62    2
   175    56    55    1
   176    56    57    1
   177    56    59    1
   178    57    58    2
   179    62    61    1
   180    59    60    1
   181    60    61    1
