@<TRIPOS>MOLECULE
tmp/3eeyA00.pdb
 216 212 0 0 0
SMALL
GASTEIGER

@<TRIPOS>ATOM
      1  N          7.2060  -12.9500  -52.1730 N.3    27  ALA27      -0.1231
      2  CA         7.9680  -12.6550  -53.3790 C.3    27  ALA27       0.1694
      3  C          8.1170  -11.1590  -53.6600 C.2    27  ALA27       0.2593
      4  O          8.9110  -10.7610  -54.5130 O.2    27  ALA27      -0.2718
      5  CB         7.3560  -13.3620  -54.5730 C.3    27  ALA27       0.0304
      6  N          7.3590  -10.3380  -52.9410 N.am   28  THR28      -0.1939
      7  CA         7.3580   -8.8910  -53.1370 C.3    28  THR28       0.2028
      8  C          7.2760   -8.2320  -51.7660 C.2    28  THR28       0.2642
      9  O          6.1940   -7.8680  -51.3180 O.2    28  THR28      -0.2714
     10  CB         6.1510   -8.4230  -54.0070 C.3    28  THR28       0.1808
     11  OG1        4.9600   -9.0540  -53.5430 O.3    28  THR28      -0.2208
     12  CG2        6.3320   -8.7820  -55.4780 C.3    28  THR28       0.0379
     13  N          8.4260   -8.0930  -51.1090 N.am   29  CYS29      -0.1953
     14  CA         8.5070   -7.6310  -49.7170 C.3    29  CYS29       0.1843
     15  C          7.8520   -6.3010  -49.4030 C.2    29  CYS29       0.2626
     16  O          7.0320   -6.2250  -48.4870 O.2    29  CYS29      -0.2714
     17  CB         9.9570   -7.6000  -49.2390 C.3    29  CYS29       0.0997
     18  SG        10.3900   -9.1010  -48.4270 S.3    29  CYS29      -0.0797
     19  N          8.2300   -5.2660  -50.1520 N.am   30  GLY30      -0.1940
     20  CA         7.7310   -3.9110  -49.9410 C.3    30  GLY30       0.2014
     21  C          8.0540   -3.4140  -48.5460 C.2    30  GLY30       0.2638
     22  O          9.2040   -3.4750  -48.1020 O.2    30  GLY30      -0.2714
     23  N          7.0200   -2.9660  -47.8420 N.am   31  ASN31      -0.1972
     24  CA         7.1600   -2.4910  -46.4700 C.3    31  ASN31       0.1688
     25  C          7.1370   -3.6000  -45.4120 C.2    31  ASN31       0.2292
     26  O          7.4410   -3.3570  -44.2420 O.2    31  ASN31      -0.2864
     27  CB         6.1160   -1.4150  -46.1780 C.3    31  ASN31       0.1181
     28  CG         6.3290   -0.1530  -47.0080 C.2    31  ASN31       0.2629
     29  OD1        7.4590    0.3160  -47.1780 O.2    31  ASN31      -0.2716
     30  ND2        5.2400    0.4030  -47.5220 N.am   31  ASN31      -0.0877
     31  N          4.5410   -5.9660  -44.6920 N.3    33  ASN33      -0.1225
     32  CA         3.2400   -6.3390  -44.1240 C.3    33  ASN33       0.1785
     33  C          2.8690   -7.8100  -44.3240 C.2    33  ASN33       0.2597
     34  O          2.5300   -8.5020  -43.3590 O.2    33  ASN33      -0.2718
     35  CB         2.1410   -5.4370  -44.6840 C.3    33  ASN33       0.1169
     36  CG         2.3680   -3.9780  -44.3690 C.2    33  ASN33       0.2627
     37  OD1        2.3520   -3.5720  -43.2050 O.2    33  ASN33      -0.2716
     38  ND2        2.5800   -3.1750  -45.4080 N.am   33  ASN33      -0.0877
     39  N          2.9510   -8.2780  -45.5700 N.am   34  ASP34      -0.1974
     40  CA         2.7460   -9.6950  -45.8960 C.3    34  ASP34       0.1709
     41  C          3.8210  -10.6100  -45.3030 C.2    34  ASP34       0.2293
     42  O          3.5270  -11.7460  -44.9450 O.2    34  ASP34      -0.2864
     43  CB         2.6720   -9.9070  -47.4090 C.3    34  ASP34       0.1436
     44  CG         1.4140   -9.3210  -48.0340 C.2    34  ASP34       0.3671
     45  OD1        0.5060   -8.8930  -47.3000 O.co2  34  ASP34      -0.2456
     46  OD2        1.3300   -9.2990  -49.2780 O.co2  34  ASP34      -0.2456
     47  N         11.7430  -11.3920  -50.6070 N.3    51  PHE51      -0.1227
     48  CA        12.4750  -10.8910  -51.7620 C.3    51  PHE51       0.1736
     49  C         12.0710   -9.4660  -52.0820 C.2    51  PHE51       0.2595
     50  O         10.8830   -9.1340  -52.0390 O.2    51  PHE51      -0.2718
     51  CB        12.1860  -11.7500  -53.0070 C.3    51  PHE51       0.0547
     52  CG        12.7840  -13.1240  -52.9620 C.ar   51  PHE51      -0.0202
     53  CD1       14.0760  -13.3540  -53.4410 C.ar   51  PHE51      -0.0042
     54  CD2       12.0570  -14.1950  -52.4630 C.ar   51  PHE51      -0.0042
     55  CE1       14.6370  -14.6280  -53.4060 C.ar   51  PHE51      -0.0003
     56  CE2       12.6100  -15.4700  -52.4190 C.ar   51  PHE51      -0.0003
     57  CZ        13.9060  -15.6830  -52.8820 C.ar   51  PHE51      -0.0000
     58  N         13.0590   -8.6380  -52.4070 N.am   52  ASP52      -0.1960
     59  CA        12.8350   -7.3420  -53.0440 C.3    52  ASP52       0.1840
     60  C         14.1190   -6.8820  -53.7280 C.2    52  ASP52       0.2622
     61  O         15.2090   -7.3630  -53.4110 O.2    52  ASP52      -0.2715
     62  CB        12.3550   -6.2930  -52.0380 C.3    52  ASP52       0.1450
     63  CG        11.3910   -5.2930  -52.6560 C.2    52  ASP52       0.3671
     64  OD1       11.7930   -4.5350  -53.5610 O.co2  52  ASP52      -0.2456
     65  OD2       10.2210   -5.2540  -52.2280 O.co2  52  ASP52      -0.2456
     66  N         13.9810   -5.9550  -54.6710 N.am   53  ILE53      -0.1963
     67  CA        15.1170   -5.4440  -55.4370 C.3    53  ILE53       0.1727
     68  C         15.5910   -4.0770  -54.9380 C.2    53  ILE53       0.2616
     69  O         16.5740   -3.5350  -55.4500 O.2    53  ILE53      -0.2715
     70  CB        14.8200   -5.3780  -56.9690 C.3    53  ILE53       0.0290
     71  CG1       13.6120   -4.4820  -57.2670 C.3    53  ILE53       0.0022
     72  CG2       14.6240   -6.7750  -57.5420 C.3    53  ILE53       0.0023
     73  CD1       13.4150   -4.1700  -58.7370 C.3    53  ILE53       0.0001
     74  N         14.8930   -3.5300  -53.9420 N.am   54  GLN54      -0.1977
     75  CA        15.2320   -2.2230  -53.3810 C.3    54  GLN54       0.1601
     76  C         15.8250   -2.3470  -51.9820 C.2    54  GLN54       0.2287
     77  O         15.3650   -3.1630  -51.1810 O.2    54  GLN54      -0.2864
     78  CB        14.0030   -1.3140  -53.3480 C.3    54  GLN54       0.0394
     79  CG        13.4660   -0.9240  -54.7220 C.3    54  GLN54       0.0908
     80  CD        12.3660    0.1260  -54.6550 C.2    54  GLN54       0.2608
     81  OE1       12.5310    1.1790  -54.0390 O.2    54  GLN54      -0.2717
     82  NE2       11.2390   -0.1550  -55.3010 N.am   54  GLN54      -0.0878
     83  N         13.3080   -1.0980  -49.3010 N.3    57  ALA57      -0.1245
     84  CA        12.2930   -2.0910  -48.9750 C.3    57  ALA57       0.1562
     85  C         12.7940   -3.1990  -48.0460 C.2    57  ALA57       0.2260
     86  O         12.0470   -3.6630  -47.1840 O.2    57  ALA57      -0.2867
     87  CB        11.7180   -2.6800  -50.2410 C.3    57  ALA57       0.0290
     88  N         17.3340   -9.7460  -53.9840 N.3    79  ASP79      -0.1225
     89  CA        17.4100  -10.2080  -55.3620 C.3    79  ASP79       0.1805
     90  C         15.9920  -10.2600  -55.9210 C.2    79  ASP79       0.2598
     91  O         15.0180  -10.2260  -55.1680 O.2    79  ASP79      -0.2718
     92  CB        18.0650  -11.5930  -55.4240 C.3    79  ASP79       0.1424
     93  CG        18.6550  -11.9200  -56.7960 C.2    79  ASP79       0.3668
     94  OD1       18.5320  -11.1060  -57.7410 O.co2  79  ASP79      -0.2456
     95  OD2       19.2470  -13.0120  -56.9210 O.co2  79  ASP79      -0.2456
     96  N         15.8780  -10.3270  -57.2430 N.am   80  GLY80      -0.1942
     97  CA        14.5850  -10.4800  -57.8870 C.3    80  GLY80       0.2014
     98  C         13.9410  -11.8100  -57.5650 C.2    80  GLY80       0.2639
     99  O         14.6350  -12.7990  -57.3610 O.2    80  GLY80      -0.2714
    100  N         12.6110  -11.8240  -57.5100 N.am   81  HIS81      -0.1959
    101  CA        11.8410  -13.0330  -57.2370 C.3    81  HIS81       0.1787
    102  C         11.9450  -14.0570  -58.3610 C.2    81  HIS81       0.2620
    103  O         11.7330  -15.2450  -58.1330 O.2    81  HIS81      -0.2715
    104  CB        10.3640  -12.7320  -56.9000 C.3    81  HIS81       0.0785
    105  CG         9.7090  -11.7090  -57.7850 C.ar   81  HIS81       0.0821
    106  ND1        8.8120  -10.7850  -57.2980 N.ar   81  HIS81      -0.2267
    107  CD2        9.8070  -11.4670  -59.1160 C.ar   81  HIS81       0.1154
    108  CE1        8.3820  -10.0210  -58.2890 C.ar   81  HIS81       0.1986
    109  NE2        8.9730  -10.4120  -59.4030 N.ar   81  HIS81      -0.2212
    110  N         12.2840  -13.5920  -59.5630 N.am   82  GLN82      -0.1977
    111  CA        12.5870  -14.4780  -60.6950 C.3    82  GLN82       0.1601
    112  C         13.7660  -15.4220  -60.4270 C.2    82  GLN82       0.2287
    113  O         13.9170  -16.4320  -61.1060 O.2    82  GLN82      -0.2864
    114  CB        12.8250  -13.6660  -61.9780 C.3    82  GLN82       0.0394
    115  CG        14.0880  -12.8140  -62.0040 C.3    82  GLN82       0.0908
    116  CD        13.8760  -11.4080  -61.4680 C.2    82  GLN82       0.2608
    117  OE1       12.9570  -11.1540  -60.6890 O.2    82  GLN82      -0.2717
    118  NE2       14.7350  -10.4900  -61.8800 N.am   82  GLN82      -0.0878
    119  N          2.4800   -9.4620  -54.7090 N.3    98  ASN98      -0.1225
    120  CA         1.7370   -8.2160  -54.6590 C.3    98  ASN98       0.1785
    121  C          2.3160   -7.2930  -55.7280 C.2    98  ASN98       0.2597
    122  O          3.3890   -6.7290  -55.5500 O.2    98  ASN98      -0.2718
    123  CB         1.8720   -7.6230  -53.2600 C.3    98  ASN98       0.1169
    124  CG         0.6620   -6.8410  -52.8390 C.2    98  ASN98       0.2627
    125  OD1        0.5220   -5.6740  -53.1870 O.2    98  ASN98      -0.2716
    126  ND2       -0.2230   -7.4760  -52.0760 N.am   98  ASN98      -0.0877
    127  N          1.6160   -7.1610  -56.8500 N.am   99  LEU99      -0.1966
    128  CA         2.1980   -6.5770  -58.0600 C.3    99  LEU99       0.1728
    129  C          1.9730   -5.0790  -58.2060 C.2    99  LEU99       0.2617
    130  O          0.8480   -4.6080  -58.1320 O.2    99  LEU99      -0.2715
    131  CB         1.6620   -7.2910  -59.3060 C.3    99  LEU99       0.0311
    132  CG         1.8460   -8.8020  -59.4310 C.3    99  LEU99       0.0022
    133  CD1        1.4060   -9.2250  -60.8240 C.3    99  LEU99       0.0001
    134  CD2        3.2920   -9.1750  -59.1880 C.3    99  LEU99       0.0001
    135  N          3.0570   -4.3480  -58.4520 N.am  100  GLY100     -0.1940
    136  CA         3.0200   -2.8950  -58.6340 C.3   100  GLY100      0.2014
    137  C          4.2860   -2.2500  -58.0990 C.2   100  GLY100      0.2639
    138  O          5.3410   -2.8820  -58.0770 O.2   100  GLY100     -0.2714
    139  N          4.1880   -0.9940  -57.6630 N.am  101  TYR101     -0.1959
    140  CA         5.3300   -0.2850  -57.0530 C.3   101  TYR101      0.1771
    141  C          5.2460   -0.2300  -55.5220 C.2   101  TYR101      0.2619
    142  O          4.1900   -0.5090  -54.9480 O.2   101  TYR101     -0.2715
    143  CB         5.4810    1.1390  -57.6260 C.3   101  TYR101      0.0574
    144  CG         4.2110    1.9640  -57.6400 C.ar  101  TYR101     -0.0198
    145  CD1        3.5480    2.2240  -58.8380 C.ar  101  TYR101     -0.0009
    146  CD2        3.6700    2.4860  -56.4600 C.ar  101  TYR101     -0.0009
    147  CE1        2.3770    2.9810  -58.8650 C.ar  101  TYR101      0.0417
    148  CE2        2.4920    3.2380  -56.4740 C.ar  101  TYR101      0.0417
    149  CZ         1.8550    3.4880  -57.6820 C.ar  101  TYR101      0.1957
    150  OH         0.6960    4.2360  -57.7140 O.3   101  TYR101     -0.2866
    151  N          6.3530    0.1470  -54.8790 N.am  102  LEU102     -0.1964
    152  CA         6.4050    0.3460  -53.4240 C.3   102  LEU102      0.1713
    153  C          5.5880    1.5680  -52.9800 C.2   102  LEU102      0.2458
    154  O          5.8120    2.6770  -53.4820 O.2   102  LEU102     -0.2730
    155  CB         7.8620    0.4690  -52.9480 C.3   102  LEU102      0.0310
    156  CG         8.1900    0.8180  -51.4860 C.3   102  LEU102      0.0022
    157  CD1        7.6820   -0.2230  -50.5150 C.3   102  LEU102      0.0001
    158  CD2        9.6870    1.0020  -51.2990 C.3   102  LEU102      0.0001
    159  N          4.6080    1.3580  -52.0710 N.am  103  PRO103     -0.2727
    160  CA         3.8600    2.4750  -51.4710 C.3   103  PRO103      0.1402
    161  C          4.7440    3.3660  -50.5960 C.2   103  PRO103      0.2269
    162  O          5.5400    2.8550  -49.7980 O.2   103  PRO103     -0.2865
    163  CB         2.7820    1.7790  -50.6290 C.3   103  PRO103      0.0296
    164  CG         3.2780    0.3890  -50.4160 C.3   103  PRO103      0.0237
    165  CD         4.1200    0.0460  -51.5990 C.3   103  PRO103      0.0939
    166  N          9.8880    2.3470  -60.0900 N.3   109  ILE109     -0.1231
    167  CA        10.4370    1.0070  -59.8440 C.3   109  ILE109      0.1692
    168  C          9.3270    0.0250  -59.4440 C.2   109  ILE109      0.2593
    169  O          8.8930   -0.0310  -58.2840 O.2   109  ILE109     -0.2718
    170  CB        11.5930    1.0120  -58.8070 C.3   109  ILE109      0.0266
    171  CG1       12.6820    2.0130  -59.2230 C.3   109  ILE109      0.0019
    172  CG2       12.1830   -0.3950  -58.6610 C.3   109  ILE109      0.0020
    173  CD1       13.6970    2.3400  -58.1380 C.3   109  ILE109      0.0001
    174  N          8.8690   -0.7400  -60.4300 N.am  110  SER110     -0.1938
    175  CA         7.7590   -1.6660  -60.2440 C.3   110  SER110      0.2055
    176  C          8.0190   -3.0160  -60.9070 C.2   110  SER110      0.2644
    177  O          8.9570   -3.1640  -61.6990 O.2   110  SER110     -0.2714
    178  CB         6.4520   -1.0550  -60.7680 C.3   110  SER110      0.2130
    179  OG         6.5710   -0.6550  -62.1210 O.3   110  SER110     -0.2179
    180  N          7.1800   -3.9930  -60.5630 N.am  111  THR111     -0.1936
    181  CA         7.2570   -5.3340  -61.1230 C.3   111  THR111      0.2028
    182  C          7.0400   -5.2940  -62.6360 C.2   111  THR111      0.2642
    183  O          6.2380   -4.5070  -63.1450 O.2   111  THR111     -0.2714
    184  CB         6.2410   -6.3130  -60.4550 C.3   111  THR111      0.1808
    185  OG1        4.9170   -5.7690  -60.5120 O.3   111  THR111     -0.2208
    186  CG2        6.6050   -6.6060  -59.0020 C.3   111  THR111      0.0379
    187  N          7.7870   -6.1320  -63.3420 N.am  112  ARG112     -0.1977
    188  CA         7.7480   -6.2200  -64.8040 C.3   112  ARG112      0.1597
    189  C          7.1300   -7.5570  -65.2080 C.2   112  ARG112      0.2287
    190  O          7.3720   -8.5610  -64.5380 O.2   112  ARG112     -0.2864
    191  CB         9.1730   -6.1510  -65.3660 C.3   112  ARG112      0.0334
    192  CG         9.8060   -4.7720  -65.3970 C.3   112  ARG112      0.0492
    193  CD        11.3120   -4.8990  -65.5920 C.3   112  ARG112      0.2205
    194  NE        11.8920   -3.7300  -66.2490 N.pl3 112  ARG112     -0.0865
    195  CZ        12.1180   -3.6330  -67.5590 C.cat 112  ARG112      0.5346
    196  NH1       11.8150   -4.6390  -68.3720 N.pl3 112  ARG112      0.1354
    197  NH2       12.6510   -2.5250  -68.0580 N.pl3 112  ARG112      0.1354
    198  N          9.6470  -10.7420  -65.6510 N.3   115  THR115     -0.1218
    199  CA        10.2360  -11.2690  -64.4210 C.3   115  THR115      0.1862
    200  C          9.1740  -11.8470  -63.4970 C.2   115  THR115      0.2287
    201  O          9.4370  -12.8050  -62.7630 O.2   115  THR115     -0.2866
    202  CB        11.1050  -10.2000  -63.6950 C.3   115  THR115      0.1770
    203  OG1       10.3900   -8.9640  -63.6030 O.3   115  THR115     -0.2211
    204  CG2       12.3890   -9.9350  -64.4680 C.3   115  THR115      0.0375
    205  N         -2.3160   -5.0880  -59.0960 N.3   138  TYR138     -0.1241
    206  CA        -2.6880   -3.6830  -59.2070 C.3   138  TYR138      0.1605
    207  C         -2.3470   -3.1930  -60.5900 C.2   138  TYR138      0.2264
    208  O         -1.3450   -3.5990  -61.1760 O.2   138  TYR138     -0.2867
    209  CB        -1.9400   -2.8280  -58.2070 C.3   138  TYR138      0.0534
    210  CG        -2.2310   -3.1440  -56.7640 C.ar  138  TYR138     -0.0201
    211  CD1       -3.1120   -2.3600  -56.0270 C.ar  138  TYR138     -0.0009
    212  CD2       -1.6030   -4.2110  -56.1200 C.ar  138  TYR138     -0.0009
    213  CE1       -3.3700   -2.6390  -54.6840 C.ar  138  TYR138      0.0417
    214  CE2       -1.8570   -4.4960  -54.7910 C.ar  138  TYR138      0.0417
    215  CZ        -2.7400   -3.7160  -54.0780 C.ar  138  TYR138      0.1957
    216  OH        -2.9920   -4.0010  -52.7530 O.3   138  TYR138     -0.2866
@<TRIPOS>BOND
     1   196   195    1
     2   197   195    1
     3   195   194    2
     4   194   193    1
     5   198   199    1
     6   193   192    1
     7   192   191    1
     8   191   188    1
     9   189   188    1
    10   189   190    2
    11   188   187    1
    12   204   202    1
    13   199   202    1
    14   199   200    1
    15   202   203    1
    16   200   201    2
    17   187   182   am
    18   183   182    2
    19   182   181    1
    20   179   178    1
    21   115   114    1
    22   115   116    1
    23   114   111    1
    24   118   116   am
    25   177   176    2
    26   116   117    2
    27   208   207    2
    28   181   180    1
    29   181   184    1
    30   113   112    2
    31   176   180   am
    32   176   175    1
    33   133   132    1
    34   178   175    1
    35   111   112    1
    36   111   110    1
    37   207   206    1
    38   185   184    1
    39   184   186    1
    40   174   175    1
    41   174   168   am
    42   166   167    1
    43   167   168    1
    44   167   170    1
    45   110   102   am
    46   168   169    2
    47   132   131    1
    48   132   134    1
    49   109   107   ar
    50   109   108   ar
    51   131   128    1
    52   171   170    1
    53   171   173    1
    54   206   205    1
    55   206   209    1
    56   107   105   ar
    57   147   145   ar
    58   147   149   ar
    59   145   144   ar
    60   170   172    1
    61    73    71    1
    62   136   135    1
    63   136   137    1
    64   135   129   am
    65   102   103    2
    66   102   101    1
    67   108   106   ar
    68   209   210    1
    69   129   130    2
    70   129   128    1
    71   137   138    2
    72   137   139   am
    73   128   127    1
    74    97    98    1
    75    97    96    1
    76   105   106   ar
    77   105   104    1
    78    94    93   ar
    79   150   149    1
    80   149   148   ar
    81   139   140    1
    82   144   143    1
    83   144   146   ar
    84   143   140    1
    85    98   100   am
    86    98    99    2
    87    72    70    1
    88   100   101    1
    89    71    70    1
    90    96    90   am
    91   101   104    1
    92   140   141    1
    93    70    67    1
    94    95    93   ar
    95   127   121   am
    96    93    92    1
    97   210   212   ar
    98   210   211   ar
    99   148   146   ar
   100   212   214   ar
   101   211   213   ar
   102    90    89    1
   103    90    91    2
   104   121   122    2
   105   121   120    1
   106   141   142    2
   107   141   151   am
   108    12    10    1
   109    69    68    2
   110    67    68    1
   111    67    66    1
   112    92    89    1
   113    89    88    1
   114    82    80   am
   115    68    74   am
   116   151   152    1
   117   214   215   ar
   118    79    80    1
   119    79    78    1
   120   119   120    1
   121   213   215   ar
   122    66    60   am
   123   120   123    1
   124    80    81    2
   125     5     2    1
   126     4     3    2
   127   215   216    1
   128    10    11    1
   129    10     7    1
   130    74    75    1
   131    60    61    2
   132    60    59    1
   133     3     2    1
   134     3     6   am
   135    64    63   ar
   136   154   153    2
   137    53    55   ar
   138    53    52   ar
   139   152   153    1
   140   152   155    1
   141    55    57   ar
   142    75    78    1
   143    75    76    1
   144     2     1    1
   145   123   124    1
   146   125   124    2
   147     7     6    1
   148     7     8    1
   149    59    58    1
   150    59    62    1
   151    51    52    1
   152    51    48    1
   153   153   159   am
   154    52    54   ar
   155   155   156    1
   156    57    56   ar
   157   124   126   am
   158    63    65   ar
   159    63    62    1
   160    54    56   ar
   161    58    49   am
   162    49    50    2
   163    49    48    1
   164   159   165    1
   165   159   160    1
   166    76    77    2
   167     8     9    2
   168     8    13   am
   169    48    47    1
   170   165   164    1
   171   156   158    1
   172   156   157    1
   173   160   163    1
   174   160   161    1
   175    13    14    1
   176   163   164    1
   177   161   162    2
   178    87    84    1
   179    19    20    1
   180    19    15   am
   181    20    21    1
   182    14    15    1
   183    14    17    1
   184    15    16    2
   185    83    84    1
   186    46    44   ar
   187    17    18    1
   188    84    85    1
   189    21    22    2
   190    21    23   am
   191    85    86    2
   192    44    43    1
   193    44    45   ar
   194    23    24    1
   195    30    28   am
   196    43    40    1
   197    29    28    2
   198    28    27    1
   199    24    27    1
   200    24    25    1
   201    40    39    1
   202    40    41    1
   203    39    33   am
   204    25    26    2
   205    38    36   am
   206    41    42    2
   207    31    32    1
   208    35    36    1
   209    35    32    1
   210    36    37    2
   211    33    32    1
   212    33    34    2
