@<TRIPOS>MOLECULE
tmp/3ef2D01.pdb
 97 94 0 0 0
SMALL
GASTEIGER

@<TRIPOS>ATOM
      1  N        -20.2940    4.0920   51.7780 N.3    27  ASP27      -0.1239
      2  CA       -21.0470    4.8040   52.8100 C.3    27  ASP27       0.1674
      3  C        -20.7950    4.1530   54.1610 C.2    27  ASP27       0.2266
      4  O        -20.8880    2.9280   54.3070 O.2    27  ASP27      -0.2867
      5  CB       -22.5570    4.7880   52.5160 C.3    27  ASP27       0.1410
      6  CG       -22.9430    5.7280   51.3860 C.2    27  ASP27       0.3668
      7  OD1      -22.1480    6.6210   51.0350 O.co2  27  ASP27      -0.2456
      8  OD2      -24.0560    5.5640   50.8510 O.co2  27  ASP27      -0.2456
      9  N        -19.3420   12.8010   57.8040 N.3    71  ASP71      -0.1239
     10  CA       -20.7600   12.6420   58.0760 C.3    71  ASP71       0.1674
     11  C        -20.9620   12.1460   59.5080 C.2    71  ASP71       0.2266
     12  O        -20.3830   11.1330   59.8930 O.2    71  ASP71      -0.2867
     13  CB       -21.3700   11.6450   57.0550 C.3    71  ASP71       0.1410
     14  CG       -22.8660   11.4430   57.2350 C.2    71  ASP71       0.3668
     15  OD1      -23.2900   10.8420   58.2500 O.co2  71  ASP71      -0.2456
     16  OD2      -23.6290   11.8610   56.3300 O.co2  71  ASP71      -0.2456
     17  N        -23.0560   10.2670   62.0310 N.3    73  TYR73      -0.1227
     18  CA       -24.0060    9.1840   61.7720 C.3    73  TYR73       0.1736
     19  C        -25.4140    9.4680   62.3410 C.2    73  TYR73       0.2595
     20  O        -25.6030    9.6130   63.5610 O.2    73  TYR73      -0.2718
     21  CB       -23.4430    7.8160   62.2040 C.3    73  TYR73       0.0548
     22  CG       -24.3190    6.6660   61.7760 C.ar   73  TYR73      -0.0200
     23  CD1      -24.4480    6.3260   60.4260 C.ar   73  TYR73      -0.0009
     24  CD2      -25.0500    5.9380   62.7180 C.ar   73  TYR73      -0.0009
     25  CE1      -25.2790    5.2860   60.0230 C.ar   73  TYR73       0.0417
     26  CE2      -25.8880    4.8860   62.3250 C.ar   73  TYR73       0.0417
     27  CZ       -25.9960    4.5720   60.9730 C.ar   73  TYR73       0.1957
     28  OH       -26.8140    3.5310   60.5660 O.3    73  TYR73      -0.2866
     29  N        -26.3840    9.5720   61.4280 N.am   74  ASN74      -0.1974
     30  CA       -27.7670    9.9330   61.7700 C.3    74  ASN74       0.1688
     31  C        -27.9460   11.2640   62.5210 C.2    74  ASN74       0.2292
     32  O        -29.0030   11.5180   63.1140 O.2    74  ASN74      -0.2864
     33  CB       -28.4480    8.7960   62.5240 C.3    74  ASN74       0.1181
     34  CG       -28.8020    7.6360   61.6180 C.2    74  ASN74       0.2629
     35  OD1      -29.1600    7.8260   60.4560 O.2    74  ASN74      -0.2716
     36  ND2      -28.6930    6.4200   62.1440 N.am   74  ASN74      -0.0877
     37  N        -19.3420    9.4960   53.7650 N.3    86  TRP86      -0.1227
     38  CA       -20.6830    9.2110   53.2300 C.3    86  TRP86       0.1737
     39  C        -20.9110   10.0140   51.9540 C.2    86  TRP86       0.2595
     40  O        -20.4370   11.1350   51.8240 O.2    86  TRP86      -0.2718
     41  CB       -21.7620    9.5520   54.2760 C.3    86  TRP86       0.0564
     42  CG       -23.0330    8.7340   54.1370 C.ar   86  TRP86       0.0003
     43  CD1      -24.0120    8.8860   53.1960 C.ar   86  TRP86       0.0946
     44  CD2      -23.4450    7.6610   54.9800 C.ar   86  TRP86       0.0152
     45  NE1      -25.0110    7.9540   53.3900 N.ar   86  TRP86      -0.2442
     46  CE2      -24.6900    7.1870   54.4790 C.ar   86  TRP86       0.0810
     47  CE3      -22.8720    7.0280   56.1000 C.ar   86  TRP86       0.0012
     48  CZ2      -25.3840    6.1160   55.0710 C.ar   86  TRP86       0.0191
     49  CZ3      -23.5820    5.9530   56.7020 C.ar   86  TRP86       0.0001
     50  CH2      -24.8200    5.5190   56.1750 C.ar   86  TRP86       0.0015
     51  N        -21.6130    9.4280   50.9890 N.am   87  GLN87      -0.1965
     52  CA       -21.9310   10.1710   49.7650 C.3    87  GLN87       0.1733
     53  C        -22.6330   11.4880   50.0740 C.2    87  GLN87       0.2616
     54  O        -23.4680   11.5780   50.9830 O.2    87  GLN87      -0.2715
     55  CB       -22.7760    9.3350   48.7920 C.3    87  GLN87       0.0408
     56  CG       -24.1140    8.8500   49.3590 C.3    87  GLN87       0.0908
     57  CD       -24.8930    8.0560   48.3400 C.2    87  GLN87       0.2608
     58  OE1      -25.3300    8.6000   47.3150 O.2    87  GLN87      -0.2717
     59  NE2      -25.0630    6.7600   48.6030 N.am   87  GLN87      -0.0878
     60  N        -22.2730   12.5160   49.3240 N.am   88  GLY88      -0.1955
     61  CA       -22.9580   13.8020   49.4470 C.3    88  GLY88       0.1869
     62  C        -22.5700   14.7390   48.3210 C.2    88  GLY88       0.2309
     63  O        -22.0940   14.3000   47.2660 O.2    88  GLY88      -0.2863
     64  N        -24.5520   20.6710   50.1550 N.3    92  THR92      -0.1218
     65  CA       -25.6800   19.9830   50.7610 C.3    92  THR92       0.1862
     66  C        -26.3580   20.7610   51.9040 C.2    92  THR92       0.2287
     67  O        -25.7280   21.5660   52.5910 O.2    92  THR92      -0.2866
     68  CB       -25.2530   18.5880   51.2700 C.3    92  THR92       0.1770
     69  OG1      -26.4230   17.8360   51.6080 O.3    92  THR92      -0.2211
     70  CG2      -24.3330   18.6830   52.5040 C.3    92  THR92       0.0375
     71  N        -27.8840   18.7740   54.1090 N.3    94  ASN94      -0.1240
     72  CA       -27.8860   17.6860   55.0880 C.3    94  ASN94       0.1653
     73  C        -26.9990   18.0800   56.2800 C.2    94  ASN94       0.2266
     74  O        -25.7840   18.1380   56.1310 O.2    94  ASN94      -0.2867
     75  CB       -27.4020   16.3680   54.4380 C.3    94  ASN94       0.1155
     76  CG       -27.3630   15.1920   55.4150 C.2    94  ASN94       0.2627
     77  OD1      -27.6980   15.3220   56.5970 O.2    94  ASN94      -0.2716
     78  ND2      -26.9680   14.0240   54.9100 N.am   94  ASN94      -0.0877
     79  N        -26.0130   16.4600   58.7940 N.3    96  HIS96      -0.1226
     80  CA       -25.0580   15.3780   59.1120 C.3    96  HIS96       0.1752
     81  C        -23.6860   15.6530   58.4930 C.2    96  HIS96       0.2595
     82  O        -22.6510   15.1950   59.0090 O.2    96  HIS96      -0.2718
     83  CB       -25.5470   14.0010   58.6230 C.3    96  HIS96       0.0759
     84  CG       -26.9030   13.6120   59.1260 C.ar   96  HIS96       0.0818
     85  ND1      -27.5040   12.4230   58.7690 N.ar   96  HIS96      -0.2268
     86  CD2      -27.7780   14.2500   59.9410 C.ar   96  HIS96       0.1154
     87  CE1      -28.6870   12.3390   59.3590 C.ar   96  HIS96       0.1986
     88  NE2      -28.8720   13.4310   60.0830 N.ar   96  HIS96      -0.2212
     89  N        -23.6890   16.4350   57.4080 N.am   97  GLN97      -0.1979
     90  CA       -22.4790   16.6950   56.6080 C.3    97  GLN97       0.1601
     91  C        -21.9890   18.1590   56.6730 C.2    97  GLN97       0.2287
     92  O        -21.0700   18.5720   55.9310 O.2    97  GLN97      -0.2864
     93  CB       -22.7150   16.2240   55.1590 C.3    97  GLN97       0.0394
     94  CG       -22.7180   14.6820   55.0690 C.3    97  GLN97       0.0908
     95  CD       -23.0760   14.1180   53.7090 C.2    97  GLN97       0.2608
     96  OE1      -23.3860   12.9230   53.5890 O.2    97  GLN97      -0.2717
     97  NE2      -23.0720   14.9640   52.6850 N.am   97  GLN97      -0.0878
@<TRIPOS>BOND
     1    63    62    2
     2    58    57    2
     3    62    61    1
     4    57    59   am
     5    57    56    1
     6    55    56    1
     7    55    52    1
     8    60    61    1
     9    60    53   am
    10    52    53    1
    11    52    51    1
    12    53    54    2
    13    64    65    1
    14    65    68    1
    15    65    66    1
    16     8     6   ar
    17    51    39   am
    18     7     6   ar
    19    68    69    1
    20    68    70    1
    21     6     5    1
    22     1     2    1
    23    40    39    2
    24    66    67    2
    25    39    38    1
    26     5     2    1
    27    97    95   am
    28     2     3    1
    29    43    45   ar
    30    43    42   ar
    31    38    37    1
    32    38    41    1
    33    45    46   ar
    34    96    95    2
    35    95    94    1
    36    71    72    1
    37    42    41    1
    38    42    44   ar
    39     3     4    2
    40    75    72    1
    41    75    76    1
    42    46    44   ar
    43    46    48   ar
    44    78    76   am
    45    44    47   ar
    46    94    93    1
    47    48    50   ar
    48    72    73    1
    49    93    90    1
    50    76    77    2
    51    92    91    2
    52    47    49   ar
    53    74    73    2
    54    50    49   ar
    55    16    14   ar
    56    90    91    1
    57    90    89    1
    58    13    14    1
    59    13    10    1
    60    14    15   ar
    61    89    81   am
    62     9    10    1
    63    10    11    1
    64    81    82    2
    65    81    80    1
    66    83    80    1
    67    83    84    1
    68    85    84   ar
    69    85    87   ar
    70    79    80    1
    71    84    86   ar
    72    87    88   ar
    73    11    12    2
    74    86    88   ar
    75    25    23   ar
    76    25    27   ar
    77    23    22   ar
    78    35    34    2
    79    28    27    1
    80    27    26   ar
    81    29    30    1
    82    29    19   am
    83    34    36   am
    84    34    33    1
    85    30    31    1
    86    30    33    1
    87    18    17    1
    88    18    21    1
    89    18    19    1
    90    22    21    1
    91    22    24   ar
    92    26    24   ar
    93    19    20    2
    94    31    32    2
