@<TRIPOS>MOLECULE
tmp/3ef2D00.pdb
 141 142 0 0 0
SMALL
GASTEIGER

@<TRIPOS>ATOM
      1  N         -8.3270   10.6320   59.0960 N.3    19  ASP19      -0.1239
      2  CA        -8.0080    9.6960   58.0140 C.3    19  ASP19       0.1674
      3  C         -9.2940    8.9340   57.6420 C.2    19  ASP19       0.2266
      4  O         -9.9670    8.3660   58.5180 O.2    19  ASP19      -0.2867
      5  CB        -6.9210    8.7160   58.5420 C.3    19  ASP19       0.1410
      6  CG        -6.4500    7.7090   57.5040 C.2    19  ASP19       0.3668
      7  OD1       -7.2780    6.8830   57.0430 O.co2  19  ASP19      -0.2456
      8  OD2       -5.2290    7.7150   57.1710 O.co2  19  ASP19      -0.2456
      9  N        -10.7420    5.7580   56.4850 N.3    21  LYS21      -0.1231
     10  CA       -10.0730    4.4540   56.5820 C.3    21  LYS21       0.1693
     11  C         -9.9830    3.7320   55.2210 C.2    21  LYS21       0.2592
     12  O        -10.9960    3.4980   54.5750 O.2    21  LYS21      -0.2718
     13  CB       -10.7110    3.5610   57.6420 C.3    21  LYS21       0.0285
     14  CG        -9.7760    2.4260   58.0950 C.3    21  LYS21       0.0035
     15  CD       -10.3510    1.5770   59.2020 C.3    21  LYS21       0.0206
     16  CE        -9.2780    0.6060   59.7480 C.3    21  LYS21       0.1093
     17  NZ        -9.7450   -0.1360   60.9890 N.3    21  LYS21      -0.1314
     18  N         -8.7500    3.4040   54.8250 N.am   22  ASP22      -0.1974
     19  CA        -8.4390    2.7530   53.5380 C.3    22  ASP22       0.1709
     20  C         -8.8450    3.6040   52.3050 C.2    22  ASP22       0.2293
     21  O         -8.8860    3.0920   51.1830 O.2    22  ASP22      -0.2864
     22  CB        -9.0870    1.3570   53.4400 C.3    22  ASP22       0.1436
     23  CG        -8.3780    0.4520   52.4330 C.2    22  ASP22       0.3671
     24  OD1       -7.1400    0.5440   52.3150 O.co2  22  ASP22      -0.2456
     25  OD2       -9.0600   -0.3330   51.7430 O.co2  22  ASP22      -0.2456
     26  N         -4.8830    8.5960   62.4890 N.3    34  TRP34      -0.1227
     27  CA        -3.8270    7.7910   61.8630 C.3    34  TRP34       0.1737
     28  C         -2.5340    8.6160   61.7390 C.2    34  TRP34       0.2595
     29  O         -2.5790    9.8080   61.4520 O.2    34  TRP34      -0.2718
     30  CB        -4.2830    7.2650   60.4870 C.3    34  TRP34       0.0564
     31  CG        -3.5980    5.9860   60.0370 C.ar   34  TRP34       0.0003
     32  CD1       -2.3140    5.8460   59.5740 C.ar   34  TRP34       0.0946
     33  CD2       -4.1800    4.6720   60.0230 C.ar   34  TRP34       0.0152
     34  NE1       -2.0680    4.5180   59.2570 N.ar   34  TRP34      -0.2442
     35  CE2       -3.1890    3.7770   59.5380 C.ar   34  TRP34       0.0810
     36  CE3       -5.4460    4.1660   60.3800 C.ar   34  TRP34       0.0012
     37  CZ2       -3.4250    2.3900   59.3960 C.ar   34  TRP34       0.0191
     38  CZ3       -5.6860    2.7840   60.2400 C.ar   34  TRP34       0.0001
     39  CH2       -4.6710    1.9120   59.7590 C.ar   34  TRP34       0.0015
     40  N         -1.3820    7.9750   61.9630 N.am   35  GLN35      -0.1965
     41  CA        -0.1060    8.6540   61.8270 C.3    35  GLN35       0.1733
     42  C          0.1440    9.0840   60.3760 C.2    35  GLN35       0.2616
     43  O         -0.4480    8.5350   59.4510 O.2    35  GLN35      -0.2715
     44  CB         1.0450    7.7810   62.3540 C.3    35  GLN35       0.0408
     45  CG         1.3480    6.5340   61.5240 C.3    35  GLN35       0.0908
     46  CD         2.4640    5.7190   62.1440 C.2    35  GLN35       0.2608
     47  OE1        2.2510    4.5780   62.5980 O.2    35  GLN35      -0.2717
     48  NE2        3.6480    6.3080   62.2210 N.am   35  GLN35      -0.0878
     49  N          1.0550   10.0280   60.2060 N.am   36  PHE36      -0.1960
     50  CA         1.3100   10.6160   58.9090 C.3    36  PHE36       0.1771
     51  C          2.7900   10.8890   58.6920 C.2    36  PHE36       0.2620
     52  O          3.6140   10.8420   59.6370 O.2    36  PHE36      -0.2715
     53  CB         0.4590   11.8960   58.7400 C.3    36  PHE36       0.0574
     54  CG         0.7460   12.9770   59.7480 C.ar   36  PHE36      -0.0200
     55  CD1        1.6740   13.9770   59.4750 C.ar   36  PHE36      -0.0042
     56  CD2        0.0320   13.0350   60.9500 C.ar   36  PHE36      -0.0042
     57  CE1        1.9230   15.0070   60.4060 C.ar   36  PHE36      -0.0003
     58  CE2        0.2840   14.0430   61.8840 C.ar   36  PHE36      -0.0003
     59  CZ         1.2170   15.0250   61.6080 C.ar   36  PHE36      -0.0000
     60  N          3.1250   11.1760   57.4390 N.am   37  THR37      -0.1951
     61  CA         4.4990   11.5100   57.0770 C.3    37  THR37       0.1897
     62  C          4.4920   12.9250   56.5050 C.2    37  THR37       0.2313
     63  O          3.8970   13.1600   55.4560 O.2    37  THR37      -0.2863
     64  CB         5.0690   10.5190   56.0360 C.3    37  THR37       0.1794
     65  OG1        4.8610    9.1650   56.4830 O.3    37  THR37      -0.2208
     66  CG2        6.5820   10.7790   55.8120 C.3    37  THR37       0.0378
     67  N          4.8280   14.6260   52.3640 N.3    40  THR40      -0.1203
     68  CA         4.3120   13.6550   51.4030 C.3    40  THR40       0.1994
     69  C          2.8780   14.0370   51.1280 C.2    40  THR40       0.2618
     70  O          2.2910   14.8770   51.8560 O.2    40  THR40      -0.2717
     71  CB         4.2770   12.1800   51.9440 C.3    40  THR40       0.1784
     72  OG1        3.2750   12.0600   52.9660 O.3    40  THR40      -0.2211
     73  CG2        5.6460   11.7400   52.4990 C.3    40  THR40       0.0376
     74  N          2.3180   13.4120   50.0980 N.am   41  ILE41      -0.1965
     75  CA         0.8860   13.3360   49.9340 C.3    41  ILE41       0.1727
     76  C          0.4020   12.2120   50.8550 C.2    41  ILE41       0.2616
     77  O          0.7620   11.0470   50.6650 O.2    41  ILE41      -0.2715
     78  CB         0.5010   13.0390   48.4460 C.3    41  ILE41       0.0290
     79  CG1        0.9190   14.2270   47.5330 C.3    41  ILE41       0.0022
     80  CG2       -1.0020   12.7270   48.3120 C.3    41  ILE41       0.0023
     81  CD1        0.2980   15.5870   47.8600 C.3    41  ILE41       0.0001
     82  N         -0.3810   12.5850   51.8640 N.am   42  ASN42      -0.1958
     83  CA        -1.0320   11.6180   52.7520 C.3    42  ASN42       0.1819
     84  C         -2.3890   11.2790   52.1660 C.2    42  ASN42       0.2621
     85  O         -3.3820   11.9950   52.3910 O.2    42  ASN42      -0.2715
     86  CB        -1.1240   12.1960   54.1730 C.3    42  ASN42       0.1195
     87  CG         0.2480   12.3460   54.8220 C.2    42  ASN42       0.2630
     88  OD1        0.8190   13.4450   54.8690 O.2    42  ASN42      -0.2716
     89  ND2        0.7850   11.2470   55.3040 N.am   42  ASN42      -0.0877
     90  N         -2.4040   10.1940   51.3880 N.am   43  TRP43      -0.1960
     91  CA        -3.4510    9.9100   50.4080 C.3    43  TRP43       0.1771
     92  C         -4.8750    9.8480   50.9540 C.2    43  TRP43       0.2620
     93  O         -5.8350   10.1790   50.2390 O.2    43  TRP43      -0.2715
     94  CB        -3.1100    8.6040   49.6700 C.3    43  TRP43       0.0590
     95  CG        -2.0930    8.8370   48.6050 C.ar   43  TRP43       0.0006
     96  CD1       -0.7280    8.7200   48.7080 C.ar   43  TRP43       0.0946
     97  CD2       -2.3630    9.2910   47.2780 C.ar   43  TRP43       0.0152
     98  NE1       -0.1370    9.0470   47.5020 N.ar   43  TRP43      -0.2442
     99  CE2       -1.1180    9.4080   46.6130 C.ar   43  TRP43       0.0810
    100  CE3       -3.5400    9.6030   46.5840 C.ar   43  TRP43       0.0012
    101  CZ2       -1.0160    9.8340   45.2810 C.ar   43  TRP43       0.0191
    102  CZ3       -3.4480   10.0150   45.2620 C.ar   43  TRP43       0.0001
    103  CH2       -2.1830   10.1280   44.6230 C.ar   43  TRP43       0.0015
    104  N         -5.0210    9.4010   52.2010 N.am   44  HIS44      -0.1959
    105  CA        -6.3620    9.2070   52.7800 C.3    44  HIS44       0.1787
    106  C         -6.7560   10.3060   53.7660 C.2    44  HIS44       0.2620
    107  O         -7.8050   10.2120   54.4230 O.2    44  HIS44      -0.2715
    108  CB        -6.4390    7.8380   53.4800 C.3    44  HIS44       0.0785
    109  CG        -6.2320    6.6820   52.5500 C.ar   44  HIS44       0.0821
    110  ND1       -5.8340    5.4400   52.9900 N.ar   44  HIS44      -0.2267
    111  CD2       -6.3510    6.5880   51.2050 C.ar   44  HIS44       0.1154
    112  CE1       -5.7140    4.6260   51.9560 C.ar   44  HIS44       0.1986
    113  NE2       -6.0360    5.2950   50.8600 N.ar   44  HIS44      -0.2212
    114  N         -5.9230   11.3460   53.8350 N.am   45  GLN45      -0.1977
    115  CA        -5.9720   12.3450   54.8980 C.3    45  GLN45       0.1601
    116  C         -6.0910   13.7900   54.3970 C.2    45  GLN45       0.2287
    117  O         -5.7430   14.7340   55.1240 O.2    45  GLN45      -0.2864
    118  CB        -4.7380   12.2110   55.7850 C.3    45  GLN45       0.0394
    119  CG        -4.5350   10.8240   56.3530 C.3    45  GLN45       0.0908
    120  CD        -3.2520   10.6680   57.1610 C.2    45  GLN45       0.2608
    121  OE1       -2.3770   11.5550   57.1930 O.2    45  GLN45      -0.2717
    122  NE2       -3.1200    9.5030   57.8150 N.am   45  GLN45      -0.0878
    123  N         -9.4520   12.0070   48.1050 N.3    65  PHE65      -0.1241
    124  CA        -9.3020   10.7240   47.4640 C.3    65  PHE65       0.1605
    125  C        -10.6360   10.0420   47.1740 C.2    65  PHE65       0.2264
    126  O        -10.8400    9.6000   46.0550 O.2    65  PHE65      -0.2867
    127  CB        -8.4120    9.8010   48.3120 C.3    65  PHE65       0.0534
    128  CG        -8.1530    8.4720   47.6610 C.ar   65  PHE65      -0.0203
    129  CD1       -7.2770    8.3680   46.5750 C.ar   65  PHE65      -0.0042
    130  CD2       -8.8130    7.3260   48.1090 C.ar   65  PHE65      -0.0042
    131  CE1       -7.0440    7.1190   45.9570 C.ar   65  PHE65      -0.0003
    132  CE2       -8.5850    6.0660   47.4900 C.ar   65  PHE65      -0.0003
    133  CZ        -7.7010    5.9730   46.4310 C.ar   65  PHE65      -0.0000
    134  N         -2.9940    3.9510   65.3090 N.3   130  ASP130     -0.1239
    135  CA        -3.5350    3.9770   63.9460 C.3   130  ASP130      0.1674
    136  C         -4.8890    3.2790   63.9500 C.2   130  ASP130      0.2266
    137  O         -4.9960    2.1270   64.3930 O.2   130  ASP130     -0.2867
    138  CB        -2.5750    3.2630   62.9880 C.3   130  ASP130      0.1410
    139  CG        -1.2740    4.0340   62.7900 C.2   130  ASP130      0.3668
    140  OD1       -1.2690    5.2580   63.0690 O.co2 130  ASP130     -0.2456
    141  OD2       -0.2730    3.4170   62.3520 O.co2 130  ASP130     -0.2456
@<TRIPOS>BOND
     1   103   102   ar
     2   103   101   ar
     3   102   100   ar
     4   101    99   ar
     5   131   133   ar
     6   131   129   ar
     7   126   125    2
     8   133   132   ar
     9   129   128   ar
    10   100    97   ar
    11    99    97   ar
    12    99    98   ar
    13   125   124    1
    14    97    95   ar
    15   124   123    1
    16   124   127    1
    17   132   130   ar
    18    98    96   ar
    19    79    81    1
    20    79    78    1
    21   128   130   ar
    22   128   127    1
    23    80    78    1
    24    78    75    1
    25    95    96   ar
    26    95    94    1
    27    94    91    1
    28    75    74    1
    29    75    76    1
    30    74    69   am
    31    93    92    2
    32    91    92    1
    33    91    90    1
    34    77    76    2
    35    76    82   am
    36   113   111   ar
    37   113   112   ar
    38    92   104   am
    39    69    68    1
    40    69    70    2
    41    21    20    2
    42   111   109   ar
    43    90    84   am
    44    68    71    1
    45    68    67    1
    46    25    23   ar
    47    82    83    1
    48    71    73    1
    49    71    72    1
    50   112   110   ar
    51    84    85    2
    52    84    83    1
    53   104   105    1
    54    20    19    1
    55    24    23   ar
    56    23    22    1
    57   109   110   ar
    58   109   108    1
    59    83    86    1
    60   105   108    1
    61   105   106    1
    62    22    19    1
    63    19    18    1
    64   106   114   am
    65   106   107    2
    66   114   115    1
    67    86    87    1
    68   116   115    1
    69   116   117    2
    70    12    11    2
    71    87    88    2
    72    87    89   am
    73    18    11   am
    74   115   118    1
    75    11    10    1
    76    63    62    2
    77   118   119    1
    78    66    64    1
    79    64    65    1
    80    64    61    1
    81   119   120    1
    82     9    10    1
    83    62    61    1
    84    10    13    1
    85     7     6   ar
    86    61    60    1
    87   120   121    2
    88   120   122   am
    89     8     6   ar
    90    60    51   am
    91     6     5    1
    92     3     2    1
    93     3     4    2
    94    13    14    1
    95     2     5    1
    96     2     1    1
    97    14    15    1
    98    51    50    1
    99    51    52    2
   100    53    50    1
   101    53    54    1
   102    50    49    1
   103    15    16    1
   104    34    35   ar
   105    34    32   ar
   106    37    35   ar
   107    37    39   ar
   108    43    42    2
   109    55    54   ar
   110    55    57   ar
   111    35    33   ar
   112    32    31   ar
   113    54    56   ar
   114    16    17    1
   115    39    38   ar
   116    33    31   ar
   117    33    36   ar
   118    31    30    1
   119    49    42   am
   120    38    36   ar
   121    42    41    1
   122    57    59   ar
   123    30    27    1
   124    56    58   ar
   125    29    28    2
   126    45    46    1
   127    45    44    1
   128    59    58   ar
   129    28    27    1
   130    28    40   am
   131    41    40    1
   132    41    44    1
   133    27    26    1
   134    46    48   am
   135    46    47    2
   136   141   139   ar
   137   139   138    1
   138   139   140   ar
   139   138   135    1
   140   135   136    1
   141   135   134    1
   142   136   137    2
