@<TRIPOS>MOLECULE
tmp/3ef2D02.pdb
 91 88 0 0 0
SMALL
GASTEIGER

@<TRIPOS>ATOM
      1  N        -14.0990   14.5020   67.9030 N.3   122  ASP122     -0.1239
      2  CA       -13.3280   14.1570   69.0920 C.3   122  ASP122      0.1674
      3  C        -12.4950   12.9070   68.7980 C.2   122  ASP122      0.2266
      4  O        -13.0510   11.8840   68.4170 O.2   122  ASP122     -0.2867
      5  CB       -14.3140   13.9260   70.2660 C.3   122  ASP122      0.1410
      6  CG       -13.6160   13.6350   71.6000 C.2   122  ASP122      0.3668
      7  OD1      -12.7540   12.7170   71.6660 O.co2 122  ASP122     -0.2456
      8  OD2      -13.9470   14.3130   72.6110 O.co2 122  ASP122     -0.2456
      9  N        -11.1890   10.0250   70.2740 N.3   124  VAL124     -0.1231
     10  CA       -11.6690    9.4530   71.5320 C.3   124  VAL124      0.1692
     11  C        -10.5010    9.0390   72.4330 C.2   124  VAL124      0.2592
     12  O         -9.6210    8.2860   72.0140 O.2   124  VAL124     -0.2718
     13  CB       -12.6860    8.2910   71.3120 C.3   124  VAL124      0.0266
     14  CG1      -13.2080    7.7520   72.6820 C.3   124  VAL124      0.0020
     15  CG2      -13.8590    8.7710   70.4660 C.3   124  VAL124      0.0020
     16  N        -10.4980    9.5950   73.6520 N.am  125  ASN125     -0.1974
     17  CA        -9.4600    9.3600   74.6700 C.3   125  ASN125      0.1688
     18  C         -8.0590    9.8380   74.2650 C.2   125  ASN125      0.2292
     19  O         -7.0700    9.4420   74.8820 O.2   125  ASN125     -0.2864
     20  CB        -9.4140    7.8680   75.0980 C.3   125  ASN125      0.1181
     21  CG       -10.6080    7.4630   75.9290 C.2   125  ASN125      0.2629
     22  OD1      -11.0380    8.1970   76.8230 O.2   125  ASN125     -0.2716
     23  ND2      -11.1590    6.2840   75.6410 N.am  125  ASN125     -0.0877
     24  N        -18.9200   14.3110   69.9790 N.3   137  TRP137     -0.1227
     25  CA       -18.8720   14.3080   71.4340 C.3   137  TRP137      0.1737
     26  C        -19.2840   15.6650   71.9970 C.2   137  TRP137      0.2596
     27  O        -19.0290   16.7250   71.3920 O.2   137  TRP137     -0.2718
     28  CB       -17.4430   13.9730   71.9170 C.3   137  TRP137      0.0564
     29  CG       -17.3780   13.2690   73.2530 C.ar  137  TRP137      0.0003
     30  CD1      -17.5490   13.8270   74.4860 C.ar  137  TRP137      0.0946
     31  CD2      -17.0860   11.8790   73.4730 C.ar  137  TRP137      0.0152
     32  NE1      -17.3820   12.8680   75.4710 N.ar  137  TRP137     -0.2442
     33  CE2      -17.1020   11.6640   74.8730 C.ar  137  TRP137      0.0810
     34  CE3      -16.8280   10.7850   72.6180 C.ar  137  TRP137      0.0012
     35  CZ2      -16.8660   10.3950   75.4460 C.ar  137  TRP137      0.0191
     36  CZ3      -16.5850    9.5250   73.1930 C.ar  137  TRP137      0.0001
     37  CH2      -16.6120    9.3470   74.5880 C.ar  137  TRP137      0.0015
     38  N        -19.9410   15.6070   73.1550 N.am  138  THR138     -0.1939
     39  CA       -20.2530   16.7890   73.9510 C.3   138  THR138      0.2028
     40  C        -19.0010   17.6400   74.1250 C.2   138  THR138      0.2643
     41  O        -17.8850   17.1070   74.2460 O.2   138  THR138     -0.2714
     42  CB       -20.7330   16.3750   75.3490 C.3   138  THR138      0.1808
     43  OG1      -21.6200   15.2580   75.2300 O.3   138  THR138     -0.2208
     44  CG2      -21.4220   17.5360   76.0650 C.3   138  THR138      0.0379
     45  N        -19.1770   18.9560   74.1350 N.am  139  GLY139     -0.1939
     46  CA       -18.0520   19.8570   74.4030 C.3   139  GLY139      0.2014
     47  C        -18.4530   21.3130   74.2880 C.2   139  GLY139      0.2639
     48  O        -19.6310   21.6430   74.0130 O.2   139  GLY139     -0.2714
     49  N        -17.4640   22.1870   74.4810 N.am  140  THR140     -0.1950
     50  CA       -17.6700   23.6230   74.4120 C.3   140  THR140      0.1897
     51  C        -16.6360   24.2800   73.4850 C.2   140  THR140      0.2313
     52  O        -15.5510   23.7260   73.2290 O.2   140  THR140     -0.2863
     53  CB       -17.5680   24.2790   75.8090 C.3   140  THR140      0.1794
     54  OG1      -16.2060   24.2610   76.2320 O.3   140  THR140     -0.2208
     55  CG2      -18.4420   23.5650   76.8550 C.3   140  THR140      0.0378
     56  N        -13.1770   25.4060   75.7880 N.3   143  GLU143     -0.1245
     57  CA       -12.3870   24.5230   76.6550 C.3   143  GLU143      0.1567
     58  C        -11.0630   24.0840   76.0140 C.2   143  GLU143      0.2260
     59  O        -10.9260   24.0650   74.7800 O.2   143  GLU143     -0.2867
     60  CB       -13.2040   23.3090   77.0800 C.3   143  GLU143      0.0388
     61  CG       -13.5740   22.4010   75.9030 C.3   143  GLU143      0.1160
     62  CD       -14.4970   21.2780   76.3120 C.2   143  GLU143      0.3649
     63  OE1      -14.6300   21.0140   77.5320 O.co2 143  GLU143     -0.2457
     64  OE2      -15.0870   20.6500   75.4110 O.co2 143  GLU143     -0.2457
     65  N         -9.5930   21.0860   76.0700 N.3   145  ASN145     -0.1240
     66  CA        -9.5340   19.6440   75.7300 C.3   145  ASN145      0.1653
     67  C         -8.8790   19.3360   74.3620 C.2   145  ASN145      0.2266
     68  O         -9.4910   19.6000   73.3080 O.2   145  ASN145     -0.2867
     69  CB       -10.9520   19.0600   75.7700 C.3   145  ASN145      0.1155
     70  CG       -10.9910   17.5500   75.5380 C.2   145  ASN145      0.2627
     71  OD1       -9.9490   16.8840   75.3890 O.2   145  ASN145     -0.2716
     72  ND2      -12.2110   17.0020   75.5140 N.am  145  ASN145     -0.0877
     73  N         -8.4300   16.5670   72.8100 N.3   147  HIS147     -0.1226
     74  CA        -9.1600   15.5360   72.0440 C.3   147  HIS147      0.1752
     75  C        -10.0140   16.1710   70.9400 C.2   147  HIS147      0.2595
     76  O        -10.2780   15.5380   69.9100 O.2   147  HIS147     -0.2718
     77  CB       -10.0730   14.6920   72.9530 C.3   147  HIS147      0.0759
     78  CG        -9.3500   14.0090   74.0790 C.ar  147  HIS147      0.0818
     79  ND1      -10.0140   13.2860   75.0450 N.ar  147  HIS147     -0.2268
     80  CD2       -8.0290   13.9180   74.3820 C.ar  147  HIS147      0.1154
     81  CE1       -9.1360   12.7810   75.8970 C.ar  147  HIS147      0.1986
     82  NE2       -7.9270   13.1510   75.5210 N.ar  147  HIS147     -0.2212
     83  N        -10.4410   17.4170   71.1720 N.am  148  GLN148     -0.1979
     84  CA       -11.3530   18.1220   70.2710 C.3   148  GLN148      0.1601
     85  C        -10.7220   19.3200   69.5330 C.2   148  GLN148      0.2287
     86  O        -11.4370   20.1380   68.9370 O.2   148  GLN148     -0.2864
     87  CB       -12.5990   18.5470   71.0500 C.3   148  GLN148      0.0394
     88  CG       -13.4220   17.3730   71.5730 C.3   148  GLN148      0.0908
     89  CD       -14.6790   17.8080   72.3130 C.2   148  GLN148      0.2608
     90  OE1      -15.0120   19.0130   72.3570 O.2   148  GLN148     -0.2717
     91  NE2      -15.3940   16.8400   72.8910 N.am  148  GLN148     -0.0878
@<TRIPOS>BOND
     1     1     2    1
     2     4     3    2
     3     3     2    1
     4    86    85    2
     5     2     5    1
     6    85    84    1
     7    76    75    2
     8    24    25    1
     9     5     6    1
    10    84    87    1
    11    84    83    1
    12     9    10    1
    13    15    13    1
    14    75    83   am
    15    75    74    1
    16    87    88    1
    17    13    10    1
    18    13    14    1
    19    27    26    2
    20    25    28    1
    21    25    26    1
    22    10    11    1
    23    88    89    1
    24     6     7   ar
    25     6     8   ar
    26    28    29    1
    27    26    38   am
    28    12    11    2
    29    74    73    1
    30    74    77    1
    31    89    90    2
    32    89    91   am
    33    11    16   am
    34    34    36   ar
    35    34    31   ar
    36    77    78    1
    37    38    39    1
    38    36    37   ar
    39    52    51    2
    40    29    31   ar
    41    29    30   ar
    42    68    67    2
    43    31    33   ar
    44    51    50    1
    45    16    17    1
    46    39    40    1
    47    39    42    1
    48    48    47    2
    49    78    80   ar
    50    78    79   ar
    51    40    45   am
    52    40    41    2
    53    45    46    1
    54    18    17    1
    55    18    19    2
    56    47    46    1
    57    47    49   am
    58    67    66    1
    59    80    82   ar
    60    50    49    1
    61    50    53    1
    62    30    32   ar
    63    37    35   ar
    64    17    20    1
    65    59    58    2
    66    33    35   ar
    67    33    32   ar
    68    79    81   ar
    69    20    21    1
    70    43    42    1
    71    42    44    1
    72    71    70    2
    73    64    62   ar
    74    72    70   am
    75    82    81   ar
    76    70    69    1
    77    23    21   am
    78    66    69    1
    79    66    65    1
    80    56    57    1
    81    53    54    1
    82    53    55    1
    83    61    62    1
    84    61    60    1
    85    21    22    2
    86    58    57    1
    87    62    63   ar
    88    57    60    1
