@<TRIPOS>MOLECULE
tmp/3efjA00.pdb
 203 191 0 0 0
SMALL
GASTEIGER

@<TRIPOS>ATOM
      1  N         60.3350    4.7840  120.6790 N.3    31  ILE31      -0.1231
      2  CA        60.3300    5.9800  121.5160 C.3    31  ILE31       0.1692
      3  C         58.9250    6.5770  121.6660 C.2    31  ILE31       0.2592
      4  O         58.4860    6.8900  122.7860 O.2    31  ILE31      -0.2718
      5  CB        61.3440    7.0400  120.9880 C.3    31  ILE31       0.0266
      6  CG1       62.7790    6.5910  121.2870 C.3    31  ILE31       0.0019
      7  CG2       61.0690    8.4160  121.5890 C.3    31  ILE31       0.0020
      8  CD1       63.8500    7.6230  120.9890 C.3    31  ILE31       0.0001
      9  N         58.2240    6.7340  120.5480 N.am   32  GLY32      -0.1957
     10  CA        56.8690    7.2730  120.5830 C.3    32  GLY32       0.1869
     11  C         56.0320    6.7280  119.4510 C.2    32  GLY32       0.2309
     12  O         56.5520    6.4560  118.3620 O.2    32  GLY32      -0.2863
     13  N         54.6370   11.3540  115.1200 N.3    36  PHE36      -0.1241
     14  CA        56.0930   11.3460  114.9580 C.3    36  PHE36       0.1605
     15  C         56.5090   10.2670  113.9560 C.2    36  PHE36       0.2264
     16  O         57.4350   10.4630  113.1590 O.2    36  PHE36      -0.2867
     17  CB        56.7900   11.1090  116.3050 C.3    36  PHE36       0.0534
     18  CG        55.9700   11.5200  117.5070 C.ar   36  PHE36      -0.0203
     19  CD1       55.8900   12.8580  117.8960 C.ar   36  PHE36      -0.0042
     20  CD2       55.2860   10.5620  118.2590 C.ar   36  PHE36      -0.0042
     21  CE1       55.1360   13.2360  119.0130 C.ar   36  PHE36      -0.0003
     22  CE2       54.5270   10.9280  119.3710 C.ar   36  PHE36      -0.0003
     23  CZ        54.4530   12.2670  119.7500 C.ar   36  PHE36      -0.0000
     24  N         60.0160    6.0720  115.7430 N.3    39  VAL39      -0.1245
     25  CA        61.1990    6.6530  116.3570 C.3    39  VAL39       0.1561
     26  C         61.7680    5.6260  117.3190 C.2    39  VAL39       0.2260
     27  O         61.0460    5.0860  118.1570 O.2    39  VAL39      -0.2867
     28  CB        60.8580    7.9720  117.1130 C.3    39  VAL39       0.0252
     29  CG1       62.1100    8.6100  117.7070 C.3    39  VAL39       0.0019
     30  CG2       60.1490    8.9610  116.1890 C.3    39  VAL39       0.0019
     31  N         67.9180    9.6710  119.2090 N.3    55  ALA55      -0.1245
     32  CA        66.6620    9.2190  118.6380 C.3    55  ALA55       0.1562
     33  C         66.8340    9.0640  117.1330 C.2    55  ALA55       0.2260
     34  O         67.4480    9.9020  116.4700 O.2    55  ALA55      -0.2867
     35  CB        65.5610   10.1970  118.9550 C.3    55  ALA55       0.0290
     36  N         64.7990    8.2440  113.5440 N.3    57  LYS57      -0.1245
     37  CA        63.5530    8.0910  112.8160 C.3    57  LYS57       0.1561
     38  C         63.8140    7.5070  111.4360 C.2    57  LYS57       0.2260
     39  O         64.7250    7.9380  110.7270 O.2    57  LYS57      -0.2867
     40  CB        62.7860    9.4130  112.7150 C.3    57  LYS57       0.0271
     41  CG        61.4840    9.2890  111.9270 C.3    57  LYS57       0.0035
     42  CD        60.6770   10.5700  111.9300 C.3    57  LYS57       0.0206
     43  CE        59.6880   10.6020  110.7750 C.3    57  LYS57       0.1093
     44  NZ        59.1710   11.9860  110.5150 N.3    57  LYS57      -0.1314
     45  N         62.6380    7.1890  107.7070 N.3    59  LEU59      -0.1245
     46  CA        61.8460    7.9270  106.7210 C.3    59  LEU59       0.1561
     47  C         61.2100    6.9740  105.7150 C.2    59  LEU59       0.2260
     48  O         61.7750    6.6990  104.6590 O.2    59  LEU59      -0.2867
     49  CB        62.7030    8.9800  106.0000 C.3    59  LEU59       0.0270
     50  CG        62.6760   10.4540  106.4260 C.3    59  LEU59       0.0019
     51  CD1       61.3160   11.1040  106.1220 C.3    59  LEU59       0.0001
     52  CD2       63.0460   10.6450  107.8850 C.3    59  LEU59       0.0001
     53  N         65.7690   15.3940  100.2320 N.3    71  PHE71      -0.1241
     54  CA        66.0510   15.0040  101.6060 C.3    71  PHE71       0.1605
     55  C         67.4710   15.3700  102.0420 C.2    71  PHE71       0.2264
     56  O         67.6780   15.8450  103.1560 O.2    71  PHE71      -0.2867
     57  CB        65.7760   13.4980  101.7660 C.3    71  PHE71       0.0534
     58  CG        66.2520   12.9170  103.0650 C.ar   71  PHE71      -0.0203
     59  CD1       65.5400   13.1310  104.2420 C.ar   71  PHE71      -0.0042
     60  CD2       67.4070   12.1360  103.1080 C.ar   71  PHE71      -0.0042
     61  CE1       65.9800   12.5910  105.4450 C.ar   71  PHE71      -0.0003
     62  CE2       67.8550   11.5920  104.3060 C.ar   71  PHE71      -0.0003
     63  CZ        67.1390   11.8190  105.4770 C.ar   71  PHE71      -0.0000
     64  N         67.8360   19.2380  102.4460 N.3    74  GLU74      -0.1231
     65  CA        67.1330   19.4960  103.6940 C.3    74  GLU74       0.1699
     66  C         68.0360   19.1660  104.9000 C.2    74  GLU74       0.2592
     67  O         68.0410   19.8810  105.9020 O.2    74  GLU74      -0.2718
     68  CB        65.8640   18.6560  103.7300 C.3    74  GLU74       0.0402
     69  CG        64.6130   19.4280  104.0550 C.3    74  GLU74       0.1161
     70  CD        63.3830   18.8360  103.3800 C.2    74  GLU74       0.3649
     71  OE1       63.0500   17.6570  103.6540 O.co2  74  GLU74      -0.2457
     72  OE2       62.7510   19.5590  102.5720 O.co2  74  GLU74      -0.2457
     73  N         68.8100   18.0900  104.7820 N.am   75  GLY75      -0.1957
     74  CA        69.7820   17.7200  105.8010 C.3    75  GLY75       0.1869
     75  C         70.8960   18.7350  105.9480 C.2    75  GLY75       0.2309
     76  O         71.2880   19.0820  107.0680 O.2    75  GLY75      -0.2863
     77  N         69.5710   21.9510  107.8180 N.3    78  MET78      -0.1245
     78  CA        69.3720   21.7370  109.2560 C.3    78  MET78       0.1570
     79  C         70.6830   21.5260  109.9990 C.2    78  MET78       0.2261
     80  O         70.8000   21.8990  111.1590 O.2    78  MET78      -0.2867
     81  CB        68.4280   20.5530  109.5150 C.3    78  MET78       0.0387
     82  CG        68.0550   20.3580  110.9900 C.3    78  MET78       0.0595
     83  SD        66.9400   18.9680  111.2950 S.3    78  MET78      -0.1393
     84  CE        67.0660   18.8260  113.0770 C.3    78  MET78       0.0692
     85  N         66.3630   22.3170  117.4390 N.3    87  LEU87      -0.1245
     86  CA        66.8160   20.9260  117.5100 C.3    87  LEU87       0.1561
     87  C         67.9650   20.6780  116.5340 C.2    87  LEU87       0.2260
     88  O         67.8720   21.0180  115.3580 O.2    87  LEU87      -0.2867
     89  CB        65.6610   19.9480  117.2500 C.3    87  LEU87       0.0270
     90  CG        65.8890   18.4420  117.4630 C.3    87  LEU87       0.0019
     91  CD1       66.2060   18.1100  118.9070 C.3    87  LEU87       0.0001
     92  CD2       64.6740   17.6540  117.0180 C.3    87  LEU87       0.0001
     93  N         70.6160   18.5020  114.2120 N.3    89  LEU89      -0.1245
     94  CA        70.7080   17.2860  113.4340 C.3    89  LEU89       0.1561
     95  C         72.0960   16.6990  113.6610 C.2    89  LEU89       0.2260
     96  O         73.1140   17.3650  113.4190 O.2    89  LEU89      -0.2867
     97  CB        70.4670   17.5720  111.9520 C.3    89  LEU89       0.0270
     98  CG        70.6160   16.4270  110.9540 C.3    89  LEU89       0.0019
     99  CD1       69.6810   15.2810  111.2880 C.3    89  LEU89       0.0001
    100  CD2       70.3640   16.9190  109.5460 C.3    89  LEU89       0.0001
    101  N         72.3510   12.1150  108.9510 N.3    92  ILE92      -0.1245
    102  CA        71.4410   11.2230  108.2480 C.3    92  ILE92       0.1561
    103  C         72.2020    9.9690  107.8660 C.2    92  ILE92       0.2260
    104  O         73.4330    9.9770  107.7240 O.2    92  ILE92      -0.2867
    105  CB        70.8310   11.8590  106.9830 C.3    92  ILE92       0.0252
    106  CG1       71.9380   12.2170  105.9850 C.3    92  ILE92       0.0019
    107  CG2       69.9860   13.0870  107.3460 C.3    92  ILE92       0.0019
    108  CD1       71.4610   12.4120  104.5690 C.3    92  ILE92       0.0001
    109  N         66.9780    9.4830  110.1140 N.3   102  VAL102     -0.1245
    110  CA        67.3340   10.7700  110.6670 C.3   102  VAL102      0.1561
    111  C         67.7380   10.5700  112.1220 C.2   102  VAL102      0.2260
    112  O         67.0210    9.9210  112.8900 O.2   102  VAL102     -0.2867
    113  CB        66.1900   11.7860  110.5110 C.3   102  VAL102      0.0252
    114  CG1       66.5240   13.0900  111.2150 C.3   102  VAL102      0.0019
    115  CG2       65.9800   12.0590  109.0510 C.3   102  VAL102      0.0019
    116  N         68.9120   12.2360  115.7350 N.3   104  LEU104     -0.1231
    117  CA        68.6960   13.4470  116.5220 C.3   104  LEU104      0.1678
    118  C         69.0650   13.2100  117.9740 C.2   104  LEU104      0.2434
    119  O         68.9740   12.0800  118.4550 O.2   104  LEU104     -0.2733
    120  CB        67.2250   13.8510  116.4490 C.3   104  LEU104      0.0284
    121  CG        66.7400   13.9780  115.0100 C.3   104  LEU104      0.0019
    122  CD1       65.4940   13.1530  114.7810 C.3   104  LEU104      0.0001
    123  CD2       66.5740   15.4310  114.6100 C.3   104  LEU104      0.0001
    124  N         69.4590   14.2810  118.6920 N.am  105  PRO105     -0.2718
    125  CA        69.7770   14.1140  120.1020 C.3   105  PRO105      0.1535
    126  C         68.5380   13.6550  120.8520 C.2   105  PRO105      0.2599
    127  O         67.4230   14.0090  120.4780 O.2   105  PRO105     -0.2715
    128  CB        70.1650   15.5280  120.5490 C.3   105  PRO105      0.0310
    129  CG        70.4810   16.2620  119.3130 C.3   105  PRO105      0.0237
    130  CD        69.6040   15.6830  118.2620 C.3   105  PRO105      0.0939
    131  N         68.7310   12.8650  121.8960 N.am  106  TYR106     -0.1960
    132  CA        67.6040   12.3840  122.6800 C.3   106  TYR106      0.1771
    133  C         66.9840   13.5000  123.5280 C.2   106  TYR106      0.2619
    134  O         67.6870   14.2170  124.2380 O.2   106  TYR106     -0.2715
    135  CB        68.0290   11.2140  123.5650 C.3   106  TYR106      0.0574
    136  CG        66.8750   10.5700  124.2790 C.ar  106  TYR106     -0.0198
    137  CD1       66.6740   10.7720  125.6420 C.ar  106  TYR106     -0.0009
    138  CD2       65.9700    9.7680  123.5850 C.ar  106  TYR106     -0.0009
    139  CE1       65.6080   10.1760  126.3010 C.ar  106  TYR106      0.0417
    140  CE2       64.8980    9.1760  124.2300 C.ar  106  TYR106      0.0417
    141  CZ        64.7210    9.3840  125.5860 C.ar  106  TYR106      0.1957
    142  OH        63.6530    8.7880  126.2230 O.3   106  TYR106     -0.2866
    143  N         65.6670   13.6430  123.4290 N.am  107  MET107     -0.1963
    144  CA        64.9280   14.6140  124.2260 C.3   107  MET107      0.1736
    145  C         64.2020   13.8690  125.3320 C.2   107  MET107      0.2616
    146  O         63.2540   13.1260  125.0630 O.2   107  MET107     -0.2715
    147  CB        63.9280   15.3770  123.3520 C.3   107  MET107      0.0427
    148  CG        64.5440   16.1180  122.1740 C.3   107  MET107      0.0599
    149  SD        65.4160   17.6250  122.6490 S.3   107  MET107     -0.1393
    150  CE        67.1080   17.0670  122.8060 C.3   107  MET107      0.0692
    151  N         64.6510   14.0670  126.5700 N.am  108  LYS108     -0.1977
    152  CA        64.1460   13.3130  127.7200 C.3   108  LYS108      0.1596
    153  C         62.6360   13.4290  127.8930 C.2   108  LYS108      0.2287
    154  O         61.9610   12.4330  128.1470 O.2   108  LYS108     -0.2864
    155  CB        64.8410   13.7640  129.0080 C.3   108  LYS108      0.0298
    156  CG        64.7550   12.7720  130.1710 C.3   108  LYS108      0.0038
    157  CD        64.9310   13.5020  131.5010 C.3   108  LYS108      0.0206
    158  CE        65.6180   12.6420  132.5690 C.3   108  LYS108      0.1093
    159  NZ        65.8390   13.4210  133.8320 N.3   108  LYS108     -0.1314
    160  N         60.3170   14.5560  125.6750 N.3   110  GLY110     -0.1210
    161  CA        59.5310   14.4290  124.4540 C.3   110  GLY110      0.1956
    162  C         59.0440   15.7550  123.9110 C.2   110  GLY110      0.2611
    163  O         59.7110   16.7820  124.0630 O.2   110  GLY110     -0.2717
    164  N         57.8780   15.7350  123.2730 N.am  111  ASP111     -0.1973
    165  CA        57.3450   16.9370  122.6510 C.3   111  ASP111      0.1709
    166  C         56.5430   17.7700  123.6460 C.2   111  ASP111      0.2293
    167  O         55.8390   17.2360  124.4940 O.2   111  ASP111     -0.2864
    168  CB        56.5070   16.6010  121.4090 C.3   111  ASP111      0.1436
    169  CG        55.1740   15.9880  121.7560 C.2   111  ASP111      0.3671
    170  OD1       54.1580   16.6990  121.6640 O.co2 111  ASP111     -0.2456
    171  OD2       55.1420   14.8030  122.1520 O.co2 111  ASP111     -0.2456
    172  N         60.3260   20.2790  121.0260 N.3   158  MET158     -0.1245
    173  CA        60.8640   19.2360  121.8780 C.3   158  MET158      0.1570
    174  C         61.3380   19.8360  123.1840 C.2   158  MET158      0.2261
    175  O         61.4740   21.0490  123.2900 O.2   158  MET158     -0.2867
    176  CB        62.0080   18.5070  121.1740 C.3   158  MET158      0.0387
    177  CG        61.6490   17.9620  119.8070 C.3   158  MET158      0.0595
    178  SD        60.2350   16.8600  119.8550 S.3   158  MET158     -0.1393
    179  CE        60.8250   15.5600  120.9260 C.3   158  MET158      0.0692
    180  N         61.5940   21.8380  116.4340 N.3   168  ALA168     -0.1231
    181  CA        61.8600   20.8160  115.4220 C.3   168  ALA168      0.1694
    182  C         60.9040   20.9990  114.2530 C.2   168  ALA168      0.2592
    183  O         59.8780   21.6610  114.3890 O.2   168  ALA168     -0.2718
    184  CB        61.7150   19.4270  116.0140 C.3   168  ALA168      0.0304
    185  N         61.2350   20.4030  113.1130 N.am  169  ASP169     -0.1960
    186  CA        60.4900   20.6600  111.8830 C.3   169  ASP169      0.1840
    187  C         59.5560   19.5240  111.4750 C.2   169  ASP169      0.2622
    188  O         58.5120   19.7690  110.8560 O.2   169  ASP169     -0.2715
    189  CB        61.4470   20.9980  110.7360 C.3   169  ASP169      0.1450
    190  CG        60.8530   21.9970  109.7580 C.2   169  ASP169      0.3671
    191  OD1       59.8060   21.7010  109.1350 O.co2 169  ASP169     -0.2456
    192  OD2       61.4390   23.0900  109.6160 O.co2 169  ASP169     -0.2456
    193  N         59.9360   18.2980  111.8410 N.am  170  PHE170     -0.1974
    194  CA        59.2130   17.0660  111.4760 C.3   170  PHE170      0.1639
    195  C         58.9810   16.8880  109.9600 C.2   170  PHE170      0.2290
    196  O         58.0200   17.4110  109.3860 O.2   170  PHE170     -0.2864
    197  CB        57.9060   16.9050  112.2770 C.3   170  PHE170      0.0560
    198  CG        58.0500   16.0550  113.5210 C.ar  170  PHE170     -0.0200
    199  CD1       57.9640   16.6260  114.7930 C.ar  170  PHE170     -0.0042
    200  CD2       58.2690   14.6800  113.4240 C.ar  170  PHE170     -0.0042
    201  CE1       58.0950   15.8350  115.9490 C.ar  170  PHE170     -0.0003
    202  CE2       58.4040   13.8890  114.5730 C.ar  170  PHE170     -0.0003
    203  CZ        58.3140   14.4660  115.8320 C.ar  170  PHE170     -0.0000
@<TRIPOS>BOND
     1    53    54    1
     2    54    57    1
     3    54    55    1
     4    57    58    1
     5    55    56    2
     6    64    65    1
     7    72    70   ar
     8    58    60   ar
     9    58    59   ar
    10    60    62   ar
    11    70    71   ar
    12    70    69    1
    13    65    68    1
    14    65    66    1
    15    68    69    1
    16    59    61   ar
    17    62    63   ar
    18   108   106    1
    19    48    47    2
    20    73    66   am
    21    73    74    1
    22    66    67    2
    23    61    63   ar
    24    47    46    1
    25    74    75    1
    26    75    76    2
    27   106   105    1
    28    49    50    1
    29    49    46    1
    30    51    50    1
    31    50    52    1
    32    46    45    1
    33   105   107    1
    34   105   102    1
    35   104   103    2
    36    77    78    1
    37   103   102    1
    38   102   101    1
    39   115   113    1
    40   191   190   ar
    41    78    81    1
    42    78    79    1
    43   196   195    2
    44    81    82    1
    45   100    98    1
    46   192   190   ar
    47   190   189    1
    48   195   194    1
    49    79    80    2
    50   109   110    1
    51   113   110    1
    52   113   114    1
    53    44    43    1
    54   110   111    1
    55    39    38    2
    56   189   186    1
    57    43    42    1
    58   188   187    2
    59    98    99    1
    60    98    97    1
    61    82    83    1
    62    83    84    1
    63    38    37    1
    64   187   193   am
    65   187   186    1
    66   194   193    1
    67   194   197    1
    68   186   185    1
    69    41    42    1
    70    41    40    1
    71    97    94    1
    72   111   112    2
    73   197   198    1
    74    40    37    1
    75    37    36    1
    76   185   182   am
    77    16    15    2
    78    96    95    2
    79   200   198   ar
    80   200   202   ar
    81    94    95    1
    82    94    93    1
    83   198   199   ar
    84    15    14    1
    85   182   183    2
    86   182   181    1
    87   202   203   ar
    88   123   121    1
    89   122   121    1
    90   199   201   ar
    91    14    13    1
    92    14    17    1
    93   121   120    1
    94    88    87    2
    95   181   184    1
    96   181   180    1
    97   116   117    1
    98    24    25    1
    99   203   201   ar
   100    30    28    1
   101    17    18    1
   102    25    28    1
   103    25    26    1
   104   120   117    1
   105    34    33    2
   106   117   118    1
   107    87    86    1
   108    92    90    1
   109    28    29    1
   110    33    32    1
   111    89    90    1
   112    89    86    1
   113    26    27    2
   114    85    86    1
   115    90    91    1
   116    18    19   ar
   117    18    20   ar
   118    19    21   ar
   119   118   119    2
   120   118   124   am
   121    20    22   ar
   122   130   124    1
   123   130   129    1
   124    12    11    2
   125    32    35    1
   126    32    31    1
   127   124   125    1
   128    21    23   ar
   129   129   128    1
   130    22    23   ar
   131    11    10    1
   132   177   178    1
   133   177   176    1
   134   178   179    1
   135   125   128    1
   136   125   126    1
   137   127   126    2
   138     9    10    1
   139     9     3   am
   140     1     2    1
   141   126   131   am
   142     5     6    1
   143     5     2    1
   144     5     7    1
   145     8     6    1
   146   172   173    1
   147   176   173    1
   148   168   169    1
   149   168   165    1
   150     2     3    1
   151   170   169   ar
   152     3     4    2
   153   169   171   ar
   154   173   174    1
   155   131   132    1
   156   148   149    1
   157   148   147    1
   158   149   150    1
   159   165   164    1
   160   165   166    1
   161   132   133    1
   162   132   135    1
   163   174   175    2
   164   164   162   am
   165   147   144    1
   166   143   133   am
   167   143   144    1
   168   133   134    2
   169   135   136    1
   170   138   140   ar
   171   138   136   ar
   172   166   167    2
   173   162   163    2
   174   162   161    1
   175   144   145    1
   176   140   141   ar
   177   136   137   ar
   178   161   160    1
   179   146   145    2
   180   145   151   am
   181   141   142    1
   182   141   139   ar
   183   137   139   ar
   184   151   152    1
   185   152   153    1
   186   152   155    1
   187   153   154    2
   188   155   156    1
   189   156   157    1
   190   157   158    1
   191   158   159    1
