@<TRIPOS>MOLECULE
tmp/3efkB00.pdb
 220 211 0 0 0
SMALL
GASTEIGER

@<TRIPOS>ATOM
      1  N         58.8010   34.7920   75.9410 N.3    31  ILE31      -0.1231
      2  CA        58.5660   33.4390   75.4380 C.3    31  ILE31       0.1692
      3  C         57.3840   32.8000   76.1850 C.2    31  ILE31       0.2593
      4  O         57.3560   32.7680   77.4200 O.2    31  ILE31      -0.2718
      5  CB        59.8320   32.5520   75.5950 C.3    31  ILE31       0.0266
      6  CG1       60.9460   33.0330   74.6620 C.3    31  ILE31       0.0019
      7  CG2       59.5180   31.0950   75.3090 C.3    31  ILE31       0.0020
      8  CD1       62.2950   32.4270   74.9290 C.3    31  ILE31       0.0001
      9  N         56.3940   32.3310   75.4300 N.am   32  GLY32      -0.1942
     10  CA        55.2890   31.5500   75.9930 C.3    32  GLY32       0.2014
     11  C         54.1970   32.3260   76.6960 C.2    32  GLY32       0.2639
     12  O         54.2100   33.5580   76.7200 O.2    32  GLY32      -0.2714
     13  N         53.2550   31.5880   77.2830 N.am   33  ARG33      -0.1963
     14  CA        52.0500   32.1680   77.8800 C.3    33  ARG33       0.1729
     15  C         51.9010   31.9040   79.3910 C.2    33  ARG33       0.2617
     16  O         50.7880   31.9560   79.9380 O.2    33  ARG33      -0.2715
     17  CB        50.8010   31.6920   77.1160 C.3    33  ARG33       0.0348
     18  CG        50.7150   32.1210   75.6690 C.3    33  ARG33       0.0492
     19  CD        49.4740   31.5480   74.9890 C.3    33  ARG33       0.2205
     20  NE        49.4020   30.0970   74.9970 N.pl3  33  ARG33      -0.0865
     21  CZ        50.2950   29.2520   74.4990 C.cat  33  ARG33       0.5346
     22  NH1       51.3840   29.7030   73.8810 N.pl3  33  ARG33       0.1354
     23  NH2       50.1310   27.9440   74.6350 N.pl3  33  ARG33       0.1354
     24  N         53.0180   31.6180   80.0570 N.am   34  GLY34      -0.1940
     25  CA        53.0570   31.5800   81.5140 C.3    34  GLY34       0.2014
     26  C         53.0910   30.2230   82.1910 C.2    34  GLY34       0.2639
     27  O         53.3100   30.1480   83.4000 O.2    34  GLY34      -0.2714
     28  N         52.8720   29.1510   81.4360 N.am   35  HIS35      -0.1959
     29  CA        52.8980   27.8050   82.0140 C.3    35  HIS35       0.1787
     30  C         54.2570   27.4850   82.6510 C.2    35  HIS35       0.2620
     31  O         54.3140   26.9610   83.7670 O.2    35  HIS35      -0.2715
     32  CB        52.5130   26.7420   80.9790 C.3    35  HIS35       0.0785
     33  CG        52.8150   25.3390   81.4130 C.ar   35  HIS35       0.0821
     34  ND1       52.2510   24.7690   82.5340 N.ar   35  HIS35      -0.2267
     35  CD2       53.6310   24.3980   80.8830 C.ar   35  HIS35       0.1154
     36  CE1       52.7070   23.5370   82.6770 C.ar   35  HIS35       0.1986
     37  NE2       53.5450   23.2880   81.6870 N.ar   35  HIS35      -0.2212
     38  N         55.3390   27.8170   81.9470 N.am   36  PHE36      -0.1974
     39  CA        56.6930   27.6570   82.4830 C.3    36  PHE36       0.1639
     40  C         57.1860   28.8650   83.2810 C.2    36  PHE36       0.2290
     41  O         58.3450   28.9110   83.6900 O.2    36  PHE36      -0.2864
     42  CB        57.6820   27.3390   81.3630 C.3    36  PHE36       0.0560
     43  CG        57.5160   25.9720   80.7850 C.ar   36  PHE36      -0.0200
     44  CD1       56.8750   25.7970   79.5640 C.ar   36  PHE36      -0.0042
     45  CD2       57.9970   24.8560   81.4610 C.ar   36  PHE36      -0.0042
     46  CE1       56.7170   24.5280   79.0210 C.ar   36  PHE36      -0.0003
     47  CE2       57.8420   23.5870   80.9280 C.ar   36  PHE36      -0.0003
     48  CZ        57.2010   23.4220   79.7050 C.ar   36  PHE36      -0.0000
     49  N         59.3700   33.4780   81.0460 N.3    39  VAL39      -0.1245
     50  CA        60.4410   33.0490   80.1380 C.3    39  VAL39       0.1561
     51  C         60.7460   34.1160   79.0760 C.2    39  VAL39       0.2260
     52  O         59.8380   34.7070   78.5030 O.2    39  VAL39      -0.2867
     53  CB        60.1320   31.6950   79.4450 C.3    39  VAL39       0.0252
     54  CG1       61.4050   31.0880   78.8710 C.3    39  VAL39       0.0019
     55  CG2       59.4840   30.7170   80.4180 C.3    39  VAL39       0.0019
     56  N         66.4870   30.1600   76.1520 N.3    55  ALA55      -0.1245
     57  CA        65.3180   30.6600   76.8500 C.3    55  ALA55       0.1562
     58  C         65.7060   30.8720   78.3150 C.2    55  ALA55       0.2260
     59  O         66.4190   30.0540   78.9050 O.2    55  ALA55      -0.2867
     60  CB        64.1750   29.6820   76.7240 C.3    55  ALA55       0.0290
     61  N         64.2700   31.5850   82.0740 N.3    57  LYS57      -0.1245
     62  CA        63.2260   31.6360   83.0740 C.3    57  LYS57       0.1561
     63  C         63.6940   32.4320   84.2960 C.2    57  LYS57       0.2260
     64  O         64.7610   32.1730   84.8450 O.2    57  LYS57      -0.2867
     65  CB        62.8310   30.2150   83.4770 C.3    57  LYS57       0.0271
     66  CG        61.7240   30.1240   84.5110 C.3    57  LYS57       0.0035
     67  CD        61.8400   28.8190   85.2640 C.3    57  LYS57       0.0206
     68  CE        60.7000   28.6210   86.2460 C.3    57  LYS57       0.1093
     69  NZ        60.6580   27.1880   86.6640 N.3    57  LYS57      -0.1314
     70  N         66.2430   24.4830   95.2700 N.3    67  PHE67      -0.1241
     71  CA        66.3650   24.9610   93.9010 C.3    67  PHE67       0.1605
     72  C         67.7470   24.6220   93.3480 C.2    67  PHE67       0.2264
     73  O         67.8560   24.1040   92.2440 O.2    67  PHE67      -0.2867
     74  CB        66.0930   26.4740   93.8280 C.3    67  PHE67       0.0534
     75  CG        66.5660   27.1190   92.5510 C.ar   67  PHE67      -0.0203
     76  CD1       65.8500   26.9610   91.3680 C.ar   67  PHE67      -0.0042
     77  CD2       67.7390   27.8730   92.5320 C.ar   67  PHE67      -0.0042
     78  CE1       66.2890   27.5470   90.1870 C.ar   67  PHE67      -0.0003
     79  CE2       68.1890   28.4640   91.3600 C.ar   67  PHE67      -0.0003
     80  CZ        67.4650   28.3010   90.1800 C.ar   67  PHE67      -0.0000
     81  N         68.1000   20.7330   92.7670 N.3    70  GLU70      -0.1231
     82  CA        67.3620   20.3870   91.5350 C.3    70  GLU70       0.1699
     83  C         68.1620   20.7580   90.2740 C.2    70  GLU70       0.2592
     84  O         68.1210   20.0370   89.2780 O.2    70  GLU70      -0.2718
     85  CB        65.9970   21.0850   91.4830 C.3    70  GLU70       0.0402
     86  CG        65.0710   20.7880   92.6520 C.3    70  GLU70       0.1161
     87  CD        63.8190   21.6540   92.6630 C.2    70  GLU70       0.3649
     88  OE1       63.7940   22.7190   91.9840 O.co2  70  GLU70      -0.2457
     89  OE2       62.8510   21.2720   93.3670 O.co2  70  GLU70      -0.2457
     90  N         68.8820   21.8820   90.3330 N.am   71  GLY71      -0.1957
     91  CA        69.7720   22.3210   89.2500 C.3    71  GLY71       0.1869
     92  C         70.9700   21.4160   89.0730 C.2    71  GLY71       0.2309
     93  O         71.3650   21.1000   87.9530 O.2    71  GLY71      -0.2863
     94  N         69.4750   18.2920   87.3850 N.3    74  MET74      -0.1245
     95  CA        69.1570   18.4930   85.9640 C.3    74  MET74       0.1570
     96  C         70.4030   18.6120   85.0910 C.2    74  MET74       0.2261
     97  O         70.4430   18.0900   83.9790 O.2    74  MET74      -0.2867
     98  CB        68.2480   19.7090   85.7670 C.3    74  MET74       0.0387
     99  CG        67.8500   19.9430   84.3120 C.3    74  MET74       0.0595
    100  SD        66.5990   21.2080   84.1920 S.3    74  MET74      -0.1393
    101  CE        66.2890   21.2370   82.4330 C.3    74  MET74       0.0692
    102  N         65.3070   17.5670   78.3070 N.3    83  LEU83      -0.1245
    103  CA        65.7200   18.9700   78.2610 C.3    83  LEU83       0.1561
    104  C         66.9630   19.1890   79.1050 C.2    83  LEU83       0.2260
    105  O         67.0060   18.8150   80.2800 O.2    83  LEU83      -0.2867
    106  CB        64.6020   19.8920   78.7500 C.3    83  LEU83       0.0270
    107  CG        64.8180   21.3940   78.5110 C.3    83  LEU83       0.0019
    108  CD1       64.9040   21.7460   77.0250 C.3    83  LEU83       0.0001
    109  CD2       63.7290   22.1770   79.1720 C.3    83  LEU83       0.0001
    110  N         70.0000   21.5860   80.8820 N.3    85  LEU85      -0.1245
    111  CA        70.1280   22.8440   81.5810 C.3    85  LEU85       0.1561
    112  C         71.4710   23.4280   81.1950 C.2    85  LEU85       0.2260
    113  O         72.5030   22.7930   81.3920 O.2    85  LEU85      -0.2867
    114  CB        70.0500   22.6150   83.0920 C.3    85  LEU85       0.0270
    115  CG        70.3190   23.7640   84.0660 C.3    85  LEU85       0.0019
    116  CD1       69.2370   24.8350   83.9370 C.3    85  LEU85       0.0001
    117  CD2       70.3850   23.2240   85.4860 C.3    85  LEU85       0.0001
    118  N         72.5010   28.1390   85.6240 N.3    88  ILE88      -0.1245
    119  CA        71.7010   29.0360   86.4450 C.3    88  ILE88       0.1561
    120  C         72.5010   30.2930   86.7340 C.2    88  ILE88       0.2260
    121  O         73.7270   30.2670   86.8130 O.2    88  ILE88      -0.2867
    122  CB        71.1880   28.3650   87.7620 C.3    88  ILE88       0.0252
    123  CG1       72.3500   27.8550   88.6250 C.3    88  ILE88       0.0019
    124  CG2       70.1940   27.2340   87.4460 C.3    88  ILE88       0.0019
    125  CD1       71.9230   27.0950   89.8820 C.3    88  ILE88       0.0001
    126  N         67.1540   30.7530   85.2570 N.3    98  VAL98      -0.1245
    127  CA        67.4160   29.4310   84.7100 C.3    98  VAL98       0.1561
    128  C         67.5350   29.5390   83.1960 C.2    98  VAL98       0.2260
    129  O         66.6670   30.1010   82.5330 O.2    98  VAL98      -0.2867
    130  CB        66.3100   28.4190   85.1140 C.3    98  VAL98       0.0252
    131  CG1       66.4780   27.0970   84.3780 C.3    98  VAL98       0.0019
    132  CG2       66.3240   28.2000   86.6150 C.3    98  VAL98       0.0019
    133  N         68.0000   27.7600   79.5060 N.3   100  LEU100     -0.1231
    134  CA        67.6900   26.5260   78.7800 C.3   100  LEU100      0.1678
    135  C         67.9270   26.7290   77.2930 C.2   100  LEU100      0.2434
    136  O         67.8300   27.8490   76.8160 O.2   100  LEU100     -0.2733
    137  CB        66.2280   26.1510   79.0350 C.3   100  LEU100      0.0284
    138  CG        65.9370   26.3390   80.5270 C.3   100  LEU100      0.0019
    139  CD1       64.7160   27.1980   80.7640 C.3   100  LEU100      0.0001
    140  CD2       65.9170   25.0390   81.3090 C.3   100  LEU100      0.0001
    141  N         68.2300   25.6450   76.5460 N.am  101  PRO101     -0.2718
    142  CA        68.3940   25.8220   75.1020 C.3   101  PRO101      0.1535
    143  C         67.0540   26.2170   74.5000 C.2   101  PRO101      0.2599
    144  O         66.0100   25.7550   74.9730 O.2   101  PRO101     -0.2715
    145  CB        68.8170   24.4270   74.6250 C.3   101  PRO101      0.0310
    146  CG        69.2810   23.7120   75.8730 C.3   101  PRO101      0.0237
    147  CD        68.4130   24.2380   76.9460 C.3   101  PRO101      0.0939
    148  N         67.0700   27.1060   73.5080 N.am  102  TYR102     -0.1960
    149  CA        65.8220   27.5520   72.8940 C.3   102  TYR102      0.1771
    150  C         65.1460   26.4140   72.1270 C.2   102  TYR102      0.2619
    151  O         65.7830   25.7280   71.3280 O.2   102  TYR102     -0.2715
    152  CB        66.0430   28.7650   71.9870 C.3   102  TYR102      0.0574
    153  CG        64.7550   29.3250   71.4360 C.ar  102  TYR102     -0.0198
    154  CD1       64.3890   29.1190   70.1000 C.ar  102  TYR102     -0.0009
    155  CD2       63.8850   30.0410   72.2560 C.ar  102  TYR102     -0.0009
    156  CE1       63.1880   29.6360   69.5950 C.ar  102  TYR102      0.0417
    157  CE2       62.6900   30.5550   71.7630 C.ar  102  TYR102      0.0417
    158  CZ        62.3500   30.3490   70.4360 C.ar  102  TYR102      0.1957
    159  OH        61.1660   30.8670   69.9680 O.3   102  TYR102     -0.2866
    160  N         63.8580   26.2110   72.3940 N.am  103  MET103     -0.1963
    161  CA        63.0790   25.1780   71.7140 C.3   103  MET103      0.1736
    162  C         62.1600   25.8260   70.6840 C.2   103  MET103      0.2616
    163  O         61.1300   26.4060   71.0370 O.2   103  MET103     -0.2715
    164  CB        62.2610   24.3580   72.7220 C.3   103  MET103      0.0427
    165  CG        63.0840   23.6190   73.7750 C.3   103  MET103      0.0599
    166  SD        63.9350   22.1610   73.1420 S.3   103  MET103     -0.1393
    167  CE        65.6410   22.6920   73.0290 C.3   103  MET103      0.0692
    168  N         62.5440   25.7210   69.4140 N.am  104  LYS104     -0.1977
    169  CA        61.8380   26.3790   68.3080 C.3   104  LYS104      0.1596
    170  C         60.3190   26.1710   68.3240 C.2   104  LYS104      0.2287
    171  O         59.5480   27.1330   68.2340 O.2   104  LYS104     -0.2864
    172  CB        62.4210   25.9220   66.9670 C.3   104  LYS104      0.0298
    173  CG        61.9770   26.7560   65.7700 C.3   104  LYS104      0.0038
    174  CD        62.6460   26.2770   64.4990 C.3   104  LYS104      0.0206
    175  CE        62.1550   27.0570   63.2870 C.3   104  LYS104      0.1093
    176  NZ        62.7870   26.5310   62.0400 N.3   104  LYS104     -0.1314
    177  N         58.3370   25.0230   70.7260 N.3   106  GLY106     -0.1210
    178  CA        57.6910   25.1390   72.0290 C.3   106  GLY106      0.1956
    179  C         57.2860   23.7960   72.5980 C.2   106  GLY106      0.2611
    180  O         57.9610   22.7960   72.3700 O.2   106  GLY106     -0.2717
    181  N         56.1790   23.7770   73.3390 N.am  107  ASP107     -0.1973
    182  CA        55.6890   22.5440   73.9410 C.3   107  ASP107      0.1709
    183  C         54.8870   21.7150   72.9350 C.2   107  ASP107      0.2293
    184  O         54.3360   22.2490   71.9640 O.2   107  ASP107     -0.2864
    185  CB        54.8820   22.8170   75.2190 C.3   107  ASP107      0.1436
    186  CG        53.6210   23.6250   74.9650 C.2   107  ASP107      0.3671
    187  OD1       53.7310   24.8170   74.6060 O.co2 107  ASP107     -0.2456
    188  OD2       52.5140   23.0720   75.1490 O.co2 107  ASP107     -0.2456
    189  N         59.0440   19.4000   75.1080 N.3   154  MET154     -0.1245
    190  CA        59.4050   20.4490   74.1580 C.3   154  MET154      0.1570
    191  C         59.7820   19.8760   72.8000 C.2   154  MET154      0.2261
    192  O         60.1080   18.6950   72.6880 O.2   154  MET154     -0.2867
    193  CB        60.5710   21.2940   74.6900 C.3   154  MET154      0.0387
    194  CG        60.4990   21.6830   76.1640 C.3   154  MET154      0.0595
    195  SD        58.9380   22.4150   76.6760 S.3   154  MET154     -0.1393
    196  CE        58.9090   23.9160   75.6970 C.3   154  MET154      0.0692
    197  N         60.5670   17.7580   79.7260 N.3   164  ALA164     -0.1231
    198  CA        60.8820   18.8900   80.5840 C.3   164  ALA164      0.1694
    199  C         59.9360   18.9210   81.7710 C.2   164  ALA164      0.2592
    200  O         59.0840   18.0440   81.9180 O.2   164  ALA164     -0.2718
    201  CB        60.7870   20.1960   79.7860 C.3   164  ALA164      0.0304
    202  N         60.1120   19.9310   82.6200 N.am  165  ASP165     -0.1960
    203  CA        59.2430   20.2070   83.7790 C.3   165  ASP165      0.1840
    204  C         59.1870   19.0810   84.8180 C.2   165  ASP165      0.2622
    205  O         58.1720   18.8820   85.4880 O.2   165  ASP165     -0.2715
    206  CB        57.8390   20.6290   83.3270 C.3   165  ASP165      0.1450
    207  CG        57.2780   21.7770   84.1490 C.2   165  ASP165      0.3671
    208  OD1       56.0460   21.9680   84.1240 O.co2 165  ASP165     -0.2456
    209  OD2       58.0580   22.5010   84.8080 O.co2 165  ASP165     -0.2456
    210  N         60.3000   18.3630   84.9440 N.am  166  PHE166     -0.1974
    211  CA        60.4580   17.3090   85.9390 C.3   166  PHE166      0.1639
    212  C         61.0000   17.8350   87.2750 C.2   166  PHE166      0.2290
    213  O         60.7650   17.2390   88.3400 O.2   166  PHE166     -0.2864
    214  CB        61.3520   16.1900   85.3930 C.3   166  PHE166      0.0560
    215  CG        62.5700   16.6770   84.6500 C.ar  166  PHE166     -0.0200
    216  CD1       62.6020   16.6630   83.2590 C.ar  166  PHE166     -0.0042
    217  CD2       63.6950   17.1310   85.3380 C.ar  166  PHE166     -0.0042
    218  CE1       63.7310   17.1020   82.5650 C.ar  166  PHE166     -0.0003
    219  CE2       64.8290   17.5730   84.6490 C.ar  166  PHE166     -0.0003
    220  CZ        64.8450   17.5590   83.2660 C.ar  166  PHE166     -0.0000
@<TRIPOS>BOND
     1   176   175    1
     2   175   174    1
     3   174   173    1
     4   173   172    1
     5   172   169    1
     6   171   170    2
     7   169   170    1
     8   169   168    1
     9   168   162   am
    10   156   154   ar
    11   156   158   ar
    12   159   158    1
    13   154   153   ar
    14   158   157   ar
    15   162   163    2
    16   162   161    1
    17   177   178    1
    18   151   150    2
    19   153   152    1
    20   153   155   ar
    21   161   160    1
    22   161   164    1
    23   157   155   ar
    24   184   183    2
    25   152   149    1
    26   178   179    1
    27   150   160   am
    28   150   149    1
    29   180   179    2
    30   179   181   am
    31   192   191    2
    32   164   165    1
    33   191   190    1
    34   149   148    1
    35   183   182    1
    36   167   166    1
    37   166   165    1
    38   181   182    1
    39   148   143   am
    40    22    21    1
    41   182   185    1
    42   190   193    1
    43   190   189    1
    44    21    23    1
    45    21    20    2
    46   143   144    2
    47   143   142    1
    48   187   186   ar
    49   145   142    1
    50   145   146    1
    51     6     8    1
    52     6     5    1
    53   193   194    1
    54   186   188   ar
    55   186   185    1
    56    19    20    1
    57    19    18    1
    58   142   141    1
    59     7     5    1
    60     9    10    1
    61     9     3   am
    62     2     5    1
    63     2     1    1
    64     2     3    1
    65    18    17    1
    66   196   195    1
    67   146   147    1
    68    10    11    1
    69    56    57    1
    70   194   195    1
    71     3     4    2
    72   141   147    1
    73   141   135   am
    74    11    12    2
    75    11    13   am
    76    60    57    1
    77   136   135    2
    78    57    58    1
    79   108   107    1
    80    17    14    1
    81    13    14    1
    82   135   134    1
    83    14    15    1
    84   103   102    1
    85   103   106    1
    86   103   104    1
    87    58    59    2
    88    52    51    2
    89   107   106    1
    90   107   109    1
    91   134   137    1
    92   134   133    1
    93    54    53    1
    94    46    44   ar
    95    46    48   ar
    96   137   138    1
    97    51    50    1
    98   104   105    2
    99    15    16    2
   100    15    24   am
   101    53    50    1
   102    53    55    1
   103    44    43   ar
   104    48    47   ar
   105   197   198    1
   106   201   198    1
   107    24    25    1
   108    50    49    1
   109   138   139    1
   110   138   140    1
   111   198   199    1
   112    43    42    1
   113    43    45   ar
   114   110   111    1
   115    35    33   ar
   116    35    37   ar
   117    47    45   ar
   118    32    33    1
   119    32    29    1
   120   112   113    2
   121   112   111    1
   122    42    39    1
   123    33    34   ar
   124    28    29    1
   125    28    26   am
   126    25    26    1
   127   111   114    1
   128    37    36   ar
   129   199   200    2
   130   199   202   am
   131    38    39    1
   132    38    30   am
   133    29    30    1
   134    61    62    1
   135    26    27    2
   136   101   100    1
   137    39    40    1
   138   129   128    2
   139    34    36   ar
   140   218   216   ar
   141   218   220   ar
   142   202   203    1
   143    30    31    2
   144    62    65    1
   145    62    63    1
   146   114   115    1
   147   128   127    1
   148   216   215   ar
   149   220   219   ar
   150    40    41    2
   151   206   203    1
   152   206   207    1
   153    65    66    1
   154   203   204    1
   155   116   115    1
   156    97    96    2
   157   115   117    1
   158   208   207   ar
   159   207   209   ar
   160   100    99    1
   161    63    64    2
   162    99    98    1
   163   131   130    1
   164    66    67    1
   165   219   217   ar
   166   215   217   ar
   167   215   214    1
   168   127   130    1
   169   127   126    1
   170   204   210   am
   171   204   205    2
   172   210   211    1
   173    96    95    1
   174   130   132    1
   175    67    68    1
   176   214   211    1
   177   118   119    1
   178    98    95    1
   179   211   212    1
   180    95    94    1
   181    68    69    1
   182   119   120    1
   183   119   122    1
   184   120   121    2
   185   212   213    2
   186   124   122    1
   187   122   123    1
   188    93    92    2
   189   123   125    1
   190    92    91    1
   191    91    90    1
   192    84    83    2
   193    80    78   ar
   194    80    79   ar
   195    78    76   ar
   196    83    90   am
   197    83    82    1
   198    79    77   ar
   199    76    75   ar
   200    85    82    1
   201    85    86    1
   202    82    81    1
   203    88    87   ar
   204    73    72    2
   205    77    75   ar
   206    75    74    1
   207    86    87    1
   208    87    89   ar
   209    72    71    1
   210    74    71    1
   211    71    70    1
