@<TRIPOS>MOLECULE
tmp/3eflA00.pdb
 200 189 0 0 0
SMALL
GASTEIGER

@<TRIPOS>ATOM
      1  N         37.4930   25.3430   20.3080 N.3    24  LEU24      -0.1245
      2  CA        38.8160   25.7620   19.8660 C.3    24  LEU24       0.1561
      3  C         39.2020   26.9190   20.7640 C.2    24  LEU24       0.2260
      4  O         40.3690   27.2890   20.8690 O.2    24  LEU24      -0.2867
      5  CB        38.7740   26.2290   18.4120 C.3    24  LEU24       0.0270
      6  CG        38.5190   25.1360   17.3730 C.3    24  LEU24       0.0019
      7  CD1       38.0870   25.7560   16.0650 C.3    24  LEU24       0.0001
      8  CD2       39.7790   24.2950   17.2010 C.3    24  LEU24       0.0001
      9  N         34.0680   29.4030   20.2800 N.3    30  VAL30      -0.1245
     10  CA        34.4760   29.0160   18.9460 C.3    30  VAL30       0.1561
     11  C         34.6650   27.5080   18.9500 C.2    30  VAL30       0.2260
     12  O         35.4620   26.9810   19.7230 O.2    30  VAL30      -0.2867
     13  CB        35.8130   29.6830   18.5470 C.3    30  VAL30       0.0252
     14  CG1       36.1690   29.3150   17.1200 C.3    30  VAL30       0.0019
     15  CG2       35.7150   31.1940   18.6980 C.3    30  VAL30       0.0019
     16  N         35.1430   26.4220   11.1950 N.3    45  ALA45      -0.1231
     17  CA        35.2150   26.9540   12.5620 C.3    45  ALA45       0.1694
     18  C         33.9720   27.8290   12.7210 C.2    45  ALA45       0.2592
     19  O         33.6700   28.6580   11.8650 O.2    45  ALA45      -0.2718
     20  CB        36.4810   27.7960   12.7600 C.3    45  ALA45       0.0304
     21  N         33.2530   27.6390   13.8160 N.am   46  VAL46      -0.1966
     22  CA        32.0420   28.3910   14.0430 C.3    46  VAL46       0.1727
     23  C         32.1030   29.2170   15.3030 C.2    46  VAL46       0.2616
     24  O         32.5980   28.7650   16.3440 O.2    46  VAL46      -0.2715
     25  CB        30.8240   27.4510   14.1470 C.3    46  VAL46       0.0290
     26  CG1       29.5330   28.2710   14.2980 C.3    46  VAL46       0.0023
     27  CG2       30.7620   26.5480   12.9200 C.3    46  VAL46       0.0023
     28  N         31.6060   30.4420   15.2020 N.am   47  LYS47      -0.1977
     29  CA        31.5590   31.3130   16.3550 C.3    47  LYS47       0.1596
     30  C         30.0660   31.4940   16.6360 C.2    47  LYS47       0.2287
     31  O         29.3180   31.9800   15.7840 O.2    47  LYS47      -0.2864
     32  CB        32.2500   32.6520   16.0530 C.3    47  LYS47       0.0298
     33  CG        32.5260   33.4920   17.2910 C.3    47  LYS47       0.0038
     34  CD        33.3080   34.7820   16.9920 C.3    47  LYS47       0.0206
     35  CE        34.7630   34.5030   16.5900 C.3    47  LYS47       0.1093
     36  NZ        35.5300   35.7780   16.4390 N.3    47  LYS47      -0.1314
     37  N         30.7380   41.5250   13.3620 N.3    62  GLU62      -0.1245
     38  CA        31.8880   40.7680   12.8880 C.3    62  GLU62       0.1567
     39  C         31.5180   40.1480   11.5410 C.2    62  GLU62       0.2260
     40  O         32.3140   40.1610   10.6110 O.2    62  GLU62      -0.2867
     41  CB        32.2570   39.6540   13.8740 C.3    62  GLU62       0.0388
     42  CG        33.3940   38.7840   13.3920 C.3    62  GLU62       0.1160
     43  CD        33.8900   37.8150   14.4490 C.2    62  GLU62       0.3649
     44  OE1       33.9860   38.2180   15.6240 O.co2  62  GLU62      -0.2457
     45  OE2       34.2060   36.6560   14.1060 O.co2  62  GLU62      -0.2457
     46  N         31.2320   42.9050    8.8860 N.3    65  ILE65      -0.1231
     47  CA        32.5700   43.3770    8.5730 C.3    65  ILE65       0.1692
     48  C         33.2780   42.3810    7.6530 C.2    65  ILE65       0.2591
     49  O         33.9290   42.7780    6.6840 O.2    65  ILE65      -0.2718
     50  CB        33.4110   43.5770    9.8500 C.3    65  ILE65       0.0266
     51  CG1       32.9500   44.8380   10.5800 C.3    65  ILE65       0.0019
     52  CG2       34.8890   43.7030    9.4950 C.3    65  ILE65       0.0020
     53  CD1       33.6850   45.0710   11.8740 C.3    65  ILE65       0.0001
     54  N         33.1410   41.0880    7.9370 N.am   66  LEU66      -0.1980
     55  CA        33.7930   40.0750    7.1130 C.3    66  LEU66       0.1596
     56  C         33.3000   40.0560    5.6600 C.2    66  LEU66       0.2287
     57  O         34.0890   39.8730    4.7360 O.2    66  LEU66      -0.2864
     58  CB        33.6330   38.6850    7.7480 C.3    66  LEU66       0.0297
     59  CG        34.5770   38.3720    8.9210 C.3    66  LEU66       0.0022
     60  CD1       34.2870   36.9830    9.4760 C.3    66  LEU66       0.0001
     61  CD2       36.0260   38.4460    8.4420 C.3    66  LEU66       0.0001
     62  N         34.7310   43.4270    4.0550 N.3    69  ILE69      -0.1245
     63  CA        36.1500   43.3270    3.7700 C.3    69  ILE69       0.1561
     64  C         36.4040   42.4640    2.5440 C.2    69  ILE69       0.2260
     65  O         37.2580   42.7870    1.7130 O.2    69  ILE69      -0.2867
     66  CB        36.9190   42.7590    4.9830 C.3    69  ILE69       0.0252
     67  CG1       36.9630   43.8080    6.0960 C.3    69  ILE69       0.0019
     68  CG2       38.3270   42.3770    4.5890 C.3    69  ILE69       0.0019
     69  CD1       37.7450   43.3580    7.3180 C.3    69  ILE69       0.0001
     70  N         43.8280   36.2300    4.9920 N.3    75  VAL75      -0.1231
     71  CA        42.7810   36.5670    5.9490 C.3    75  VAL75       0.1692
     72  C         41.8540   35.3450    5.9490 C.2    75  VAL75       0.2591
     73  O         41.5110   34.8350    4.8720 O.2    75  VAL75      -0.2718
     74  CB        42.0160   37.8310    5.5000 C.3    75  VAL75       0.0266
     75  CG1       40.8520   38.0950    6.4200 C.3    75  VAL75       0.0020
     76  CG2       42.9590   39.0400    5.4900 C.3    75  VAL75       0.0020
     77  N         41.4740   34.8550    7.1350 N.am   76  VAL76      -0.1980
     78  CA        40.6200   33.6670    7.2150 C.3    76  VAL76       0.1595
     79  C         39.3590   33.8910    6.3740 C.2    76  VAL76       0.2287
     80  O         38.7530   34.9550    6.4310 O.2    76  VAL76      -0.2864
     81  CB        40.2510   33.3100    8.6980 C.3    76  VAL76       0.0276
     82  CG1       39.2910   34.3310    9.2710 C.3    76  VAL76       0.0022
     83  CG2       39.6630   31.9010    8.7590 C.3    76  VAL76       0.0022
     84  N         28.5920   32.3240   13.0110 N.3    91  VAL91      -0.1245
     85  CA        29.4850   32.8230   11.9720 C.3    91  VAL91       0.1561
     86  C         30.4560   31.6850   11.6570 C.2    91  VAL91       0.2260
     87  O         31.1640   31.1860   12.5380 O.2    91  VAL91      -0.2867
     88  CB        30.2330   34.0970   12.4410 C.3    91  VAL91       0.0252
     89  CG1       31.2410   34.5340   11.3980 C.3    91  VAL91       0.0019
     90  CG2       29.2270   35.2200   12.6660 C.3    91  VAL91       0.0019
     91  N         33.6040   30.0800    9.3040 N.3    93  VAL93      -0.1231
     92  CA        34.7580   30.3540    8.4660 C.3    93  VAL93       0.1692
     93  C         35.5670   29.0750    8.2730 C.2    93  VAL93       0.2592
     94  O         35.3960   28.1020    9.0080 O.2    93  VAL93      -0.2718
     95  CB        35.6770   31.4370    9.0750 C.3    93  VAL93       0.0266
     96  CG1       34.8600   32.6810    9.4130 C.3    93  VAL93       0.0020
     97  CG2       36.3910   30.8950   10.3270 C.3    93  VAL93       0.0020
     98  N         36.4360   29.0850    7.2660 N.am   94  GLU94      -0.1966
     99  CA        37.2810   27.9450    6.9660 C.3    94  GLU94       0.1733
    100  C         38.0500   27.5530    8.2310 C.2    94  GLU94       0.2616
    101  O         38.4040   28.4090    9.0410 O.2    94  GLU94      -0.2715
    102  CB        38.2470   28.3010    5.8280 C.3    94  GLU94       0.0429
    103  CG        39.3410   29.2820    6.2060 C.3    94  GLU94       0.1163
    104  CD        40.2280   29.6450    5.0230 C.2    94  GLU94       0.3649
    105  OE1       40.5310   28.7510    4.2030 O.co2  94  GLU94      -0.2457
    106  OE2       40.6290   30.8210    4.9150 O.co2  94  GLU94      -0.2457
    107  N         38.2800   26.2570    8.4090 N.am   95  PHE95      -0.1960
    108  CA        38.9930   25.7670    9.5840 C.3    95  PHE95       0.1771
    109  C         40.4690   25.5370    9.2720 C.2    95  PHE95       0.2619
    110  O         40.8050   24.8810    8.2890 O.2    95  PHE95      -0.2715
    111  CB        38.3710   24.4510   10.0780 C.3    95  PHE95       0.0574
    112  CG        39.0850   23.8380   11.2630 C.ar   95  PHE95      -0.0200
    113  CD1       39.0570   24.4510   12.5070 C.ar   95  PHE95      -0.0042
    114  CD2       39.7780   22.6450   11.1310 C.ar   95  PHE95      -0.0042
    115  CE1       39.7070   23.8890   13.6030 C.ar   95  PHE95      -0.0003
    116  CE2       40.4300   22.0740   12.2230 C.ar   95  PHE95      -0.0003
    117  CZ        40.3920   22.7030   13.4640 C.ar   95  PHE95      -0.0000
    118  N         41.3410   26.0870   10.1140 N.am   96  CYS96      -0.1968
    119  CA        42.7840   25.9160    9.9480 C.3    96  CYS96       0.1712
    120  C         43.2200   24.9090   11.0020 C.2    96  CYS96       0.2296
    121  O         43.4460   25.2580   12.1630 O.2    96  CYS96      -0.2864
    122  CB        43.5080   27.2470   10.1510 C.3    96  CYS96       0.0983
    123  SG        43.0150   28.5360    8.9730 S.3    96  CYS96      -0.0798
    124  N         46.3230   25.2630   13.7010 N.3    99  GLY99      -0.1225
    125  CA        46.3050   26.1890   14.8220 C.3    99  GLY99       0.1811
    126  C         47.0870   27.4860   14.6730 C.2    99  GLY99       0.2280
    127  O         47.5760   27.8240   13.5890 O.2    99  GLY99      -0.2866
    128  N         43.7300   44.8130    4.8800 N.3   146  LEU146     -0.1245
    129  CA        42.7870   45.3210    5.8640 C.3   146  LEU146      0.1561
    130  C         42.8660   46.8450    5.9870 C.2   146  LEU146      0.2260
    131  O         41.8370   47.5350    6.0050 O.2   146  LEU146     -0.2867
    132  CB        43.0480   44.6720    7.2300 C.3   146  LEU146      0.0270
    133  CG        42.7450   43.1730    7.3230 C.3   146  LEU146      0.0019
    134  CD1       43.0130   42.6810    8.7380 C.3   146  LEU146      0.0001
    135  CD2       41.2810   42.9270    6.9560 C.3   146  LEU146      0.0001
    136  N         40.1650   49.0390    7.9780 N.3   151  CYS151     -0.1221
    137  CA        39.9120   48.1360    9.0970 C.3   151  CYS151      0.1808
    138  C         41.0900   48.1190   10.0810 C.2   151  CYS151      0.2601
    139  O         42.2530   48.0850    9.6760 O.2   151  CYS151     -0.2717
    140  CB        39.6320   46.7170    8.5730 C.3   151  CYS151      0.0970
    141  SG        39.2630   45.4210    9.8310 S.3   151  CYS151     -0.0800
    142  N         40.7750   48.1540   11.3740 N.am  152  ILE152     -0.1965
    143  CA        41.7830   48.1340   12.4310 C.3   152  ILE152      0.1727
    144  C         41.6000   46.8430   13.2310 C.2   152  ILE152      0.2616
    145  O         40.5280   46.6030   13.7920 O.2   152  ILE152     -0.2715
    146  CB        41.6170   49.3420   13.3730 C.3   152  ILE152      0.0290
    147  CG1       41.5700   50.6300   12.5490 C.3   152  ILE152      0.0022
    148  CG2       42.7730   49.4000   14.3580 C.3   152  ILE152      0.0023
    149  CD1       41.3750   51.8900   13.3760 C.3   152  ILE152      0.0001
    150  N         42.6390   46.0200   13.3010 N.am  153  HIS153     -0.1973
    151  CA        42.5170   44.7500   14.0050 C.3   153  HIS153      0.1656
    152  C         42.2930   44.8480   15.5180 C.2   153  HIS153      0.2291
    153  O         41.3390   44.2740   16.0360 O.2   153  HIS153     -0.2864
    154  CB        43.7270   43.8580   13.7010 C.3   153  HIS153      0.0771
    155  CG        43.5670   42.4560   14.1910 C.ar  153  HIS153      0.0820
    156  ND1       43.4810   42.1450   15.5310 N.ar  153  HIS153     -0.2267
    157  CD2       43.4200   41.2880   13.5220 C.ar  153  HIS153      0.1154
    158  CE1       43.2830   40.8460   15.6660 C.ar  153  HIS153      0.1986
    159  NE2       43.2420   40.3020   14.4620 N.ar  153  HIS153     -0.2212
    160  N         46.9130   32.1580   11.8710 N.3   162  LEU162     -0.1245
    161  CA        46.6990   30.7260   11.7060 C.3   162  LEU162      0.1561
    162  C         47.5040   30.1440   10.5680 C.2   162  LEU162      0.2260
    163  O         47.6610   30.7790    9.5300 O.2   162  LEU162     -0.2867
    164  CB        45.2150   30.4450   11.4610 C.3   162  LEU162      0.0270
    165  CG        44.2410   31.0150   12.4900 C.3   162  LEU162      0.0019
    166  CD1       42.8110   30.7110   12.0650 C.3   162  LEU162      0.0001
    167  CD2       44.5320   30.4140   13.8520 C.3   162  LEU162      0.0001
    168  N         45.2730   35.7430    8.8700 N.3   171  ILE171     -0.1231
    169  CA        44.9260   36.5920    9.9900 C.3   171  ILE171      0.1692
    170  C         43.5010   36.2580   10.4140 C.2   171  ILE171      0.2592
    171  O         42.5920   36.1690    9.5770 O.2   171  ILE171     -0.2718
    172  CB        44.9930   38.0730    9.5860 C.3   171  ILE171      0.0266
    173  CG1       46.4330   38.4480    9.2090 C.3   171  ILE171      0.0019
    174  CG2       44.4480   38.9280   10.6910 C.3   171  ILE171      0.0020
    175  CD1       46.5330   39.7530    8.4410 C.3   171  ILE171      0.0001
    176  N         43.3060   36.0670   11.7140 N.am  172  CYS172     -0.1956
    177  CA        41.9870   35.7650   12.2200 C.3   172  CYS172      0.1843
    178  C         41.8160   36.5630   13.5010 C.2   172  CYS172      0.2625
    179  O         42.6550   37.3980   13.8280 O.2   172  CYS172     -0.2714
    180  CB        41.8550   34.2590   12.5050 C.3   172  CYS172      0.0997
    181  SG        42.5360   33.7620   14.0910 S.3   172  CYS172     -0.0797
    182  N         40.7220   36.3180   14.2150 N.am  173  ASP173     -0.1957
    183  CA        40.4620   37.0060   15.4750 C.3   173  ASP173      0.1840
    184  C         39.5270   36.1700   16.3410 C.2   173  ASP173      0.2622
    185  O         38.3130   36.2060   16.1550 O.2   173  ASP173     -0.2715
    186  CB        39.8240   38.3820   15.2290 C.3   173  ASP173      0.1450
    187  CG        39.6270   39.1830   16.5260 C.2   173  ASP173      0.3671
    188  OD1       39.1450   40.3380   16.4600 O.co2 173  ASP173     -0.2456
    189  OD2       39.9560   38.6610   17.6130 O.co2 173  ASP173     -0.2456
    190  N         40.0910   35.4090   17.2740 N.am  174  PHE174     -0.1974
    191  CA        39.2760   34.5920   18.1660 C.3   174  PHE174      0.1639
    192  C         38.3190   35.4630   18.9650 C.2   174  PHE174      0.2290
    193  O         37.3420   34.9710   19.5250 O.2   174  PHE174     -0.2864
    194  CB        40.1520   33.7800   19.1320 C.3   174  PHE174      0.0560
    195  CG        40.8400   32.6240   18.4870 C.ar  174  PHE174     -0.0200
    196  CD1       41.9420   32.8240   17.6730 C.ar  174  PHE174     -0.0042
    197  CD2       40.3530   31.3350   18.6470 C.ar  174  PHE174     -0.0042
    198  CE1       42.5510   31.7600   17.0220 C.ar  174  PHE174     -0.0003
    199  CE2       40.9550   30.2630   17.9990 C.ar  174  PHE174     -0.0003
    200  CZ        42.0520   30.4780   17.1870 C.ar  174  PHE174     -0.0000
@<TRIPOS>BOND
     1    65    64    2
     2    64    63    1
     3    63    62    1
     4    63    66    1
     5   105   104   ar
     6    68    66    1
     7    57    56    2
     8    73    72    2
     9   128   129    1
    10   106   104   ar
    11    66    67    1
    12    70    71    1
    13   104   103    1
    14    76    74    1
    15    74    71    1
    16    74    75    1
    17    56    55    1
    18   102   103    1
    19   102    99    1
    20   129   130    1
    21   129   132    1
    22    71    72    1
    23    72    77   am
    24   130   131    2
    25    67    69    1
    26    79    80    2
    27    79    78    1
    28    49    48    2
    29   135   133    1
    30    99    98    1
    31    99   100    1
    32    55    58    1
    33    55    54    1
    34    77    78    1
    35    78    81    1
    36   132   133    1
    37    98    93   am
    38   133   134    1
    39    48    54   am
    40    48    47    1
    41    58    59    1
    42   136   137    1
    43   100   107   am
    44   100   101    2
    45    93    92    1
    46    93    94    2
    47   110   109    2
    48   107   108    1
    49   175   173    1
    50    61    59    1
    51    92    95    1
    52    92    91    1
    53    47    46    1
    54    47    50    1
    55   140   137    1
    56   140   141    1
    57    81    83    1
    58    81    82    1
    59   168   169    1
    60    59    60    1
    61   123   122    1
    62    95    96    1
    63    95    97    1
    64   137   138    1
    65   173   172    1
    66   109   108    1
    67   109   118   am
    68    52    50    1
    69   163   162    2
    70   171   170    2
    71   108   111    1
    72   172   169    1
    73   172   174    1
    74   139   138    2
    75    50    51    1
    76   119   118    1
    77   119   122    1
    78   119   120    1
    79   169   170    1
    80   111   112    1
    81   138   142   am
    82   170   176   am
    83   162   161    1
    84    51    53    1
    85    40    39    2
    86   120   121    2
    87   114   112   ar
    88   114   116   ar
    89    16    17    1
    90   112   113   ar
    91   142   143    1
    92    89    88    1
    93   164   161    1
    94   164   165    1
    95    39    38    1
    96    86    85    1
    97    86    87    2
    98   161   160    1
    99   176   177    1
   100    19    18    2
   101    85    88    1
   102    85    84    1
   103   166   165    1
   104   177   180    1
   105   177   178    1
   106   116   117   ar
   107   143   144    1
   108   143   146    1
   109    88    90    1
   110   165   167    1
   111   180   181    1
   112   113   115   ar
   113   147   146    1
   114   147   149    1
   115    17    18    1
   116    17    20    1
   117    18    21   am
   118    38    37    1
   119    38    41    1
   120    27    25    1
   121   144   150   am
   122   144   145    2
   123   150   151    1
   124   146   148    1
   125    42    41    1
   126    42    43    1
   127   117   115   ar
   128   178   179    2
   129   178   182   am
   130   157   155   ar
   131   157   159   ar
   132   127   126    2
   133   154   151    1
   134   154   155    1
   135   124   125    1
   136    21    22    1
   137   151   152    1
   138    22    25    1
   139    22    23    1
   140    45    43   ar
   141    25    26    1
   142   155   156   ar
   143   182   183    1
   144    43    44   ar
   145   159   158   ar
   146   126   125    1
   147    28    23   am
   148    28    29    1
   149   186   183    1
   150   186   187    1
   151    23    24    2
   152   183   184    1
   153   152   153    2
   154   156   158   ar
   155    31    30    2
   156    32    29    1
   157    32    33    1
   158     7     6    1
   159   185   184    2
   160   184   190   am
   161    29    30    1
   162    36    35    1
   163   188   187   ar
   164   187   189   ar
   165    35    34    1
   166    34    33    1
   167   198   200   ar
   168   198   196   ar
   169    14    13    1
   170   200   199   ar
   171     8     6    1
   172   190   191    1
   173     6     5    1
   174   196   195   ar
   175   199   197   ar
   176   191   192    1
   177   191   194    1
   178     5     2    1
   179   195   197   ar
   180   195   194    1
   181    13    15    1
   182    13    10    1
   183    10    11    1
   184    10     9    1
   185    11    12    2
   186   192   193    2
   187     2     1    1
   188     2     3    1
   189     3     4    2
