@<TRIPOS>MOLECULE
tmp/3eflB00.pdb
 200 189 0 0 0
SMALL
GASTEIGER

@<TRIPOS>ATOM
      1  N         26.4590    0.1050   17.2670 N.3    20  LEU20      -0.1245
      2  CA        27.6710    0.3250   18.0520 C.3    20  LEU20       0.1561
      3  C         27.9040   -0.8610   18.9670 C.2    20  LEU20       0.2260
      4  O         28.9660   -0.9910   19.5760 O.2    20  LEU20      -0.2867
      5  CB        27.5300    1.5850   18.9090 C.3    20  LEU20       0.0270
      6  CG        27.3890    2.9310   18.1950 C.3    20  LEU20       0.0019
      7  CD1       26.9560    3.9960   19.1960 C.3    20  LEU20       0.0001
      8  CD2       28.7180    3.3020   17.5460 C.3    20  LEU20       0.0001
      9  N         22.6220   -1.2220   20.4530 N.3    26  VAL26      -0.1245
     10  CA        22.9700    0.1790   20.6130 C.3    26  VAL26       0.1561
     11  C         23.3140    0.6480   19.2170 C.2    26  VAL26       0.2260
     12  O         24.1140    0.0230   18.5280 O.2    26  VAL26      -0.2867
     13  CB        24.1870    0.3850   21.5400 C.3    26  VAL26       0.0252
     14  CG1       24.6190    1.8550   21.5100 C.3    26  VAL26       0.0019
     15  CG2       23.8240   -0.0030   22.9610 C.3    26  VAL26       0.0019
     16  N         23.8840    8.2630   20.5570 N.3    44  ALA44      -0.1231
     17  CA        23.8570    6.8100   20.7220 C.3    44  ALA44       0.1694
     18  C         22.4340    6.4380   21.1060 C.2    44  ALA44       0.2592
     19  O         21.8500    7.0580   21.9960 O.2    44  ALA44      -0.2718
     20  CB        24.8420    6.3690   21.8150 C.3    44  ALA44       0.0304
     21  N         21.8850    5.4210   20.4410 N.am   45  VAL45      -0.1966
     22  CA        20.5080    4.9980   20.6810 C.3    45  VAL45       0.1727
     23  C         20.3080    3.5490   21.1410 C.2    45  VAL45       0.2616
     24  O         20.6870    2.5940   20.4550 O.2    45  VAL45      -0.2715
     25  CB        19.6570    5.2200   19.4050 C.3    45  VAL45       0.0290
     26  CG1       18.1820    4.8780   19.6780 C.3    45  VAL45       0.0023
     27  CG2       19.8020    6.6610   18.9380 C.3    45  VAL45       0.0023
     28  N         19.6930    3.3900   22.3080 N.am   46  LYS46      -0.1977
     29  CA        19.4190    2.0600   22.8370 C.3    46  LYS46       0.1596
     30  C         17.9480    1.7720   22.5320 C.2    46  LYS46       0.2287
     31  O         17.0640    2.5480   22.9030 O.2    46  LYS46      -0.2864
     32  CB        19.6780    2.0300   24.3420 C.3    46  LYS46       0.0298
     33  CG        19.6110    0.6550   24.9540 C.3    46  LYS46       0.0038
     34  CD        20.9580    0.2280   25.4740 C.3    46  LYS46       0.0206
     35  CE        21.3330    0.9900   26.7300 C.3    46  LYS46       0.1093
     36  NZ        22.4860    0.3610   27.4290 N.3    46  LYS46      -0.1314
     37  N         16.0740    1.9910   32.7330 N.3    60  GLU60      -0.1245
     38  CA        17.3280    2.6850   32.4710 C.3    60  GLU60       0.1567
     39  C         17.0180    4.1570   32.2290 C.2    60  GLU60       0.2260
     40  O         17.7320    5.0370   32.7050 O.2    60  GLU60      -0.2867
     41  CB        18.0260    2.0970   31.2430 C.3    60  GLU60       0.0388
     42  CG        19.3620    2.7480   30.9370 C.3    60  GLU60       0.1160
     43  CD        20.1650    1.9750   29.9160 C.2    60  GLU60       0.3649
     44  OE1       20.1800    0.7320   30.0000 O.co2  60  GLU60      -0.2457
     45  OE2       20.7930    2.6060   29.0430 O.co2  60  GLU60      -0.2457
     46  N         16.0930    5.9540   35.5400 N.3    63  ILE63      -0.1231
     47  CA        17.3150    6.1340   36.2980 C.3    63  ILE63       0.1692
     48  C         18.1890    7.2710   35.7530 C.2    63  ILE63       0.2591
     49  O         18.6540    8.1250   36.5160 O.2    63  ILE63      -0.2718
     50  CB        18.1080    4.8180   36.3330 C.3    63  ILE63       0.0266
     51  CG1       17.3590    3.8060   37.2080 C.3    63  ILE63       0.0019
     52  CG2       19.5250    5.0590   36.8440 C.3    63  ILE63       0.0020
     53  CD1       18.1240    2.5070   37.4470 C.3    63  ILE63       0.0001
     54  N         18.3990    7.2970   34.4390 N.am   64  LEU64      -0.1980
     55  CA        19.2190    8.3420   33.8340 C.3    64  LEU64       0.1596
     56  C         18.6060    9.7170   34.0700 C.2    64  LEU64       0.2287
     57  O         19.3240   10.7090   34.1990 O.2    64  LEU64      -0.2864
     58  CB        19.3920    8.0930   32.3330 C.3    64  LEU64       0.0297
     59  CG        20.3170    6.9290   31.9840 C.3    64  LEU64       0.0022
     60  CD1       20.2910    6.6730   30.4920 C.3    64  LEU64       0.0001
     61  CD2       21.7440    7.2560   32.4620 C.3    64  LEU64       0.0001
     62  N         19.3140   10.3020   38.1450 N.3    67  ILE67      -0.1245
     63  CA        20.6760   10.5880   38.5920 C.3    67  ILE67       0.1561
     64  C         21.1180   12.0160   38.3270 C.2    67  ILE67       0.2260
     65  O         21.8580   12.5970   39.1180 O.2    67  ILE67      -0.2867
     66  CB        21.7130    9.6580   37.9280 C.3    67  ILE67       0.0252
     67  CG1       21.7280    9.9000   36.4160 C.3    67  ILE67       0.0019
     68  CG2       21.3980    8.2050   38.2560 C.3    67  ILE67       0.0019
     69  CD1       22.8560    9.2180   35.6950 C.3    67  ILE67       0.0001
     70  N         29.8720   11.0390   33.1480 N.3    73  VAL73      -0.1231
     71  CA        28.8710    9.9900   33.0290 C.3    73  VAL73       0.1692
     72  C         28.0850   10.3350   31.7630 C.2    73  VAL73       0.2591
     73  O         27.7080   11.4870   31.5620 O.2    73  VAL73      -0.2718
     74  CB        27.9100    9.9780   34.2730 C.3    73  VAL73       0.0266
     75  CG1       26.8320    8.9370   34.0990 C.3    73  VAL73       0.0020
     76  CG2       28.7040    9.7060   35.5520 C.3    73  VAL73       0.0020
     77  N         27.8720    9.3560   30.8930 N.am   74  VAL74      -0.1980
     78  CA        27.1290    9.6050   29.6660 C.3    74  VAL74       0.1595
     79  C         25.8020   10.2890   30.0100 C.2    74  VAL74       0.2287
     80  O         25.0170    9.7810   30.8120 O.2    74  VAL74      -0.2864
     81  CB        26.8460    8.2940   28.9120 C.3    74  VAL74       0.0276
     82  CG1       25.9920    8.5710   27.6960 C.3    74  VAL74       0.0022
     83  CG2       28.1480    7.6620   28.4890 C.3    74  VAL74       0.0022
     84  N         16.0930    5.1520   23.6940 N.3    89  VAL89      -0.1245
     85  CA        16.7350    5.9630   24.7090 C.3    89  VAL89       0.1561
     86  C         17.9690    6.5780   24.0780 C.2    89  VAL89       0.2260
     87  O         18.8890    5.8710   23.6590 O.2    89  VAL89      -0.2867
     88  CB        17.1170    5.1150   25.9320 C.3    89  VAL89       0.0252
     89  CG1       17.8170    5.9920   26.9740 C.3    89  VAL89       0.0019
     90  CG2       15.8500    4.4810   26.5240 C.3    89  VAL89       0.0019
     91  N         21.3160    9.0950   24.1390 N.3    91  VAL91      -0.1231
     92  CA        22.3490    9.7120   24.9560 C.3    91  VAL91       0.1692
     93  C         23.4140   10.2820   24.0470 C.2    91  VAL91       0.2592
     94  O         23.4440    9.9890   22.8500 O.2    91  VAL91      -0.2718
     95  CB        23.0250    8.7010   25.9230 C.3    91  VAL91       0.0266
     96  CG1       22.0040    8.1790   26.9340 C.3    91  VAL91       0.0020
     97  CG2       23.6580    7.5620   25.1360 C.3    91  VAL91       0.0020
     98  N         24.2860   11.1020   24.6250 N.am   92  GLU92      -0.1966
     99  CA        25.3760   11.7210   23.8850 C.3    92  GLU92       0.1733
    100  C         26.3490   10.6540   23.3820 C.2    92  GLU92       0.2616
    101  O         26.6680    9.6940   24.0900 O.2    92  GLU92      -0.2715
    102  CB        26.1080   12.7070   24.7900 C.3    92  GLU92       0.0429
    103  CG        26.6680   12.0430   26.0340 C.3    92  GLU92       0.1163
    104  CD        27.2890   13.0300   26.9900 C.2    92  GLU92       0.3649
    105  OE1       26.5900   13.9700   27.4340 O.co2  92  GLU92      -0.2457
    106  OE2       28.4800   12.8590   27.2960 O.co2  92  GLU92      -0.2457
    107  N         26.8150   10.8330   22.1510 N.am   93  PHE93      -0.1960
    108  CA        27.7390    9.9020   21.5260 C.3    93  PHE93       0.1771
    109  C         29.1920   10.1650   21.9390 C.2    93  PHE93       0.2619
    110  O         29.6240   11.3180   22.0330 O.2    93  PHE93      -0.2715
    111  CB        27.5970   10.0180   20.0100 C.3    93  PHE93       0.0574
    112  CG        28.4690    9.0700   19.2340 C.ar   93  PHE93      -0.0200
    113  CD1       28.3830    7.6990   19.4320 C.ar   93  PHE93      -0.0042
    114  CD2       29.3480    9.5490   18.2770 C.ar   93  PHE93      -0.0042
    115  CE1       29.1600    6.8160   18.6850 C.ar   93  PHE93      -0.0003
    116  CE2       30.1270    8.6750   17.5270 C.ar   93  PHE93      -0.0003
    117  CZ        30.0320    7.3030   17.7320 C.ar   93  PHE93      -0.0000
    118  N         29.9340    9.0950   22.2050 N.am   94  CYS94      -0.1968
    119  CA        31.3510    9.2040   22.5600 C.3    94  CYS94       0.1712
    120  C         32.1010    8.5920   21.3840 C.2    94  CYS94       0.2296
    121  O         32.3160    7.3760   21.3190 O.2    94  CYS94      -0.2864
    122  CB        31.6410    8.4450   23.8520 C.3    94  CYS94       0.0983
    123  SG        30.7530    9.1220   25.2910 S.3    94  CYS94      -0.0798
    124  N         35.1030    5.5530   21.2480 N.3    97  GLY97      -0.1225
    125  CA        34.9460    4.1950   21.7540 C.3    97  GLY97       0.1811
    126  C         35.4100    3.9820   23.1890 C.2    97  GLY97       0.2280
    127  O         35.7540    4.9420   23.8920 O.2    97  GLY97      -0.2866
    128  N         28.0300    8.9700   41.1440 N.3   135  LEU135     -0.1245
    129  CA        27.0720    7.8710   41.1460 C.3   135  LEU135      0.1561
    130  C         26.8380    7.3310   42.5550 C.2   135  LEU135      0.2260
    131  O         25.7280    6.9270   42.8970 O.2   135  LEU135     -0.2867
    132  CB        27.5500    6.7390   40.2270 C.3   135  LEU135      0.0270
    133  CG        27.5390    7.0770   38.7330 C.3   135  LEU135      0.0019
    134  CD1       27.9020    5.8590   37.9060 C.3   135  LEU135      0.0001
    135  CD2       26.1590    7.5740   38.3500 C.3   135  LEU135      0.0001
    136  N         23.7610    5.1460   43.4940 N.3   140  CYS140     -0.1221
    137  CA        23.6980    4.2950   42.3210 C.3   140  CYS140      0.1808
    138  C         24.8740    3.3250   42.3260 C.2   140  CYS140      0.2601
    139  O         25.9880    3.6890   42.6940 O.2   140  CYS140     -0.2717
    140  CB        23.7310    5.1510   41.0500 C.3   140  CYS140      0.0970
    141  SG        23.3770    4.2360   39.5250 S.3   140  CYS140     -0.0800
    142  N         24.6110    2.0830   41.9320 N.am  141  ILE141     -0.1965
    143  CA        25.6440    1.0520   41.8660 C.3   141  ILE141      0.1727
    144  C         25.7000    0.5570   40.4290 C.2   141  ILE141      0.2616
    145  O         24.7200    0.0110   39.9200 O.2   141  ILE141     -0.2715
    146  CB        25.3110   -0.1390   42.7910 C.3   141  ILE141      0.0290
    147  CG1       25.1100    0.3580   44.2250 C.3   141  ILE141      0.0022
    148  CG2       26.4380   -1.1590   42.7560 C.3   141  ILE141      0.0023
    149  CD1       24.7180   -0.7350   45.1980 C.3   141  ILE141      0.0001
    150  N         26.8460    0.7350   39.7820 N.am  142  HIS142     -0.1973
    151  CA        27.0080    0.3310   38.3860 C.3   142  HIS142      0.1656
    152  C         26.8410   -1.1740   38.1710 C.2   142  HIS142      0.2291
    153  O         26.0440   -1.6000   37.3350 O.2   142  HIS142     -0.2864
    154  CB        28.3720    0.7880   37.8740 C.3   142  HIS142      0.0771
    155  CG        28.4640    0.8550   36.3820 C.ar  142  HIS142      0.0820
    156  ND1       28.4120   -0.2650   35.5790 N.ar  142  HIS142     -0.2267
    157  CD2       28.5770    1.9140   35.5440 C.ar  142  HIS142      0.1154
    158  CE1       28.4870    0.1010   34.3110 C.ar  142  HIS142      0.1986
    159  NE2       28.5880    1.4170   34.2630 N.ar  142  HIS142     -0.2212
    160  N         33.7720    5.1870   28.0670 N.3   151  LEU151     -0.1245
    161  CA        33.9200    5.6900   26.7140 C.3   151  LEU151      0.1561
    162  C         34.7280    6.9840   26.6810 C.2   151  LEU151      0.2260
    163  O         34.8210    7.7050   27.6730 O.2   151  LEU151     -0.2867
    164  CB        32.5440    5.8830   26.0770 C.3   151  LEU151      0.0270
    165  CG        31.6470    4.6410   26.1680 C.3   151  LEU151      0.0019
    166  CD1       30.3100    4.9120   25.4730 C.3   151  LEU151      0.0001
    167  CD2       32.3400    3.4430   25.5410 C.3   151  LEU151      0.0001
    168  N         31.3890    7.4410   32.0110 N.3   160  ILE160     -0.1231
    169  CA        30.9210    6.1490   32.4580 C.3   160  ILE160      0.1692
    170  C         29.6160    5.8680   31.7280 C.2   160  ILE160      0.2592
    171  O         28.7610    6.7460   31.6240 O.2   160  ILE160     -0.2718
    172  CB        30.6740    6.1640   33.9820 C.3   160  ILE160      0.0266
    173  CG1       31.9970    6.3630   34.7200 C.3   160  ILE160      0.0019
    174  CG2       30.0270    4.8740   34.4170 C.3   160  ILE160      0.0020
    175  CD1       31.8300    6.5610   36.2160 C.3   160  ILE160      0.0001
    176  N         29.4740    4.6460   31.2200 N.am  161  CYS161     -0.1956
    177  CA        28.2720    4.2370   30.5010 C.3   161  CYS161      0.1843
    178  C         27.9340    2.8000   30.8730 C.2   161  CYS161      0.2625
    179  O         28.5850    2.2020   31.7250 O.2   161  CYS161     -0.2714
    180  CB        28.5110    4.2950   28.9950 C.3   161  CYS161      0.0997
    181  SG        29.4340    2.8570   28.3810 S.3   161  CYS161     -0.0797
    182  N         26.9180    2.2500   30.2210 N.am  162  ASP162     -0.1957
    183  CA        26.5040    0.8700   30.4530 C.3   162  ASP162      0.1840
    184  C         25.8360    0.3370   29.1820 C.2   162  ASP162      0.2622
    185  O         24.7330    0.7510   28.8410 O.2   162  ASP162     -0.2715
    186  CB        25.5160    0.8020   31.6250 C.3   162  ASP162      0.1450
    187  CG        25.2190   -0.6310   32.0700 C.2   162  ASP162      0.3671
    188  OD1       24.3710   -0.8060   32.9750 O.co2 162  ASP162     -0.2456
    189  OD2       25.8290   -1.5780   31.5220 O.co2 162  ASP162     -0.2456
    190  N         26.5000   -0.5720   28.4760 N.am  163  PHE163     -0.1974
    191  CA        25.9050   -1.1190   27.2590 C.3   163  PHE163      0.1639
    192  C         24.7060   -2.0170   27.5620 C.2   163  PHE163      0.2290
    193  O         23.7280   -2.0440   26.8090 O.2   163  PHE163     -0.2864
    194  CB        26.9460   -1.8900   26.4420 C.3   163  PHE163      0.0560
    195  CG        27.8450   -1.0070   25.6190 C.ar  163  PHE163     -0.0200
    196  CD1       28.8990   -0.3280   26.2010 C.ar  163  PHE163     -0.0042
    197  CD2       27.6190   -0.8450   24.2580 C.ar  163  PHE163     -0.0042
    198  CE1       29.7150    0.5010   25.4360 C.ar  163  PHE163     -0.0003
    199  CE2       28.4300   -0.0170   23.4840 C.ar  163  PHE163     -0.0003
    200  CZ        29.4770    0.6560   24.0700 C.ar  163  PHE163     -0.0000
@<TRIPOS>BOND
     1     1     2    1
     2   116   117   ar
     3   116   114   ar
     4     8     6    1
     5   117   115   ar
     6     2     5    1
     7     2     3    1
     8     6     5    1
     9     6     7    1
    10   114   112   ar
    11    12    11    2
    12   115   113   ar
    13    27    25    1
    14     3     4    2
    15    11    10    1
    16   112   113   ar
    17   112   111    1
    18    25    26    1
    19    25    22    1
    20   111   108    1
    21    21    22    1
    22    21    18   am
    23     9    10    1
    24    24    23    2
    25    16    17    1
    26    10    13    1
    27    22    23    1
    28    17    18    1
    29    17    20    1
    30    18    19    2
    31    23    28   am
    32   124   125    1
    33   121   120    2
    34   120   119    1
    35    14    13    1
    36   108   109    1
    37   108   107    1
    38    13    15    1
    39   125   126    1
    40   109   110    2
    41   109   118   am
    42   107   100   am
    43   118   119    1
    44    28    29    1
    45    30    29    1
    46    30    31    2
    47   119   122    1
    48    29    32    1
    49    94    93    2
    50   126   127    2
    51   100    99    1
    52   100   101    2
    53   199   200   ar
    54   199   197   ar
    55    87    86    2
    56    84    85    1
    57   122   123    1
    58    99    98    1
    59    99   102    1
    60    93    98   am
    61    93    92    1
    62   200   198   ar
    63    86    85    1
    64    91    92    1
    65   197   195   ar
    66    32    33    1
    67    85    88    1
    68   102   103    1
    69    33    34    1
    70    92    95    1
    71    97    95    1
    72   198   196   ar
    73   166   165    1
    74    34    35    1
    75   167   165    1
    76   195   196   ar
    77   195   194    1
    78    95    96    1
    79    88    90    1
    80    88    89    1
    81   103   104    1
    82   164   165    1
    83   164   161    1
    84   194   191    1
    85   162   161    1
    86   162   163    2
    87   161   160    1
    88    35    36    1
    89   193   192    2
    90   104   106   ar
    91   104   105   ar
    92   191   192    1
    93   191   190    1
    94    82    81    1
    95   181   180    1
    96   190   184   am
    97    83    81    1
    98   185   184    2
    99    81    78    1
   100   180   177    1
   101    45    43   ar
   102   184   183    1
   103    78    79    1
   104    78    77    1
   105    43    44   ar
   106    43    42    1
   107    79    80    2
   108   182   183    1
   109   182   178   am
   110   183   186    1
   111    60    59    1
   112   177   178    1
   113   177   176    1
   114   178   179    2
   115    77    72   am
   116    42    41    1
   117   176   170   am
   118    41    38    1
   119   189   187   ar
   120    73    72    2
   121   171   170    2
   122   186   187    1
   123   170   169    1
   124    72    71    1
   125    59    58    1
   126    59    61    1
   127   168   169    1
   128   187   188   ar
   129    39    38    1
   130    39    40    2
   131    58    55    1
   132   169   172    1
   133    38    37    1
   134    71    70    1
   135    71    74    1
   136    55    56    1
   137    55    54    1
   138   172   174    1
   139   172   173    1
   140    56    57    2
   141    75    74    1
   142   159   158   ar
   143   159   157   ar
   144    74    76    1
   145   158   156   ar
   146    54    48   am
   147   173   175    1
   148    46    47    1
   149   157   155   ar
   150   156   155   ar
   151    69    67    1
   152    48    47    1
   153    48    49    2
   154    47    50    1
   155    50    52    1
   156    50    51    1
   157   155   154    1
   158    67    66    1
   159    51    53    1
   160   153   152    2
   161   154   151    1
   162   134   133    1
   163    66    68    1
   164    66    63    1
   165    62    63    1
   166   152   151    1
   167    64    63    1
   168    64    65    2
   169   135   133    1
   170   151   150    1
   171   133   132    1
   172   141   140    1
   173   150   144   am
   174   145   144    2
   175   132   129    1
   176   144   143    1
   177   140   137    1
   178   128   129    1
   179   129   130    1
   180   143   142    1
   181   143   146    1
   182   142   138   am
   183   137   138    1
   184   137   136    1
   185   138   139    2
   186   130   131    2
   187   148   146    1
   188   146   147    1
   189   147   149    1
