@<TRIPOS>MOLECULE
tmp/3efoB00.pdb
 127 123 0 0 0
SMALL
GASTEIGER

@<TRIPOS>ATOM
      1  N        -72.0920  -23.5840    1.7980 N.3     1  ALA1       -0.1231
      2  CA       -71.1930  -22.8850    2.7590 C.3     1  ALA1        0.1694
      3  C        -69.9110  -22.4030    2.0220 C.2     1  ALA1        0.2592
      4  O        -69.0460  -23.2250    1.6440 O.2     1  ALA1       -0.2718
      5  CB       -70.8340  -23.8370    3.9620 C.3     1  ALA1        0.0304
      6  N        -69.7830  -21.0820    1.8180 N.am    2  MET2       -0.1965
      7  CA       -68.6110  -20.5030    1.1190 C.3     2  MET2        0.1736
      8  C        -67.3560  -20.1780    1.9150 C.2     2  MET2        0.2617
      9  O        -67.4400  -19.8310    3.0890 O.2     2  MET2       -0.2715
     10  CB       -68.9860  -19.2080    0.3570 C.3     2  MET2        0.0427
     11  CG       -67.7550  -18.3620   -0.1120 C.3     2  MET2        0.0599
     12  SD       -66.7540  -19.0600   -1.4740 S.3     2  MET2       -0.1393
     13  CE       -68.0910  -19.3900   -2.6130 C.3     2  MET2        0.0692
     14  N        -66.2010  -20.2490    1.2430 N.am    3  GLY3       -0.1955
     15  CA       -64.9470  -19.8910    1.8850 C.3     3  GLY3        0.1869
     16  C        -64.9730  -18.3880    2.1600 C.2     3  GLY3        0.2309
     17  O        -65.0130  -17.5800    1.2350 O.2     3  GLY3       -0.2863
     18  N        -67.3270  -20.0170  -16.5610 N.3   558  TYR558     -0.1241
     19  CA       -66.4280  -20.9540  -15.9100 C.3   558  TYR558      0.1605
     20  C        -67.1510  -22.2920  -15.7230 C.2   558  TYR558      0.2264
     21  O        -66.5880  -23.3710  -15.9490 O.2   558  TYR558     -0.2867
     22  CB       -65.9940  -20.4060  -14.5530 C.3   558  TYR558      0.0534
     23  CG       -64.9510  -21.2590  -13.8780 C.ar  558  TYR558     -0.0201
     24  CD1      -63.6320  -21.2600  -14.3200 C.ar  558  TYR558     -0.0009
     25  CD2      -65.2920  -22.0960  -12.8180 C.ar  558  TYR558     -0.0009
     26  CE1      -62.6820  -22.0720  -13.7230 C.ar  558  TYR558      0.0417
     27  CE2      -64.3520  -22.9160  -12.2170 C.ar  558  TYR558      0.0417
     28  CZ       -63.0510  -22.8990  -12.6720 C.ar  558  TYR558      0.1957
     29  OH       -62.1180  -23.7060  -12.0720 O.3   558  TYR558     -0.2866
     30  N        -65.1710  -25.9880  -15.1600 N.3   563  ALA563     -0.1231
     31  CA       -65.5850  -26.8220  -14.0490 C.3   563  ALA563      0.1694
     32  C        -65.8870  -28.2550  -14.4420 C.2   563  ALA563      0.2592
     33  O        -66.5860  -28.5060  -15.4260 O.2   563  ALA563     -0.2718
     34  CB       -66.7980  -26.2110  -13.3870 C.3   563  ALA563      0.0304
     35  N        -65.3430  -29.1940  -13.6720 N.am  564  SER564     -0.1952
     36  CA       -65.6040  -30.6080  -13.9070 C.3   564  SER564      0.1924
     37  C        -67.0970  -30.7750  -13.6220 C.2   564  SER564      0.2314
     38  O        -67.6660  -30.0390  -12.8070 O.2   564  SER564     -0.2863
     39  CB       -64.7740  -31.4690  -12.9560 C.3   564  SER564      0.2116
     40  OG       -64.8550  -30.9750  -11.6320 O.3   564  SER564     -0.2180
     41  N        -77.5930  -28.4180   -8.4020 N.3   569  SER569     -0.1202
     42  CA       -77.9500  -27.8130   -7.1290 C.3   569  SER569      0.2020
     43  C        -76.7450  -27.0770   -6.5480 C.2   569  SER569      0.2619
     44  O        -76.8250  -26.4790   -5.4710 O.2   569  SER569     -0.2717
     45  CB       -78.4250  -28.8950   -6.1530 C.3   569  SER569      0.2103
     46  OG       -77.4080  -29.8550   -5.9180 O.3   569  SER569     -0.2182
     47  N        -75.6270  -27.1200   -7.2670 N.am  570  GLN570     -0.1965
     48  CA       -74.4080  -26.4650   -6.8060 C.3   570  GLN570      0.1733
     49  C        -73.9720  -25.2790   -7.6400 C.2   570  GLN570      0.2616
     50  O        -74.1650  -25.2430   -8.8520 O.2   570  GLN570     -0.2715
     51  CB       -73.2490  -27.4530   -6.7630 C.3   570  GLN570      0.0408
     52  CG       -73.3890  -28.5420   -5.7420 C.3   570  GLN570      0.0908
     53  CD       -72.1160  -29.3350   -5.6010 C.2   570  GLN570      0.2608
     54  OE1      -71.6300  -29.9300   -6.5680 O.2   570  GLN570     -0.2717
     55  NE2      -71.5570  -29.3450   -4.3950 N.am  570  GLN570     -0.0878
     56  N        -73.3750  -24.3060   -6.9680 N.am  571  LEU571     -0.1963
     57  CA       -72.8630  -23.1160   -7.6210 C.3   571  LEU571      0.1728
     58  C        -71.3450  -23.2320   -7.5330 C.2   571  LEU571      0.2616
     59  O        -70.7830  -23.3240   -6.4380 O.2   571  LEU571     -0.2715
     60  CB       -73.3610  -21.8720   -6.8980 C.3   571  LEU571      0.0311
     61  CG       -72.5370  -20.6050   -7.0920 C.3   571  LEU571      0.0022
     62  CD1      -73.4330  -19.4210   -7.3650 C.3   571  LEU571      0.0001
     63  CD2      -71.7110  -20.3810   -5.8390 C.3   571  LEU571      0.0001
     64  N        -70.6820  -23.2490   -8.6840 N.am  572  ILE572     -0.1963
     65  CA       -69.2320  -23.3920   -8.6980 C.3   572  ILE572      0.1727
     66  C        -68.4960  -22.0740   -8.8880 C.2   572  ILE572      0.2616
     67  O        -68.7880  -21.3140   -9.8140 O.2   572  ILE572     -0.2715
     68  CB       -68.7730  -24.3790   -9.8040 C.3   572  ILE572      0.0290
     69  CG1      -69.5150  -25.7100   -9.6660 C.3   572  ILE572      0.0022
     70  CG2      -67.2680  -24.6170   -9.6970 C.3   572  ILE572      0.0023
     71  CD1      -69.3530  -26.3800   -8.3040 C.3   572  ILE572      0.0001
     72  N        -67.5350  -21.8200   -8.0060 N.am  573  LEU573     -0.1964
     73  CA       -66.7320  -20.6050   -8.0520 C.3   573  LEU573      0.1713
     74  C        -65.2550  -20.9680   -8.0590 C.2   573  LEU573      0.2458
     75  O        -64.8030  -21.7660   -7.2390 O.2   573  LEU573     -0.2730
     76  CB       -66.9960  -19.7320   -6.8220 C.3   573  LEU573      0.0310
     77  CG       -68.4340  -19.4480   -6.4070 C.3   573  LEU573      0.0022
     78  CD1      -68.4330  -18.3820   -5.3140 C.3   573  LEU573      0.0001
     79  CD2      -69.2370  -19.0010   -7.6150 C.3   573  LEU573      0.0001
     80  N        -64.4850  -20.4020   -8.9960 N.am  574  PRO574     -0.2716
     81  CA       -63.0480  -20.6990   -9.0510 C.3   574  PRO574      0.1536
     82  C        -62.3300  -20.1420   -7.8120 C.2   574  PRO574      0.2598
     83  O        -62.7710  -19.1420   -7.2510 O.2   574  PRO574     -0.2715
     84  CB       -62.6040  -20.0190  -10.3510 C.3   574  PRO574      0.0310
     85  CG       -63.6390  -18.9300  -10.5650 C.3   574  PRO574      0.0237
     86  CD       -64.9150  -19.6220  -10.1690 C.3   574  PRO574      0.0939
     87  N        -61.2410  -20.7880   -7.3850 N.am  575  ASP575     -0.1972
     88  CA       -60.4810  -20.3360   -6.2090 C.3   575  ASP575      0.1709
     89  C        -60.1600  -18.8610   -6.3170 C.2   575  ASP575      0.2293
     90  O        -60.2940  -18.1060   -5.3580 O.2   575  ASP575     -0.2864
     91  CB       -59.1610  -21.0990   -6.0780 C.3   575  ASP575      0.1436
     92  CG       -59.3350  -22.4830   -5.4920 C.2   575  ASP575      0.3671
     93  OD1      -59.7560  -22.5830   -4.3220 O.co2 575  ASP575     -0.2456
     94  OD2      -59.0460  -23.4740   -6.1990 O.co2 575  ASP575     -0.2456
     95  N        -63.2600  -17.1050   -5.2550 N.3   578  LYS578     -0.1245
     96  CA       -63.9530  -17.5340   -4.0370 C.3   578  LYS578      0.1561
     97  C        -64.7540  -16.4220   -3.3720 C.2   578  LYS578      0.2260
     98  O        -65.9540  -16.5500   -3.1680 O.2   578  LYS578     -0.2867
     99  CB       -62.9590  -18.0330   -2.9880 C.3   578  LYS578      0.0271
    100  CG       -62.3370  -19.3920   -3.2050 C.3   578  LYS578      0.0035
    101  CD       -61.3230  -19.6180   -2.0910 C.3   578  LYS578      0.0206
    102  CE       -60.7220  -21.0010   -2.1050 C.3   578  LYS578      0.1093
    103  NZ       -59.6990  -21.1120   -1.0290 N.3   578  LYS578     -0.1314
    104  N        -75.7580  -14.4360   -3.2470 N.3   755  LEU755     -0.1231
    105  CA       -75.2470  -15.6950   -3.7680 C.3   755  LEU755      0.1693
    106  C        -76.4110  -16.4180   -4.4100 C.2   755  LEU755      0.2592
    107  O        -76.3000  -16.9780   -5.4970 O.2   755  LEU755     -0.2718
    108  CB       -74.6910  -16.5570   -2.6400 C.3   755  LEU755      0.0284
    109  CG       -73.1820  -16.7310   -2.5780 C.3   755  LEU755      0.0019
    110  CD1      -72.8620  -17.7930   -1.5440 C.3   755  LEU755      0.0001
    111  CD2      -72.6530  -17.1450   -3.9410 C.3   755  LEU755      0.0001
    112  N        -77.5360  -16.3910   -3.7120 N.am  756  CYS756     -0.1970
    113  CA       -78.7510  -17.0430   -4.1730 C.3   756  CYS756      0.1712
    114  C        -79.2190  -16.4510   -5.5120 C.2   756  CYS756      0.2296
    115  O        -79.7110  -17.1690   -6.3890 O.2   756  CYS756     -0.2864
    116  CB       -79.8300  -16.8850   -3.0990 C.3   756  CYS756      0.0983
    117  SG       -81.2680  -17.9210   -3.3390 S.3   756  CYS756     -0.0798
    118  N        -76.7580  -17.3840   -8.6390 N.3   759  HIS759     -0.1241
    119  CA       -77.0280  -18.7330   -9.1050 C.3   759  HIS759      0.1621
    120  C        -78.2580  -18.7770  -10.0080 C.2   759  HIS759      0.2264
    121  O        -78.2790  -19.5100  -10.9940 O.2   759  HIS759     -0.2867
    122  CB       -77.2180  -19.6860   -7.9240 C.3   759  HIS759      0.0745
    123  CG       -77.1150  -21.1310   -8.3030 C.ar  759  HIS759      0.0817
    124  ND1      -78.1370  -22.0320   -8.0940 N.ar  759  HIS759     -0.2268
    125  CD2      -76.1130  -21.8260   -8.8940 C.ar  759  HIS759      0.1154
    126  CE1      -77.7700  -23.2200   -8.5400 C.ar  759  HIS759      0.1986
    127  NE2      -76.5470  -23.1220   -9.0300 N.ar  759  HIS759     -0.2212
@<TRIPOS>BOND
     1    18    19    1
     2    21    20    2
     3    19    20    1
     4    19    22    1
     5    33    32    2
     6    30    31    1
     7    22    23    1
     8    32    31    1
     9    32    35   am
    10    24    23   ar
    11    24    26   ar
    12    31    34    1
    13    36    35    1
    14    36    37    1
    15    36    39    1
    16    23    25   ar
    17    26    28   ar
    18    37    38    2
    19    39    40    1
    20    25    27   ar
    21    28    27   ar
    22    28    29    1
    23   121   120    2
    24    85    84    1
    25    85    86    1
    26    84    81    1
    27    86    80    1
    28   120   119    1
    29    67    66    2
    30    68    70    1
    31    68    69    1
    32    68    65    1
    33    69    71    1
    34   119   118    1
    35   119   122    1
    36    81    80    1
    37    81    82    1
    38   127   125   ar
    39   127   126   ar
    40    80    74   am
    41   125   123   ar
    42    66    65    1
    43    66    72   am
    44    50    49    2
    45    65    64    1
    46    64    58   am
    47   126   124   ar
    48    41    42    1
    49   123   124   ar
    50   123   122    1
    51    74    73    1
    52    74    75    2
    53    73    72    1
    54    73    76    1
    55    82    87   am
    56    82    83    2
    57    49    56   am
    58    49    48    1
    59    57    58    1
    60    57    56    1
    61    57    60    1
    62    79    77    1
    63    58    59    2
    64    87    88    1
    65    62    61    1
    66    47    48    1
    67    47    43   am
    68    42    43    1
    69    42    45    1
    70    61    60    1
    71    61    63    1
    72    76    77    1
    73    48    51    1
    74    51    52    1
    75    54    53    2
    76    43    44    2
    77    77    78    1
    78   115   114    2
    79    89    88    1
    80    89    90    2
    81    88    91    1
    82    94    92   ar
    83    45    46    1
    84    91    92    1
    85    52    53    1
    86    53    55   am
    87   114   113    1
    88   107   106    2
    89    92    93   ar
    90    95    96    1
    91   106   105    1
    92   106   112   am
    93   113   112    1
    94   113   116    1
    95    96    97    1
    96    96    99    1
    97   111   109    1
    98   105   104    1
    99   105   108    1
   100    97    98    2
   101   117   116    1
   102   100    99    1
   103   100   101    1
   104   108   109    1
   105    13    12    1
   106   109   110    1
   107   102   101    1
   108   102   103    1
   109    12    11    1
   110    11    10    1
   111    10     7    1
   112     7     6    1
   113     7     8    1
   114    17    16    2
   115    14    15    1
   116    14     8   am
   117     4     3    2
   118     1     2    1
   119     6     3   am
   120    15    16    1
   121     8     9    2
   122     3     2    1
   123     2     5    1
