@<TRIPOS>MOLECULE
tmp/3efqB00.pdb
 220 205 0 0 0
SMALL
GASTEIGER

@<TRIPOS>ATOM
      1  N         27.5700  -35.2530   23.1520 N.3    90  HIS90      -0.1226
      2  CA        27.6610  -34.4810   21.9160 C.3    90  HIS90       0.1752
      3  C         27.2410  -35.3530   20.7440 C.2    90  HIS90       0.2596
      4  O         26.4620  -34.9280   19.9370 O.2    90  HIS90      -0.2718
      5  CB        29.0760  -33.9310   21.7190 C.3    90  HIS90       0.0759
      6  CG        29.4550  -33.6660   20.2810 C.ar   90  HIS90       0.0818
      7  ND1       29.0410  -32.5490   19.5920 N.ar   90  HIS90      -0.2268
      8  CD2       30.2540  -34.3580   19.4290 C.ar   90  HIS90       0.1154
      9  CE1       29.5500  -32.5730   18.3690 C.ar   90  HIS90       0.1986
     10  NE2       30.3000  -33.6540   18.2510 N.ar   90  HIS90      -0.2212
     11  N         27.7430  -36.5820   20.6510 N.am   91  TYR91      -0.1962
     12  CA        27.3360  -37.4190   19.4960 C.3    91  TYR91       0.1771
     13  C         25.8450  -37.6770   19.4590 C.2    91  TYR91       0.2619
     14  O         25.2400  -37.5920   18.4080 O.2    91  TYR91      -0.2715
     15  CB        28.0700  -38.7590   19.4870 C.3    91  TYR91       0.0574
     16  CG        29.5680  -38.6560   19.2710 C.ar   91  TYR91      -0.0198
     17  CD1       30.1090  -37.6360   18.4750 C.ar   91  TYR91      -0.0009
     18  CD2       30.4350  -39.6140   19.8140 C.ar   91  TYR91      -0.0009
     19  CE1       31.4550  -37.5600   18.2110 C.ar   91  TYR91       0.0417
     20  CE2       31.8150  -39.5310   19.5990 C.ar   91  TYR91       0.0417
     21  CZ        32.3150  -38.5040   18.7970 C.ar   91  TYR91       0.1957
     22  OH        33.6620  -38.4040   18.5710 O.3    91  TYR91      -0.2866
     23  N         25.2560  -37.9830   20.6140 N.am   92  LEU92      -0.1977
     24  CA        23.8330  -38.3510   20.6550 C.3    92  LEU92       0.1596
     25  C         22.9140  -37.1860   20.2960 C.2    92  LEU92       0.2287
     26  O         21.8930  -37.3800   19.6110 O.2    92  LEU92      -0.2864
     27  CB        23.4770  -38.9530   22.0300 C.3    92  LEU92       0.0297
     28  CG        23.6200  -40.4630   22.2510 C.3    92  LEU92       0.0022
     29  CD1       24.6570  -41.1220   21.3710 C.3    92  LEU92       0.0001
     30  CD2       23.7760  -40.8660   23.7300 C.3    92  LEU92       0.0001
     31  N         23.5350  -34.5920   18.2790 N.3    94  GLU94      -0.1231
     32  CA        23.6200  -34.3730   16.8420 C.3    94  GLU94       0.1699
     33  C         23.1070  -35.5730   16.0800 C.2    94  GLU94       0.2592
     34  O         22.4280  -35.3850   15.0810 O.2    94  GLU94      -0.2718
     35  CB        25.0270  -33.9890   16.4140 C.3    94  GLU94       0.0402
     36  CG        25.6550  -32.9350   17.3610 C.3    94  GLU94       0.1161
     37  CD        25.1880  -31.5210   17.0810 C.2    94  GLU94       0.3649
     38  OE1       24.2450  -31.3470   16.2540 O.co2  94  GLU94      -0.2457
     39  OE2       25.8000  -30.5740   17.6630 O.co2  94  GLU94      -0.2457
     40  N         23.3940  -36.7890   16.5640 N.am   95  ASP95      -0.1960
     41  CA        22.8810  -38.0080   15.9180 C.3    95  ASP95       0.1840
     42  C         21.3600  -38.0920   15.9330 C.2    95  ASP95       0.2622
     43  O         20.7370  -38.4750   14.9260 O.2    95  ASP95      -0.2715
     44  CB        23.4790  -39.2770   16.5380 C.3    95  ASP95       0.1450
     45  CG        22.9480  -40.5450   15.8890 C.2    95  ASP95       0.3671
     46  OD1       23.4310  -40.8910   14.7910 O.co2  95  ASP95      -0.2456
     47  OD2       22.0630  -41.2220   16.4830 O.co2  95  ASP95      -0.2456
     48  N         20.7410  -37.7490   17.0590 N.am   96  ASP96      -0.1971
     49  CA        19.2640  -37.7700   17.0960 C.3    96  ASP96       0.1709
     50  C         18.6240  -36.8280   16.1050 C.2    96  ASP96       0.2293
     51  O         17.5600  -37.1400   15.5430 O.2    96  ASP96      -0.2864
     52  CB        18.7350  -37.4980   18.5070 C.3    96  ASP96       0.1436
     53  CG        18.9450  -38.6810   19.4340 C.2    96  ASP96       0.3671
     54  OD1       19.0540  -39.8270   18.9420 O.co2  96  ASP96      -0.2456
     55  OD2       18.9780  -38.4780   20.6510 O.co2  96  ASP96      -0.2456
     56  N         20.1130  -35.9680   13.2130 N.3    98  MET98      -0.1230
     57  CA        20.4360  -36.5750   11.9200 C.3    98  MET98       0.1702
     58  C         19.5620  -37.7830   11.6550 C.2    98  MET98       0.2592
     59  O         19.1890  -38.0360   10.5070 O.2    98  MET98      -0.2718
     60  CB        21.9140  -37.0160   11.8660 C.3    98  MET98       0.0401
     61  CG        22.9260  -35.8960   12.0290 C.3    98  MET98       0.0596
     62  SD        24.5840  -36.4890   11.6360 S.3    98  MET98      -0.1393
     63  CE        25.5890  -35.1150   12.0810 C.3    98  MET98       0.0692
     64  N         19.2390  -38.5270   12.7130 N.am   99  ASP99      -0.1974
     65  CA        18.4480  -39.7480   12.5870 C.3    99  ASP99       0.1709
     66  C         16.9220  -39.5610   12.7040 C.2    99  ASP99       0.2293
     67  O         16.1760  -40.5470   12.5980 O.2    99  ASP99      -0.2864
     68  CB        18.9380  -40.7830   13.5930 C.3    99  ASP99       0.1436
     69  CG        20.3060  -41.3400   13.2180 C.2    99  ASP99       0.3671
     70  OD1       20.7440  -41.0300   12.0770 O.co2  99  ASP99      -0.2456
     71  OD2       20.9380  -42.0650   14.0580 O.co2  99  ASP99      -0.2456
     72  N         15.1540  -38.9760   15.2520 N.3   101  SER101     -0.1217
     73  CA        14.7140  -39.7710   16.3790 C.3   101  SER101      0.1889
     74  C         13.7810  -38.9540   17.2750 C.2   101  SER101      0.2288
     75  O         13.7760  -37.7220   17.2290 O.2   101  SER101     -0.2866
     76  CB        15.9210  -40.2670   17.1740 C.3   101  SER101      0.2089
     77  OG        16.7750  -41.0900   16.3900 O.3   101  SER101     -0.2183
     78  N         15.0370  -40.5440   23.7060 N.3   104  ARG104     -0.1245
     79  CA        16.3660  -40.9810   24.0960 C.3   104  ARG104      0.1563
     80  C         16.3190  -41.2170   25.6000 C.2   104  ARG104      0.2260
     81  O         15.9430  -40.3180   26.3530 O.2   104  ARG104     -0.2867
     82  CB        17.3730  -39.8680   23.7900 C.3   104  ARG104      0.0307
     83  CG        18.8110  -40.2440   24.0100 C.3   104  ARG104      0.0489
     84  CD        19.5230  -40.3650   22.6940 C.3   104  ARG104      0.2205
     85  NE        20.2070  -41.6260   22.7000 N.pl3 104  ARG104     -0.0865
     86  CZ        20.7270  -42.2310   21.6500 C.cat 104  ARG104      0.5346
     87  NH1       20.6920  -41.6810   20.4360 N.pl3 104  ARG104      0.1354
     88  NH2       21.3160  -43.3960   21.8650 N.pl3 104  ARG104      0.1354
     89  N         21.5720  -27.9270   17.8170 N.3   122  ILE122     -0.1245
     90  CA        22.8170  -28.0790   17.0750 C.3   122  ILE122      0.1561
     91  C         23.9780  -27.4150   17.8080 C.2   122  ILE122      0.2260
     92  O         25.0240  -28.0060   17.9190 O.2   122  ILE122     -0.2867
     93  CB        22.7370  -27.5450   15.6140 C.3   122  ILE122      0.0252
     94  CG1       21.7000  -28.3540   14.8250 C.3   122  ILE122      0.0019
     95  CG2       24.0880  -27.6700   14.9520 C.3   122  ILE122      0.0019
     96  CD1       21.3890  -27.8350   13.4200 C.3   122  ILE122      0.0001
     97  N         27.3310  -28.9800   20.1310 N.3   126  LEU126     -0.1245
     98  CA        28.7110  -28.5960   19.8700 C.3   126  LEU126      0.1561
     99  C         29.4190  -28.0990   21.1380 C.2   126  LEU126      0.2260
    100  O         30.6000  -28.3520   21.3120 O.2   126  LEU126     -0.2867
    101  CB        28.7520  -27.4780   18.8550 C.3   126  LEU126      0.0270
    102  CG        30.2250  -27.2190   18.5470 C.3   126  LEU126      0.0019
    103  CD1       30.6450  -27.7270   17.1640 C.3   126  LEU126      0.0001
    104  CD2       30.6390  -25.7620   18.7940 C.3   126  LEU126      0.0001
    105  N         30.9040  -30.8600   22.9840 N.3   129  LYS129     -0.1245
    106  CA        32.2550  -31.2520   22.5500 C.3   129  LYS129      0.1561
    107  C         33.3360  -30.2380   23.0090 C.2   129  LYS129      0.2260
    108  O         34.3950  -30.6370   23.4980 O.2   129  LYS129     -0.2867
    109  CB        32.3290  -31.5560   21.0490 C.3   129  LYS129      0.0271
    110  CG        33.6270  -32.2600   20.6630 C.3   129  LYS129      0.0035
    111  CD        33.6410  -32.7560   19.2400 C.3   129  LYS129      0.0206
    112  CE        34.2340  -31.7610   18.3080 C.3   129  LYS129      0.1093
    113  NZ        34.2110  -32.3220   16.9270 N.3   129  LYS129     -0.1314
    114  N         35.2700  -41.0260   14.2930 N.3   160  THR160     -0.1203
    115  CA        33.8620  -41.1930   14.5820 C.3   160  THR160      0.1994
    116  C         33.0210  -40.3670   13.6350 C.2   160  THR160      0.2617
    117  O         32.0160  -40.8680   13.1400 O.2   160  THR160     -0.2717
    118  CB        33.5730  -40.8560   16.0710 C.3   160  THR160      0.1784
    119  OG1       34.4570  -41.6280   16.9010 O.3   160  THR160     -0.2211
    120  CG2       32.1550  -41.1390   16.4500 C.3   160  THR160      0.0376
    121  N         33.4330  -39.1260   13.3700 N.am  161  ALA161     -0.1979
    122  CA        32.7620  -38.2720   12.3690 C.3   161  ALA161      0.1597
    123  C         32.8390  -38.8380   10.9410 C.2   161  ALA161      0.2287
    124  O         31.8900  -38.7180   10.1560 O.2   161  ALA161     -0.2864
    125  CB        33.3120  -36.8620   12.4050 C.3   161  ALA161      0.0319
    126  N         30.2760  -41.5700   10.8190 N.3   164  GLN164     -0.1245
    127  CA        28.9540  -40.9700   10.6890 C.3   164  GLN164      0.1566
    128  C         28.6480  -40.5920    9.2280 C.2   164  GLN164      0.2260
    129  O         27.4980  -40.7170    8.7720 O.2   164  GLN164     -0.2867
    130  CB        28.8230  -39.7560   11.6190 C.3   164  GLN164      0.0367
    131  CG        27.3880  -39.2280   11.7230 C.3   164  GLN164      0.0905
    132  CD        26.5150  -40.0580   12.6460 C.2   164  GLN164      0.2608
    133  OE1       26.8810  -41.1740   13.0600 O.2   164  GLN164     -0.2717
    134  NE2       25.3510  -39.5120   12.9850 N.am  164  GLN164     -0.0878
    135  N         27.7760  -43.8350    7.6370 N.3   167  ASP167     -0.1239
    136  CA        26.4310  -44.2160    8.0770 C.3   167  ASP167      0.1674
    137  C         25.3320  -43.4420    7.3690 C.2   167  ASP167      0.2266
    138  O         24.2940  -44.0030    7.0100 O.2   167  ASP167     -0.2867
    139  CB        26.3060  -44.0310    9.6000 C.3   167  ASP167      0.1410
    140  CG        24.8860  -44.2270   10.1040 C.2   167  ASP167      0.3668
    141  OD1       24.0810  -43.2840    9.9880 O.co2 167  ASP167     -0.2456
    142  OD2       24.5790  -45.3070   10.6350 O.co2 167  ASP167     -0.2456
    143  N         32.2770  -45.4010   13.2350 N.3   204  LYS204     -0.1231
    144  CA        31.3190  -44.6410   14.0380 C.3   204  LYS204      0.1693
    145  C         31.1900  -45.1120   15.4750 C.2   204  LYS204      0.2592
    146  O         30.7740  -44.3350   16.3060 O.2   204  LYS204     -0.2718
    147  CB        29.9320  -44.5730   13.3910 C.3   204  LYS204      0.0285
    148  CG        29.1350  -45.8620   13.4400 C.3   204  LYS204      0.0035
    149  CD        27.6290  -45.5930   13.3330 C.3   204  LYS204      0.0206
    150  CE        26.8120  -46.8970   13.4440 C.3   204  LYS204      0.1093
    151  NZ        25.3700  -46.6380   13.1030 N.3   204  LYS204     -0.1314
    152  N         31.5250  -46.3670   15.7760 N.am  205  THR205     -0.1953
    153  CA        31.2810  -46.8730   17.1210 C.3   205  THR205      0.1897
    154  C         32.5060  -47.4330   17.8560 C.2   205  THR205      0.2313
    155  O         32.7300  -47.0680   18.9970 O.2   205  THR205     -0.2863
    156  CB        30.1440  -47.9140   17.1570 C.3   205  THR205      0.1794
    157  OG1       28.8970  -47.2910   16.7790 O.3   205  THR205     -0.2208
    158  CG2       29.9970  -48.5210   18.5470 C.3   205  THR205      0.0378
    159  N         35.4890  -44.9350   19.4560 N.3   208  TYR208     -0.1241
    160  CA        35.1600  -44.1170   20.6400 C.3   208  TYR208      0.1605
    161  C         34.5140  -44.8810   21.8120 C.2   208  TYR208      0.2264
    162  O         34.5970  -44.4570   22.9630 O.2   208  TYR208     -0.2867
    163  CB        34.3250  -42.8990   20.2460 C.3   208  TYR208      0.0534
    164  CG        32.8190  -43.0530   20.3570 C.ar  208  TYR208     -0.0201
    165  CD1       32.1600  -42.6940   21.5250 C.ar  208  TYR208     -0.0009
    166  CD2       32.0460  -43.4990   19.2630 C.ar  208  TYR208     -0.0009
    167  CE1       30.7720  -42.7900   21.6300 C.ar  208  TYR208      0.0417
    168  CE2       30.6630  -43.6010   19.3580 C.ar  208  TYR208      0.0417
    169  CZ        30.0310  -43.2460   20.5420 C.ar  208  TYR208      0.1957
    170  OH        28.6570  -43.3300   20.6590 O.3   208  TYR208     -0.2866
    171  N         27.6080  -52.6680   18.2170 N.3   244  GLN244     -0.1245
    172  CA        26.7740  -52.0180   17.2230 C.3   244  GLN244      0.1566
    173  C         25.7750  -52.9880   16.6040 C.2   244  GLN244      0.2260
    174  O         24.6180  -52.6200   16.3890 O.2   244  GLN244     -0.2867
    175  CB        27.6090  -51.3200   16.1610 C.3   244  GLN244      0.0367
    176  CG        26.7900  -50.4320   15.2630 C.3   244  GLN244      0.0905
    177  CD        25.9190  -49.4320   16.0310 C.2   244  GLN244      0.2608
    178  OE1       26.4280  -48.6310   16.8070 O.2   244  GLN244     -0.2717
    179  NE2       24.5940  -49.4660   15.7930 N.am  244  GLN244     -0.0878
    180  N         23.1750  -53.1350   19.0690 N.3   247  ASP247     -0.1225
    181  CA        22.3780  -51.9050   18.9830 C.3   247  ASP247      0.1805
    182  C         21.3550  -51.9570   17.8370 C.2   247  ASP247      0.2597
    183  O         20.1790  -51.5550   17.9970 O.2   247  ASP247     -0.2718
    184  CB        23.2790  -50.6780   18.7940 C.3   247  ASP247      0.1424
    185  CG        22.4970  -49.3780   18.8700 C.2   247  ASP247      0.3668
    186  OD1       22.0540  -49.0290   20.0010 O.co2 247  ASP247     -0.2456
    187  OD2       22.3190  -48.7150   17.8100 O.co2 247  ASP247     -0.2456
    188  N         21.8250  -52.4510   16.6900 N.am  248  ASP248     -0.1974
    189  CA        21.0300  -52.5970   15.4760 C.3   248  ASP248      0.1709
    190  C         19.8950  -53.6050   15.6760 C.2   248  ASP248      0.2293
    191  O         18.7490  -53.3390   15.2800 O.2   248  ASP248     -0.2864
    192  CB        21.9180  -53.0970   14.3290 C.3   248  ASP248      0.1436
    193  CG        22.8270  -52.0240   13.7520 C.2   248  ASP248      0.3671
    194  OD1       22.7720  -50.8480   14.1850 O.co2 248  ASP248     -0.2456
    195  OD2       23.5880  -52.3750   12.8070 O.co2 248  ASP248     -0.2456
    196  N         17.3130  -52.2090   18.0000 N.3   251  ASP251     -0.1239
    197  CA        16.5450  -51.1800   17.3050 C.3   251  ASP251      0.1674
    198  C         15.2680  -51.7800   16.7330 C.2   251  ASP251      0.2266
    199  O         14.2140  -51.1560   16.7720 O.2   251  ASP251     -0.2867
    200  CB        17.3610  -50.5540   16.1710 C.3   251  ASP251      0.1410
    201  CG        16.8900  -49.1520   15.8140 C.2   251  ASP251      0.3668
    202  OD1       17.2780  -48.1880   16.5300 O.co2 251  ASP251     -0.2456
    203  OD2       16.1610  -49.0020   14.8090 O.co2 251  ASP251     -0.2456
    204  N         14.4060  -45.8190   23.8350 N.3   261  LYS261     -0.1245
    205  CA        14.4450  -45.0970   22.5700 C.3   261  LYS261      0.1561
    206  C         13.6560  -45.8590   21.5340 C.2   261  LYS261      0.2260
    207  O         13.5960  -47.0950   21.5610 O.2   261  LYS261     -0.2867
    208  CB        15.8880  -44.8220   22.1010 C.3   261  LYS261      0.0271
    209  CG        16.6380  -46.0160   21.5340 C.3   261  LYS261      0.0035
    210  CD        18.1480  -45.7560   21.4530 C.3   261  LYS261      0.0206
    211  CE        18.8310  -46.8630   20.6580 C.3   261  LYS261      0.1093
    212  NZ        20.2830  -47.0380   20.9910 N.3   261  LYS261     -0.1314
    213  N         15.8890  -47.2640   12.3380 N.3   265  ASP265     -0.1239
    214  CA        16.7210  -47.8440   11.2600 C.3   265  ASP265      0.1674
    215  C         15.9580  -48.2020    9.9860 C.2   265  ASP265      0.2266
    216  O         16.3880  -47.8520    8.8790 O.2   265  ASP265     -0.2867
    217  CB        17.4700  -49.0670   11.7580 C.3   265  ASP265      0.1410
    218  CG        18.5550  -48.7080   12.7340 C.2   265  ASP265      0.3668
    219  OD1       18.8870  -47.4950   12.8340 O.co2 265  ASP265     -0.2456
    220  OD2       19.0730  -49.6300   13.3920 O.co2 265  ASP265     -0.2456
@<TRIPOS>BOND
     1   138   137    2
     2   137   136    1
     3   135   136    1
     4   136   139    1
     5   129   128    2
     6   216   215    2
     7   128   127    1
     8   139   140    1
     9   215   214    1
    10   141   140   ar
    11   140   142   ar
    12   124   123    2
    13    59    58    2
    14   127   126    1
    15   127   130    1
    16   123   122    1
    17   214   217    1
    18   214   213    1
    19   130   131    1
    20    62    61    1
    21    62    63    1
    22    58    57    1
    23    58    64   am
    24   131   132    1
    25   217   218    1
    26    60    57    1
    27    60    61    1
    28    57    56    1
    29    70    69   ar
    30   122   125    1
    31   122   121    1
    32    65    66    1
    33    65    64    1
    34    65    68    1
    35    67    66    2
    36   132   134   am
    37   132   133    2
    38   218   219   ar
    39   218   220   ar
    40   195   193   ar
    41   151   150    1
    42   117   116    2
    43    69    68    1
    44    69    71   ar
    45   143   144    1
    46   149   148    1
    47   149   150    1
    48   121   116   am
    49   147   148    1
    50   147   144    1
    51    96    94    1
    52   116   115    1
    53   193   194   ar
    54   193   192    1
    55   144   145    1
    56   114   115    1
    57   192   189    1
    58   115   118    1
    59    46    45   ar
    60   203   201   ar
    61    94    93    1
    62    43    42    2
    63    95    93    1
    64    34    33    2
    65    72    73    1
    66   176   177    1
    67   176   175    1
    68   191   190    2
    69   145   152   am
    70   145   146    2
    71   189   190    1
    72   189   188    1
    73    51    50    2
    74    93    90    1
    75   152   153    1
    76   179   177   am
    77   201   200    1
    78   201   202   ar
    79    45    47   ar
    80    45    44    1
    81    41    42    1
    82    41    44    1
    83    41    40    1
    84    42    48   am
    85   177   178    2
    86   118   120    1
    87   118   119    1
    88    33    40   am
    89    33    32    1
    90    50    49    1
    91   175   172    1
    92   200   197    1
    93    38    37   ar
    94    73    76    1
    95    73    74    1
    96   174   173    2
    97    77    76    1
    98    35    32    1
    99    35    36    1
   100   173   172    1
   101   188   182   am
   102   198   199    2
   103   198   197    1
   104   157   156    1
   105    32    31    1
   106   113   112    1
   107    48    49    1
   108    90    91    1
   109    90    89    1
   110    37    36    1
   111    37    39   ar
   112    49    52    1
   113   153   156    1
   114   153   154    1
   115   156   158    1
   116   103   102    1
   117   172   171    1
   118    75    74    2
   119   197   196    1
   120    91    92    2
   121   187   185   ar
   122   182   183    2
   123   182   181    1
   124   154   155    2
   125    19    17   ar
   126    19    21   ar
   127    10     9   ar
   128    10     8   ar
   129   112   111    1
   130     9     7   ar
   131    14    13    2
   132    17    16   ar
   133    52    53    1
   134   102   104    1
   135   102   101    1
   136    22    21    1
   137   184   185    1
   138   184   181    1
   139    21    20   ar
   140   101    98    1
   141   185   186   ar
   142    54    53   ar
   143   181   180    1
   144   111   110    1
   145   166   168   ar
   146   166   164   ar
   147    16    15    1
   148    16    18   ar
   149   168   169   ar
   150     8     6   ar
   151    53    55   ar
   152   159   160    1
   153    13    12    1
   154    13    23   am
   155    15    12    1
   156    12    11    1
   157     7     6   ar
   158    20    18   ar
   159    26    25    2
   160    98    97    1
   161    98    99    1
   162     4     3    2
   163   163   164    1
   164   163   160    1
   165     6     5    1
   166    25    24    1
   167   164   165   ar
   168    87    86    1
   169   169   170    1
   170   169   167   ar
   171    23    24    1
   172   160   161    1
   173    11     3   am
   174    24    27    1
   175   211   212    1
   176   211   210    1
   177   110   109    1
   178     3     2    1
   179   109   106    1
   180    99   100    2
   181    29    28    1
   182   210   209    1
   183   165   167   ar
   184   209   208    1
   185   206   207    2
   186   206   205    1
   187    86    88    1
   188    86    85    2
   189     5     2    1
   190   161   162    2
   191     2     1    1
   192    27    28    1
   193   208   205    1
   194    28    30    1
   195   106   105    1
   196   106   107    1
   197   205   204    1
   198    84    85    1
   199    84    83    1
   200   107   108    2
   201    78    79    1
   202    82    83    1
   203    82    79    1
   204    79    80    1
   205    80    81    2
