@<TRIPOS>MOLECULE
tmp/3efrB00.pdb
 179 174 0 0 0
SMALL
GASTEIGER

@<TRIPOS>ATOM
      1  N         12.1230    2.5420  -25.9960 N.3    13  SER13      -0.1202
      2  CA        11.8630    1.4560  -25.0640 C.3    13  SER13       0.2020
      3  C         11.2390    0.2810  -25.8030 C.2    13  SER13       0.2619
      4  O         10.2390    0.4410  -26.5040 O.2    13  SER13      -0.2717
      5  CB        10.9320    1.9200  -23.9440 C.3    13  SER13       0.2103
      6  OG        10.4420    0.8170  -23.2010 O.3    13  SER13      -0.2182
      7  N         11.8320   -0.8980  -25.6480 N.am   14  THR14      -0.1938
      8  CA        11.2860   -2.1050  -26.2580 C.3    14  THR14       0.2028
      9  C          9.8340   -2.3000  -25.8350 C.2    14  THR14       0.2642
     10  O          9.0390   -2.9000  -26.5580 O.2    14  THR14      -0.2714
     11  CB        12.1000   -3.3540  -25.8810 C.3    14  THR14       0.1808
     12  OG1       12.2040   -3.4430  -24.4550 O.3    14  THR14      -0.2208
     13  CG2       13.4950   -3.2830  -26.4780 C.3    14  THR14       0.0379
     14  N          9.4960   -1.7760  -24.6610 N.am   15  GLN15      -0.1976
     15  CA         8.1300   -1.8310  -24.1580 C.3    15  GLN15       0.1601
     16  C          7.2090   -0.9750  -25.0170 C.2    15  GLN15       0.2287
     17  O          6.1010   -1.3870  -25.3600 O.2    15  GLN15      -0.2864
     18  CB         8.0800   -1.3540  -22.7050 C.3    15  GLN15       0.0394
     19  CG         8.6650   -2.3390  -21.7080 C.3    15  GLN15       0.0908
     20  CD         7.7450   -3.5140  -21.4470 C.2    15  GLN15       0.2608
     21  OE1        6.7370   -3.3840  -20.7550 O.2    15  GLN15      -0.2717
     22  NE2        8.0930   -4.6720  -21.9950 N.am   15  GLN15      -0.0878
     23  N         18.6600    1.9380  -24.9080 N.3    34  GLN34      -0.1245
     24  CA        17.3150    2.4600  -24.6800 C.3    34  GLN34       0.1566
     25  C         17.3610    3.8920  -24.1660 C.2    34  GLN34       0.2260
     26  O         17.8100    4.1420  -23.0510 O.2    34  GLN34      -0.2867
     27  CB        16.5470    1.5760  -23.6950 C.3    34  GLN34       0.0367
     28  CG        16.0030    0.2950  -24.3010 C.3    34  GLN34       0.0905
     29  CD        15.2070   -0.5280  -23.3100 C.2    34  GLN34       0.2608
     30  OE1       15.6590   -0.7850  -22.1950 O.2    34  GLN34      -0.2717
     31  NE2       14.0190   -0.9560  -23.7160 N.am   34  GLN34      -0.0878
     32  N         14.1470    4.1110  -21.5320 N.3    37  GLY37      -0.1210
     33  CA        13.8250    2.9130  -20.7790 C.3    37  GLY37       0.1956
     34  C         13.0170    3.2430  -19.5400 C.2    37  GLY37       0.2612
     35  O         13.1060    4.3520  -19.0140 O.2    37  GLY37      -0.2717
     36  N         12.2230    2.2850  -19.0720 N.am   38  ARG38      -0.1965
     37  CA        11.3920    2.5000  -17.8920 C.3    38  ARG38       0.1729
     38  C         11.2800    1.2560  -17.0160 C.2    38  ARG38       0.2617
     39  O         11.3120    0.1270  -17.5070 O.2    38  ARG38      -0.2715
     40  CB         9.9970    2.9910  -18.2920 C.3    38  ARG38       0.0348
     41  CG         9.2280    2.0450  -19.2030 C.3    38  ARG38       0.0492
     42  CD         7.7750    2.4810  -19.3300 C.3    38  ARG38       0.2205
     43  NE         7.0490    1.7200  -20.3420 N.pl3  38  ARG38      -0.0865
     44  CZ         6.8740    2.1240  -21.5960 C.cat  38  ARG38       0.5346
     45  NH1        6.1970    1.3670  -22.4500 N.pl3  38  ARG38       0.1354
     46  NH2        7.3740    3.2850  -21.9960 N.pl3  38  ARG38       0.1354
     47  N         11.1460    1.4790  -15.7120 N.am   39  GLY39      -0.1940
     48  CA        11.0440    0.3960  -14.7540 C.3    39  GLY39       0.2014
     49  C         12.3480    0.1450  -14.0220 C.2    39  GLY39       0.2639
     50  O         13.4040    0.6330  -14.4270 O.2    39  GLY39      -0.2714
     51  N         12.2710   -0.6140  -12.9340 N.am   40  GLY40      -0.1939
     52  CA        13.4500   -0.9990  -12.1800 C.3    40  GLY40       0.2014
     53  C         14.3320    0.1480  -11.7240 C.2    40  GLY40       0.2638
     54  O         13.8530    1.1330  -11.1630 O.2    40  GLY40      -0.2714
     55  N         15.6310    0.0170  -11.9790 N.am   41  LEU41      -0.1977
     56  CA        16.6300    0.9330  -11.4360 C.3    41  LEU41       0.1596
     57  C         16.7830    2.2350  -12.2170 C.2    41  LEU41       0.2287
     58  O         17.8000    2.9180  -12.0960 O.2    41  LEU41      -0.2864
     59  CB        17.9830    0.2280  -11.3270 C.3    41  LEU41       0.0297
     60  CG        17.9960   -0.9930  -10.4090 C.3    41  LEU41       0.0022
     61  CD1       19.1990   -1.8790  -10.6900 C.3    41  LEU41       0.0001
     62  CD2       17.9600   -0.5710   -8.9460 C.3    41  LEU41       0.0001
     63  N         20.3290    4.1740  -16.5130 N.3    45  TRP45      -0.1227
     64  CA        21.1740    2.9910  -16.6250 C.3    45  TRP45       0.1737
     65  C         20.6200    1.9850  -17.6270 C.2    45  TRP45       0.2595
     66  O         21.3190    1.0610  -18.0400 O.2    45  TRP45      -0.2718
     67  CB        21.3510    2.3300  -15.2590 C.3    45  TRP45       0.0564
     68  CG        20.2960    1.3220  -14.9360 C.ar   45  TRP45       0.0003
     69  CD1       18.9510    1.5360  -14.8580 C.ar   45  TRP45       0.0946
     70  CD2       20.5020   -0.0620  -14.6350 C.ar   45  TRP45       0.0152
     71  NE1       18.3050    0.3670  -14.5320 N.ar   45  TRP45      -0.2442
     72  CE2       19.2350   -0.6270  -14.3880 C.ar   45  TRP45       0.0810
     73  CE3       21.6350   -0.8770  -14.5510 C.ar   45  TRP45       0.0012
     74  CZ2       19.0700   -1.9710  -14.0640 C.ar   45  TRP45       0.0191
     75  CZ3       21.4690   -2.2090  -14.2280 C.ar   45  TRP45       0.0001
     76  CH2       20.1960   -2.7430  -13.9880 C.ar   45  TRP45       0.0015
     77  N         19.3590    2.1640  -18.0090 N.am   46  LEU46      -0.1980
     78  CA        18.7390    1.3110  -19.0150 C.3    46  LEU46       0.1596
     79  C         19.1860    1.7290  -20.4110 C.2    46  LEU46       0.2287
     80  O         18.8030    1.1200  -21.4100 O.2    46  LEU46      -0.2864
     81  CB        17.2140    1.3580  -18.9020 C.3    46  LEU46       0.0297
     82  CG        16.5990    0.5560  -17.7520 C.3    46  LEU46       0.0022
     83  CD1       15.0920    0.7430  -17.7180 C.3    46  LEU46       0.0001
     84  CD2       16.9560   -0.9170  -17.8730 C.3    46  LEU46       0.0001
     85  N         18.4830   -5.8370  -22.9150 N.3    53  TYR53      -0.1227
     86  CA        17.1360   -5.2820  -22.8570 C.3    53  TYR53       0.1736
     87  C         16.2540   -5.8330  -23.9700 C.2    53  TYR53       0.2595
     88  O         16.5570   -5.6770  -25.1530 O.2    53  TYR53      -0.2718
     89  CB        17.1830   -3.7550  -22.9390 C.3    53  TYR53       0.0548
     90  CG        18.3380   -3.1370  -22.1850 C.ar   53  TYR53      -0.0200
     91  CD1       19.4070   -2.5650  -22.8630 C.ar   53  TYR53      -0.0009
     92  CD2       18.3640   -3.1330  -20.7960 C.ar   53  TYR53      -0.0009
     93  CE1       20.4680   -2.0010  -22.1810 C.ar   53  TYR53       0.0417
     94  CE2       19.4210   -2.5710  -20.1030 C.ar   53  TYR53       0.0417
     95  CZ        20.4700   -2.0070  -20.8000 C.ar   53  TYR53       0.1957
     96  OH        21.5240   -1.4470  -20.1160 O.3    53  TYR53      -0.2866
     97  N         15.1580   -6.4780  -23.5850 N.am   54  PHE54      -0.1962
     98  CA        14.2290   -7.0320  -24.5600 C.3    54  PHE54       0.1771
     99  C         12.8130   -7.1220  -24.0070 C.2    54  PHE54       0.2620
    100  O         12.6030   -7.0470  -22.7970 O.2    54  PHE54      -0.2715
    101  CB        14.7040   -8.4070  -25.0350 C.3    54  PHE54       0.0574
    102  CG        14.6610   -9.4680  -23.9720 C.ar   54  PHE54      -0.0200
    103  CD1       13.6130  -10.3710  -23.9170 C.ar   54  PHE54      -0.0042
    104  CD2       15.6730   -9.5680  -23.0320 C.ar   54  PHE54      -0.0042
    105  CE1       13.5720  -11.3520  -22.9430 C.ar   54  PHE54      -0.0003
    106  CE2       15.6380  -10.5460  -22.0550 C.ar   54  PHE54      -0.0003
    107  CZ        14.5870  -11.4390  -22.0110 C.ar   54  PHE54      -0.0000
    108  N         11.8460   -7.2770  -24.9050 N.am   55  SER55      -0.1950
    109  CA        10.4480   -7.4240  -24.5240 C.3    55  SER55       0.1924
    110  C          9.7440   -8.3910  -25.4700 C.2    55  SER55       0.2314
    111  O         10.2190   -8.6490  -26.5760 O.2    55  SER55      -0.2863
    112  CB         9.7430   -6.0660  -24.5320 C.3    55  SER55       0.2116
    113  OG        10.3730   -5.1600  -23.6440 O.3    55  SER55      -0.2180
    114  N          9.4580  -10.0880   -8.5000 N.3    95  ASN95      -0.1225
    115  CA         9.9750  -10.1720   -9.8660 C.3    95  ASN95       0.1785
    116  C         11.4990  -10.1680  -10.0200 C.2    95  ASN95       0.2597
    117  O         12.0510  -10.9480  -10.7940 O.2    95  ASN95      -0.2718
    118  CB         9.3670   -9.0590  -10.7300 C.3    95  ASN95       0.1169
    119  CG         9.5510   -7.6760  -10.1230 C.2    95  ASN95       0.2627
    120  OD1        9.7950   -7.5370   -8.9250 O.2    95  ASN95      -0.2716
    121  ND2        9.4310   -6.6450  -10.9510 N.am   95  ASN95      -0.0877
    122  N         12.1710   -9.2860   -9.2900 N.am   96  ASP96      -0.1974
    123  CA        13.6050   -9.0700   -9.4750 C.3    96  ASP96       0.1709
    124  C         14.4540  -10.3170   -9.2440 C.2    96  ASP96       0.2293
    125  O         14.1420  -11.1460   -8.3910 O.2    96  ASP96      -0.2864
    126  CB        14.0930   -7.9480   -8.5590 C.3    96  ASP96       0.1436
    127  CG        13.3570   -6.6470   -8.7920 C.2    96  ASP96       0.3671
    128  OD1       12.7810   -6.4770   -9.8880 O.co2  96  ASP96      -0.2456
    129  OD2       13.3560   -5.7930   -7.8810 O.co2  96  ASP96      -0.2456
    130  N         20.8280   -6.4030   -7.2650 N.3   103  LYS103     -0.1245
    131  CA        19.9720   -6.8930   -8.3390 C.3   103  LYS103      0.1561
    132  C         20.7470   -7.1330   -9.6310 C.2   103  LYS103      0.2260
    133  O         21.6780   -6.3970   -9.9570 O.2   103  LYS103     -0.2867
    134  CB        18.8150   -5.9240   -8.6010 C.3   103  LYS103      0.0271
    135  CG        17.9770   -6.3090   -9.8150 C.3   103  LYS103      0.0035
    136  CD        16.5760   -5.7220   -9.7640 C.3   103  LYS103      0.0206
    137  CE        16.5540   -4.2660  -10.1910 C.3   103  LYS103      0.1093
    138  NZ        15.1570   -3.7560  -10.2760 N.3   103  LYS103     -0.1314
    139  N         18.7020   -8.6220  -12.4660 N.3   105  SER105     -0.1202
    140  CA        17.6550   -8.5720  -13.4770 C.3   105  SER105      0.2020
    141  C         16.3180   -8.1390  -12.8850 C.2   105  SER105      0.2619
    142  O         16.0950   -8.2480  -11.6800 O.2   105  SER105     -0.2717
    143  CB        17.5080   -9.9340  -14.1570 C.3   105  SER105      0.2103
    144  OG        16.5030   -9.9010  -15.1530 O.3   105  SER105     -0.2182
    145  N         15.4340   -7.6430  -13.7430 N.am  106  GLY106     -0.1942
    146  CA        14.1150   -7.2130  -13.3190 C.3   106  GLY106      0.2014
    147  C         13.0610   -7.5130  -14.3650 C.2   106  GLY106      0.2639
    148  O         13.3090   -7.3820  -15.5620 O.2   106  GLY106     -0.2714
    149  N         11.8790   -7.9200  -13.9150 N.am  107  VAL107     -0.1963
    150  CA        10.7970   -8.2610  -14.8300 C.3   107  VAL107      0.1727
    151  C          9.6760   -7.2280  -14.7770 C.2   107  VAL107      0.2616
    152  O          9.1280   -6.9430  -13.7120 O.2   107  VAL107     -0.2715
    153  CB        10.2220   -9.6630  -14.5370 C.3   107  VAL107      0.0290
    154  CG1        9.0110   -9.9330  -15.4160 C.3   107  VAL107      0.0023
    155  CG2       11.2870  -10.7310  -14.7440 C.3   107  VAL107      0.0023
    156  N          9.3440   -6.6700  -15.9370 N.am  108  LEU108     -0.1977
    157  CA         8.2800   -5.6800  -16.0480 C.3   108  LEU108      0.1596
    158  C          7.1560   -6.2100  -16.9310 C.2   108  LEU108      0.2287
    159  O          7.4090   -6.8520  -17.9480 O.2   108  LEU108     -0.2864
    160  CB         8.8290   -4.3720  -16.6250 C.3   108  LEU108      0.0297
    161  CG         7.8200   -3.2570  -16.9150 C.3   108  LEU108      0.0022
    162  CD1        7.1880   -2.7450  -15.6290 C.3   108  LEU108      0.0001
    163  CD2        8.4850   -2.1230  -17.6780 C.3   108  LEU108      0.0001
    164  N          8.6760   -6.9380  -20.2220 N.3   119  GLY119     -0.1210
    165  CA        10.0000   -6.3790  -20.4180 C.3   119  GLY119      0.1956
    166  C         11.0000   -6.9180  -19.4160 C.2   119  GLY119      0.2612
    167  O         10.7330   -6.9510  -18.2160 O.2   119  GLY119     -0.2717
    168  N         12.1570   -7.3440  -19.9090 N.am  120  ILE120     -0.1965
    169  CA        13.1840   -7.9130  -19.0480 C.3   120  ILE120      0.1727
    170  C         14.5470   -7.2800  -19.3010 C.2   120  ILE120      0.2616
    171  O         15.0010   -7.1960  -20.4410 O.2   120  ILE120     -0.2715
    172  CB        13.2940   -9.4370  -19.2380 C.3   120  ILE120      0.0290
    173  CG1       12.0400  -10.1310  -18.7030 C.3   120  ILE120      0.0022
    174  CG2       14.5390   -9.9730  -18.5480 C.3   120  ILE120      0.0023
    175  CD1       12.0640  -11.6340  -18.8540 C.3   120  ILE120      0.0001
    176  N         15.1900   -6.8330  -18.2280 N.am  121  GLY121     -0.1955
    177  CA        16.5320   -6.2890  -18.3150 C.3   121  GLY121      0.1869
    178  C         17.5100   -7.1410  -17.5330 C.2   121  GLY121      0.2309
    179  O         17.2600   -7.4850  -16.3780 O.2   121  GLY121     -0.2863
@<TRIPOS>BOND
     1   111   110    2
     2    10     9    2
     3     4     3    2
     4    13    11    1
     5     8    11    1
     6     8     9    1
     7     8     7    1
     8     1     2    1
     9    11    12    1
    10     9    14   am
    11     3     7   am
    12     3     2    1
    13   110   109    1
    14    17    16    2
    15    88    87    2
    16     2     5    1
    17   101    98    1
    18   101   102    1
    19    16    15    1
    20    23    24    1
    21   108   109    1
    22   108    99   am
    23    24    25    1
    24    24    27    1
    25    14    15    1
    26    98    99    1
    27    98    97    1
    28   112   109    1
    29   112   113    1
    30    28    27    1
    31    28    29    1
    32    25    26    2
    33    15    18    1
    34    99   100    2
    35   102   103   ar
    36   102   104   ar
    37    87    97   am
    38    87    86    1
    39     5     6    1
    40   103   105   ar
    41    31    29   am
    42    29    30    2
    43   104   106   ar
    44   105   107   ar
    45    89    86    1
    46    89    90    1
    47    85    86    1
    48    91    90   ar
    49    91    93   ar
    50    18    19    1
    51    45    44    1
    52    90    92   ar
    53    93    95   ar
    54   106   107   ar
    55    46    44    1
    56    22    20   am
    57    19    20    1
    58    44    43    2
    59    32    33    1
    60    20    21    2
    61    80    79    2
    62    95    96    1
    63    95    94   ar
    64    92    94   ar
    65    33    34    1
    66   171   170    2
    67   165   164    1
    68   165   166    1
    69    79    78    1
    70    43    42    1
    71   168   166   am
    72   168   169    1
    73    34    36   am
    74    34    35    2
    75   166   167    2
    76    42    41    1
    77   170   169    1
    78   170   176   am
    79   172   169    1
    80   172   173    1
    81   172   174    1
    82    41    40    1
    83    36    37    1
    84    78    81    1
    85    78    77    1
    86    81    82    1
    87   175   173    1
    88   177   176    1
    89   177   178    1
    90    40    37    1
    91    66    65    2
    92    77    65   am
    93   159   158    2
    94    37    38    1
    95    84    82    1
    96    82    83    1
    97   163   161    1
    98    65    64    1
    99   178   179    2
   100    39    38    2
   101    38    47   am
   102   158   157    1
   103   161   160    1
   104   161   162    1
   105    64    63    1
   106    64    67    1
   107   160   157    1
   108   157   156    1
   109   156   151   am
   110    47    48    1
   111   148   147    2
   112   154   153    1
   113    67    68    1
   114   144   143    1
   115    68    69   ar
   116    68    70   ar
   117    69    71   ar
   118   150   151    1
   119   150   153    1
   120   150   149    1
   121   151   152    2
   122    48    49    1
   123   155   153    1
   124    70    73   ar
   125    70    72   ar
   126    73    75   ar
   127    71    72   ar
   128    50    49    2
   129    72    74   ar
   130   147   149   am
   131   147   146    1
   132    75    76   ar
   133   143   140    1
   134    74    76   ar
   135    49    51   am
   136   145   146    1
   137   145   141   am
   138   140   141    1
   139   140   139    1
   140    51    52    1
   141   141   142    2
   142    57    58    2
   143    57    56    1
   144    52    53    1
   145    55    53   am
   146    55    56    1
   147    53    54    2
   148    56    59    1
   149    59    60    1
   150   121   119   am
   151   117   116    2
   152   118   119    1
   153   118   115    1
   154    61    60    1
   155    60    62    1
   156   138   137    1
   157   137   136    1
   158   119   120    2
   159   116   115    1
   160   116   122   am
   161   133   132    2
   162   128   127   ar
   163   115   114    1
   164   135   136    1
   165   135   134    1
   166   132   131    1
   167   123   122    1
   168   123   124    1
   169   123   126    1
   170   124   125    2
   171   127   126    1
   172   127   129   ar
   173   134   131    1
   174   131   130    1
