@<TRIPOS>MOLECULE
tmp/3efsA00.pdb
 211 207 0 0 0
SMALL
GASTEIGER

@<TRIPOS>ATOM
      1  N        -10.2870    1.1390   16.5340 N.3    38  GLY38      -0.1210
      2  CA       -10.0490    0.1390   15.5110 C.3    38  GLY38       0.1956
      3  C         -8.5640   -0.1190   15.3340 C.2    38  GLY38       0.2611
      4  O         -7.7690    0.1470   16.2340 O.2    38  GLY38      -0.2717
      5  N         -8.1870   -0.6310   14.1660 N.am   39  ARG39      -0.1979
      6  CA        -6.7960   -0.9890   13.9000 C.3    39  ARG39       0.1597
      7  C         -5.8900    0.2020   13.5870 C.2    39  ARG39       0.2287
      8  O         -4.6700    0.0550   13.5050 O.2    39  ARG39      -0.2864
      9  CB        -6.7130   -2.0370   12.7870 C.3    39  ARG39       0.0334
     10  CG        -6.5550   -3.4540   13.3120 C.3    39  ARG39       0.0492
     11  CD        -6.6760   -4.4960   12.2150 C.3    39  ARG39       0.2205
     12  NE        -8.0550   -4.9410   12.0390 N.pl3  39  ARG39      -0.0865
     13  CZ        -8.8010   -4.6610   10.9770 C.cat  39  ARG39       0.5346
     14  NH1      -10.0470   -5.1080   10.9040 N.pl3  39  ARG39       0.1354
     15  NH2       -8.2990   -3.9410    9.9830 N.pl3  39  ARG39       0.1354
     16  N         -9.3380    4.4220   14.5120 N.3    42  ARG42      -0.1231
     17  CA       -10.6860    4.7390   14.0480 C.3    42  ARG42       0.1694
     18  C        -11.7320    4.3920   15.1050 C.2    42  ARG42       0.2592
     19  O        -11.5290    3.4950   15.9220 O.2    42  ARG42      -0.2718
     20  CB       -11.0010    4.0280   12.7260 C.3    42  ARG42       0.0321
     21  CG       -10.6880    2.5380   12.7100 C.3    42  ARG42       0.0489
     22  CD        -9.2090    2.2920   12.4690 C.3    42  ARG42       0.2205
     23  NE        -8.7930    2.7300   11.1400 N.pl3  42  ARG42      -0.0865
     24  CZ        -8.4150    1.9070   10.1680 C.cat  42  ARG42       0.5346
     25  NH1       -8.3860    0.5980   10.3800 N.pl3  42  ARG42       0.1354
     26  NH2       -8.0550    2.3910    8.9880 N.pl3  42  ARG42       0.1354
     27  N        -12.8480    5.1130   15.0820 N.am   43  LYS43      -0.1966
     28  CA       -13.9160    4.9200   16.0570 C.3    43  LYS43       0.1728
     29  C        -14.6340    3.5870   15.8670 C.2    43  LYS43       0.2616
     30  O        -15.1770    3.3100   14.7970 O.2    43  LYS43      -0.2715
     31  CB       -14.9260    6.0650   15.9660 C.3    43  LYS43       0.0311
     32  CG       -16.1180    5.9260   16.9010 C.3    43  LYS43       0.0038
     33  CD       -15.7200    6.1810   18.3430 C.3    43  LYS43       0.0206
     34  CE       -16.9350    6.2080   19.2560 C.3    43  LYS43       0.1093
     35  NZ       -16.5600    6.5120   20.6640 N.3    43  LYS43      -0.1314
     36  N        -14.6350    2.7670   16.9130 N.am   44  TRP44      -0.1960
     37  CA       -15.3700    1.5060   16.9000 C.3    44  TRP44       0.1771
     38  C        -16.6250    1.6100   17.7600 C.2    44  TRP44       0.2619
     39  O        -16.5730    1.4370   18.9780 O.2    44  TRP44      -0.2715
     40  CB       -14.4910    0.3550   17.3920 C.3    44  TRP44       0.0590
     41  CG       -15.2030   -0.9630   17.4230 C.ar   44  TRP44       0.0006
     42  CD1      -15.8540   -1.5180   18.4850 C.ar   44  TRP44       0.0946
     43  CD2      -15.3440   -1.8890   16.3380 C.ar   44  TRP44       0.0152
     44  NE1      -16.3900   -2.7330   18.1320 N.ar   44  TRP44      -0.2442
     45  CE2      -16.0910   -2.9840   16.8190 C.ar   44  TRP44       0.0810
     46  CE3      -14.9100   -1.9000   15.0090 C.ar   44  TRP44       0.0012
     47  CZ2      -16.4120   -4.0780   16.0170 C.ar   44  TRP44       0.0191
     48  CZ3      -15.2310   -2.9870   14.2140 C.ar   44  TRP44       0.0001
     49  CH2      -15.9750   -4.0600   14.7210 C.ar   44  TRP44       0.0015
     50  N        -17.7510    1.8970   17.1150 N.am   45  LEU45      -0.1977
     51  CA       -19.0190    2.0750   17.8130 C.3    45  LEU45       0.1596
     52  C        -19.3410    0.8850   18.7130 C.2    45  LEU45       0.2287
     53  O        -19.5320   -0.2330   18.2370 O.2    45  LEU45      -0.2864
     54  CB       -20.1470    2.3050   16.8060 C.3    45  LEU45       0.0297
     55  CG       -19.9450    3.5240   15.9020 C.3    45  LEU45       0.0022
     56  CD1      -20.9200    3.5130   14.7360 C.3    45  LEU45       0.0001
     57  CD2      -20.0700    4.8110   16.7050 C.3    45  LEU45       0.0001
     58  N        -17.6800   -6.8600   23.6170 N.3    52  TYR52      -0.1241
     59  CA       -16.3740   -6.2230   23.5160 C.3    52  TYR52       0.1605
     60  C        -15.4360   -6.7510   24.5890 C.2    52  TYR52       0.2264
     61  O        -15.6600   -6.5410   25.7820 O.2    52  TYR52      -0.2867
     62  CB       -16.5150   -4.7060   23.6430 C.3    52  TYR52       0.0534
     63  CG       -17.7260   -4.1580   22.9270 C.ar   52  TYR52      -0.0201
     64  CD1      -18.8940   -3.8640   23.6230 C.ar   52  TYR52      -0.0009
     65  CD2      -17.7100   -3.9500   21.5520 C.ar   52  TYR52      -0.0009
     66  CE1      -20.0070   -3.3690   22.9740 C.ar   52  TYR52       0.0417
     67  CE2      -18.8200   -3.4540   20.8930 C.ar   52  TYR52       0.0417
     68  CZ       -19.9660   -3.1670   21.6080 C.ar   52  TYR52       0.1957
     69  OH       -21.0730   -2.6730   20.9580 O.3    52  TYR52      -0.2866
     70  N        -12.5080  -12.2920    6.2920 N.3    91  LYS91      -0.1231
     71  CA       -11.8270  -11.2820    5.4950 C.3    91  LYS91       0.1693
     72  C        -10.3480  -11.2350    5.8520 C.2    91  LYS91       0.2592
     73  O         -9.9840  -10.9760    6.9990 O.2    91  LYS91      -0.2718
     74  CB       -12.4480   -9.9060    5.7190 C.3    91  LYS91       0.0285
     75  CG       -11.7050   -8.7830    5.0130 C.3    91  LYS91       0.0035
     76  CD       -12.1310   -8.6600    3.5640 C.3    91  LYS91       0.0206
     77  CE       -13.4440   -7.9040    3.4440 C.3    91  LYS91       0.1093
     78  NZ       -13.3000   -6.4910    3.8910 N.3    91  LYS91      -0.1314
     79  N         -9.4990  -11.4930    4.8640 N.am   92  TRP92      -0.1963
     80  CA        -8.0570  -11.4350    5.0610 C.3    92  TRP92       0.1756
     81  C         -7.6370  -10.0120    5.4160 C.2    92  TRP92       0.2461
     82  O         -8.0370   -9.0600    4.7500 O.2    92  TRP92      -0.2730
     83  CB        -7.3370  -11.9090    3.7960 C.3    92  TRP92       0.0590
     84  CG        -5.8560  -12.0800    3.9440 C.ar   92  TRP92       0.0006
     85  CD1       -5.1990  -13.1870    4.3970 C.ar   92  TRP92       0.0946
     86  CD2       -4.8440  -11.1160    3.6260 C.ar   92  TRP92       0.0152
     87  NE1       -3.8410  -12.9710    4.3850 N.ar   92  TRP92      -0.2442
     88  CE2       -3.5980  -11.7070    3.9160 C.ar   92  TRP92       0.0810
     89  CE3       -4.8710   -9.8100    3.1260 C.ar   92  TRP92       0.0012
     90  CZ2       -2.3910  -11.0380    3.7230 C.ar   92  TRP92       0.0191
     91  CZ3       -3.6720   -9.1470    2.9350 C.ar   92  TRP92       0.0001
     92  CH2       -2.4490   -9.7620    3.2320 C.ar   92  TRP92       0.0015
     93  N         -6.8170   -9.8630    6.4660 N.am   93  PRO93      -0.2716
     94  CA        -6.2810  -10.9670    7.2660 C.3    93  PRO93       0.1536
     95  C         -6.9730  -11.1290    8.6190 C.2    93  PRO93       0.2599
     96  O         -6.6620  -12.0770    9.3450 O.2    93  PRO93      -0.2715
     97  CB        -4.8200  -10.5430    7.4970 C.3    93  PRO93       0.0310
     98  CG        -4.6860   -9.1300    6.8870 C.3    93  PRO93       0.0237
     99  CD        -6.0770   -8.6220    6.7260 C.3    93  PRO93       0.0939
    100  N         -7.8900  -10.2270    8.9580 N.am   94  ASN94      -0.1959
    101  CA        -8.4390  -10.2020   10.3110 C.3    94  ASN94       0.1819
    102  C         -9.8300   -9.5870   10.4530 C.2    94  ASN94       0.2621
    103  O         -9.9690   -8.4910   10.9920 O.2    94  ASN94      -0.2715
    104  CB        -7.4620   -9.4840   11.2470 C.3    94  ASN94       0.1195
    105  CG        -7.0030   -8.1470   10.6920 C.2    94  ASN94       0.2630
    106  OD1       -7.7220   -7.4970    9.9310 O.2    94  ASN94      -0.2716
    107  ND2       -5.8010   -7.7290   11.0710 N.am   94  ASN94      -0.0877
    108  N        -10.8510  -10.3000    9.9860 N.am   95  ASP95      -0.1971
    109  CA       -12.2400   -9.8770   10.1650 C.3    95  ASP95       0.1709
    110  C        -13.2290  -10.9920    9.8300 C.2    95  ASP95       0.2293
    111  O        -12.9510  -11.8510    8.9930 O.2    95  ASP95      -0.2864
    112  CB       -12.5520   -8.6320    9.3270 C.3    95  ASP95       0.1436
    113  CG       -12.2800   -7.3370   10.0750 C.2    95  ASP95       0.3671
    114  OD1      -12.2370   -7.3660   11.3220 O.co2  95  ASP95      -0.2456
    115  OD2      -12.1100   -6.2880    9.4180 O.co2  95  ASP95      -0.2456
    116  N        -17.0760  -11.7700    8.4700 N.3    97  TYR97      -0.1241
    117  CA       -18.1740  -11.1630    7.7260 C.3    97  TYR97       0.1605
    118  C        -19.3410  -12.1200    7.5190 C.2    97  TYR97       0.2264
    119  O        -19.1800  -13.3380    7.5580 O.2    97  TYR97      -0.2867
    120  CB       -17.6810  -10.6850    6.3570 C.3    97  TYR97       0.0534
    121  CG       -17.0020   -9.3330    6.3650 C.ar   97  TYR97      -0.0201
    122  CD1      -15.7760   -9.1490    6.9960 C.ar   97  TYR97      -0.0009
    123  CD2      -17.5790   -8.2440    5.7220 C.ar   97  TYR97      -0.0009
    124  CE1      -15.1530   -7.9170    6.9960 C.ar   97  TYR97       0.0417
    125  CE2      -16.9640   -7.0090    5.7170 C.ar   97  TYR97       0.0417
    126  CZ       -15.7520   -6.8500    6.3550 C.ar   97  TYR97       0.1957
    127  OH       -15.1380   -5.6180    6.3500 O.3    97  TYR97      -0.2866
    128  N        -19.8180   -6.6930    7.9110 N.3   102  LYS102     -0.1245
    129  CA       -18.9020   -7.1510    8.9480 C.3   102  LYS102      0.1561
    130  C        -19.6380   -7.3750   10.2640 C.2   102  LYS102      0.2260
    131  O        -20.4370   -6.5410   10.6880 O.2   102  LYS102     -0.2867
    132  CB       -17.7600   -6.1520    9.1480 C.3   102  LYS102      0.0271
    133  CG       -16.7500   -6.5940   10.1930 C.3   102  LYS102      0.0035
    134  CD       -15.4870   -5.7500   10.1480 C.3   102  LYS102      0.0206
    135  CE       -15.7650   -4.3160   10.5530 C.3   102  LYS102      0.1093
    136  NZ       -14.5140   -3.5100   10.5800 N.3   102  LYS102     -0.1314
    137  N        -20.6820   -8.0050   17.0180 N.3   122  ASN122     -0.1240
    138  CA       -22.0250   -7.4370   16.9610 C.3   122  ASN122      0.1653
    139  C        -23.0710   -8.5250   17.1460 C.2   122  ASN122      0.2266
    140  O        -23.2410   -9.3870   16.2830 O.2   122  ASN122     -0.2867
    141  CB       -22.2550   -6.7260   15.6270 C.3   122  ASN122      0.1155
    142  CG       -21.2810   -5.5880   15.3930 C.2   122  ASN122      0.2627
    143  OD1      -20.7400   -5.0110   16.3360 O.2   122  ASN122     -0.2716
    144  ND2      -21.0580   -5.2570   14.1270 N.am  122  ASN122     -0.0877
    145  N        -27.1690   -5.5190   19.0310 N.3   125  GLN125     -0.1245
    146  CA       -27.3840   -4.1030   18.7510 C.3   125  GLN125      0.1566
    147  C        -28.6850   -3.9040   17.9790 C.2   125  GLN125      0.2260
    148  O        -28.8320   -4.3880   16.8570 O.2   125  GLN125     -0.2867
    149  CB       -26.2140   -3.5010   17.9690 C.3   125  GLN125      0.0367
    150  CG       -24.9660   -3.2290   18.7970 C.3   125  GLN125      0.0905
    151  CD       -23.9550   -4.3540   18.7210 C.2   125  GLN125      0.2608
    152  OE1      -22.7470   -4.1200   18.7550 O.2   125  GLN125     -0.2717
    153  NE2      -24.4430   -5.5830   18.6060 N.am  125  GLN125     -0.0878
    154  N        -23.8180    5.2420    9.1080 N.3   131  GLU131     -0.1231
    155  CA       -22.4610    5.3660    8.5790 C.3   131  GLU131      0.1699
    156  C        -21.7460    4.0220    8.4750 C.2   131  GLU131      0.2592
    157  O        -20.7510    3.8960    7.7610 O.2   131  GLU131     -0.2718
    158  CB       -21.6250    6.3450    9.4090 C.3   131  GLU131      0.0402
    159  CG       -21.4930    5.9860   10.8790 C.3   131  GLU131      0.1161
    160  CD       -22.5530    6.6450   11.7390 C.2   131  GLU131      0.3649
    161  OE1      -23.6830    6.8440   11.2470 O.co2 131  GLU131     -0.2457
    162  OE2      -22.2530    6.9680   12.9070 O.co2 131  GLU131     -0.2457
    163  N        -22.2540    3.0210    9.1870 N.am  132  ILE132     -0.1980
    164  CA       -21.6720    1.6860    9.1390 C.3   132  ILE132      0.1595
    165  C        -22.6950    0.6630    8.6630 C.2   132  ILE132      0.2287
    166  O        -22.3600   -0.4960    8.4190 O.2   132  ILE132     -0.2864
    167  CB       -21.1350    1.2480   10.5160 C.3   132  ILE132      0.0276
    168  CG1      -22.2920    1.0120   11.4890 C.3   132  ILE132      0.0022
    169  CG2      -20.1620    2.2810   11.0640 C.3   132  ILE132      0.0022
    170  CD1      -21.8580    0.4480   12.8250 C.3   132  ILE132      0.0001
    171  N        -21.8700   -1.6310    5.7350 N.3   135  ARG135     -0.1231
    172  CA       -20.7520   -2.5650    5.8030 C.3   135  ARG135      0.1694
    173  C        -20.7160   -3.3280    7.1230 C.2   135  ARG135      0.2591
    174  O        -19.6930   -3.9120    7.4770 O.2   135  ARG135     -0.2718
    175  CB       -19.4270   -1.8240    5.6180 C.3   135  ARG135      0.0321
    176  CG       -19.5020   -0.6290    4.6890 C.3   135  ARG135      0.0489
    177  CD       -18.2080    0.1630    4.7180 C.3   135  ARG135      0.2205
    178  NE       -18.4450    1.5840    4.4910 N.pl3 135  ARG135     -0.0865
    179  CZ       -18.7790    2.4430    5.4480 C.cat 135  ARG135      0.5346
    180  NH1      -18.9150    2.0240    6.6980 N.pl3 135  ARG135      0.1354
    181  NH2      -18.9780    3.7210    5.1590 N.pl3 135  ARG135      0.1354
    182  N        -21.8280   -3.3220    7.8500 N.am  136  ALA136     -0.1980
    183  CA       -21.8690   -3.9620    9.1600 C.3   136  ALA136      0.1597
    184  C        -23.2640   -4.4560    9.5200 C.2   136  ALA136      0.2287
    185  O        -24.2660   -3.8110    9.2090 O.2   136  ALA136     -0.2864
    186  CB       -21.3520   -3.0140   10.2300 C.3   136  ALA136      0.0319
    187  N         -5.2310   -3.4020    3.4410 N.3   228  SER228     -0.1202
    188  CA        -6.6730   -3.5660    3.5620 C.3   228  SER228      0.2020
    189  C         -7.2280   -4.1650    2.2750 C.2   228  SER228      0.2619
    190  O         -6.9260   -3.6900    1.1800 O.2   228  SER228     -0.2717
    191  CB        -7.3430   -2.2220    3.8490 C.3   228  SER228      0.2103
    192  OG        -8.7550   -2.3330    3.8030 O.3   228  SER228     -0.2182
    193  N         -8.0350   -5.2120    2.4090 N.am  229  LEU229     -0.1965
    194  CA        -8.5960   -5.8940    1.2500 C.3   229  LEU229      0.1728
    195  C         -9.9870   -5.3650    0.9180 C.2   229  LEU229      0.2616
    196  O        -10.8880   -5.3830    1.7560 O.2   229  LEU229     -0.2715
    197  CB        -8.6360   -7.4080    1.4850 C.3   229  LEU229      0.0311
    198  CG        -8.9410   -8.3040    0.2800 C.3   229  LEU229      0.0022
    199  CD1       -8.3720   -9.7000    0.4900 C.3   229  LEU229      0.0001
    200  CD2      -10.4360   -8.3680   -0.0050 C.3   229  LEU229      0.0001
    201  N        -10.1520   -4.8940   -0.3140 N.am  230  ARG230     -0.1977
    202  CA       -11.4280   -4.3610   -0.7720 C.3   230  ARG230      0.1597
    203  C        -11.9000   -5.0730   -2.0350 C.2   230  ARG230      0.2287
    204  O        -11.0950   -5.6260   -2.7840 O.2   230  ARG230     -0.2864
    205  CB       -11.3160   -2.8570   -1.0250 C.3   230  ARG230      0.0334
    206  CG       -11.2410   -2.0160    0.2380 C.3   230  ARG230      0.0492
    207  CD       -12.6140   -1.8460    0.8670 C.3   230  ARG230      0.2205
    208  NE       -12.5860   -0.9480    2.0180 N.pl3 230  ARG230     -0.0865
    209  CZ       -13.6710   -0.4430    2.5980 C.cat 230  ARG230      0.5346
    210  NH1      -13.5520    0.3650    3.6420 N.pl3 230  ARG230      0.1354
    211  NH2      -14.8740   -0.7430    2.1300 N.pl3 230  ARG230      0.1354
@<TRIPOS>BOND
     1   204   203    2
     2   203   202    1
     3   205   202    1
     4   205   206    1
     5   202   201    1
     6   201   195   am
     7   200   198    1
     8   206   207    1
     9   198   199    1
    10   198   197    1
    11   207   208    1
    12   195   194    1
    13   195   196    2
    14   190   189    2
    15   194   197    1
    16   194   193    1
    17   208   209    2
    18   211   209    1
    19   189   193   am
    20   189   188    1
    21   209   210    1
    22    91    89   ar
    23    91    92   ar
    24    89    86   ar
    25    92    90   ar
    26   187   188    1
    27    77    76    1
    28    77    78    1
    29   188   191    1
    30    76    75    1
    31    86    88   ar
    32    86    84   ar
    33    90    88   ar
    34    83    84    1
    35    83    80    1
    36   192   191    1
    37    88    87   ar
    38    84    85   ar
    39    87    85   ar
    40   178   177    1
    41   178   179    2
    42   176   177    1
    43   176   175    1
    44    82    81    2
    45    79    80    1
    46    79    72   am
    47    75    74    1
    48    80    81    1
    49   181   179    1
    50    81    93   am
    51   179   180    1
    52    71    74    1
    53    71    72    1
    54    71    70    1
    55   175   172    1
    56   125   123   ar
    57   125   126   ar
    58   123   121   ar
    59   171   172    1
    60   172   173    1
    61    72    73    2
    62   127   126    1
    63   126   124   ar
    64   120   121    1
    65   120   117    1
    66   121   122   ar
    67    93    99    1
    68    93    94    1
    69    99    98    1
    70    98    97    1
    71   122   124   ar
    72   173   174    2
    73   173   182   am
    74    94    97    1
    75    94    95    1
    76   118   119    2
    77   118   117    1
    78   117   116    1
    79   157   156    2
    80   182   183    1
    81   128   129    1
    82   166   165    2
    83   156   155    1
    84   156   163   am
    85   155   154    1
    86   155   158    1
    87    95   100   am
    88    95    96    2
    89   165   164    1
    90   129   132    1
    91   129   130    1
    92   100   101    1
    93    26    24    1
    94   111   110    2
    95   164   163    1
    96   164   167    1
    97   132   133    1
    98   183   184    1
    99   183   186    1
   100   185   184    2
   101   112   113    1
   102   112   109    1
   103   158   159    1
   104   115   113   ar
   105   110   109    1
   106   106   105    2
   107    15    13    1
   108   108   109    1
   109   108   102   am
   110   113   114   ar
   111   134   133    1
   112   134   135    1
   113    24    25    1
   114    24    23    2
   115   130   131    2
   116   101   102    1
   117   101   104    1
   118   102   103    2
   119   167   169    1
   120   167   168    1
   121   135   136    1
   122   105   107   am
   123   105   104    1
   124   159   160    1
   125    14    13    1
   126    13    12    2
   127    23    22    1
   128   161   160   ar
   129   168   170    1
   130   160   162   ar
   131    12    11    1
   132    11    10    1
   133    22    21    1
   134    21    20    1
   135    20    17    1
   136     9    10    1
   137     9     6    1
   138     8     7    2
   139     7     6    1
   140     6     5    1
   141    17    16    1
   142    17    18    1
   143   144   142   am
   144     5     3   am
   145    48    49   ar
   146    48    46   ar
   147    49    47   ar
   148    56    55    1
   149    30    29    2
   150    46    43   ar
   151    27    18   am
   152    27    28    1
   153    18    19    2
   154     3     2    1
   155     3     4    2
   156   142   141    1
   157   142   143    2
   158     2     1    1
   159   141   138    1
   160    29    28    1
   161    29    36   am
   162    55    57    1
   163    55    54    1
   164    31    28    1
   165    31    32    1
   166    47    45   ar
   167   140   139    2
   168    43    45   ar
   169    43    41   ar
   170    54    51    1
   171    45    44   ar
   172   148   147    2
   173    37    36    1
   174    37    40    1
   175    37    38    1
   176    32    33    1
   177   138   137    1
   178   138   139    1
   179    50    38   am
   180    50    51    1
   181    40    41    1
   182    41    42   ar
   183    38    39    2
   184    51    52    1
   185   149   146    1
   186   149   150    1
   187   147   146    1
   188    44    42   ar
   189    53    52    2
   190    33    34    1
   191   153   151   am
   192   151   152    2
   193   151   150    1
   194   146   145    1
   195    34    35    1
   196    67    65   ar
   197    67    68   ar
   198    69    68    1
   199    65    63   ar
   200    68    66   ar
   201    63    64   ar
   202    63    62    1
   203    66    64   ar
   204    59    58    1
   205    59    62    1
   206    59    60    1
   207    60    61    2
