@<TRIPOS>MOLECULE
tmp/3eftA00.pdb
 148 143 0 0 0
SMALL
GASTEIGER

@<TRIPOS>ATOM
      1  N         -8.2020    0.5940    5.9080 N.3    64  ASN64      -0.1240
      2  CA        -9.0320    1.5630    6.6100 C.3    64  ASN64       0.1653
      3  C        -10.2320    1.9890    5.7710 C.2    64  ASN64       0.2266
      4  O        -10.0760    2.3840    4.6050 O.2    64  ASN64      -0.2867
      5  CB        -8.2190    2.8180    6.9750 C.3    64  ASN64       0.1155
      6  CG        -7.1420    2.5550    8.0200 C.2    64  ASN64       0.2627
      7  OD1       -6.2950    3.4160    8.2750 O.2    64  ASN64      -0.2716
      8  ND2       -7.1590    1.3830    8.6180 N.am   64  ASN64      -0.0877
      9  N        -12.5290    6.4100   11.3060 N.3    89  GLN89      -0.1245
     10  CA       -12.2230    5.2560   10.4710 C.3    89  GLN89       0.1566
     11  C        -12.4870    3.9550   11.2200 C.2    89  GLN89       0.2260
     12  O        -12.5880    3.9620   12.4440 O.2    89  GLN89      -0.2867
     13  CB       -10.7690    5.3020    9.9550 C.3    89  GLN89       0.0367
     14  CG        -9.6720    5.2640   11.0430 C.3    89  GLN89       0.0905
     15  CD        -8.9550    3.9230   11.1380 C.2    89  GLN89       0.2608
     16  OE1       -9.5590    2.8870   11.4050 O.2    89  GLN89      -0.2717
     17  NE2       -7.6450    3.9470   10.9280 N.am   89  GLN89      -0.0878
     18  N        -11.0390   -0.3960   10.9570 N.3    91  HIS91      -0.1241
     19  CA       -10.1610   -1.3900   10.3600 C.3    91  HIS91       0.1621
     20  C        -10.2430   -2.6460   11.1970 C.2    91  HIS91       0.2264
     21  O        -10.8910   -2.6660   12.2550 O.2    91  HIS91      -0.2867
     22  CB        -8.7110   -0.8970   10.3290 C.3    91  HIS91       0.0745
     23  CG        -8.1650   -0.5890   11.6870 C.ar   91  HIS91       0.0817
     24  ND1       -8.3530    0.6290   12.3020 N.ar   91  HIS91      -0.2268
     25  CD2       -7.4900   -1.3600   12.5720 C.ar   91  HIS91       0.1154
     26  CE1       -7.7990    0.6020   13.5020 C.ar   91  HIS91       0.1986
     27  NE2       -7.2690   -0.5940   13.6890 N.ar   91  HIS91      -0.2212
     28  N         -8.0000   -6.3820   12.5590 N.3    93  HIS93      -0.1241
     29  CA        -6.7830   -7.1750   12.6820 C.3    93  HIS93       0.1621
     30  C         -7.2360   -8.6360   12.5630 C.2    93  HIS93       0.2264
     31  O         -8.2640   -9.0110   13.1330 O.2    93  HIS93      -0.2867
     32  CB        -6.0870   -6.9280   14.0210 C.3    93  HIS93       0.0745
     33  CG        -5.8100   -5.4820   14.3110 C.ar   93  HIS93       0.0817
     34  ND1       -4.5710   -4.9090   14.1260 N.ar   93  HIS93      -0.2268
     35  CD2       -6.6140   -4.4950   14.7740 C.ar   93  HIS93       0.1154
     36  CE1       -4.6220   -3.6310   14.4640 C.ar   93  HIS93       0.1986
     37  NE2       -5.8490   -3.3550   14.8680 N.ar   93  HIS93      -0.2212
     38  N        -11.8580   -2.5490   14.8730 N.3   116  HIS116     -0.1241
     39  CA       -11.6250   -1.3310   15.6260 C.3   116  HIS116      0.1621
     40  C        -12.3080   -0.1600   14.9390 C.2   116  HIS116      0.2264
     41  O        -11.9680    0.1820   13.8060 O.2   116  HIS116     -0.2867
     42  CB       -10.1140   -1.0750   15.7810 C.3   116  HIS116      0.0745
     43  CG        -9.4400   -2.0590   16.6890 C.ar  116  HIS116      0.0817
     44  ND1       -8.0820   -2.2970   16.6700 N.ar  116  HIS116     -0.2268
     45  CD2       -9.9470   -2.8630   17.6540 C.ar  116  HIS116      0.1154
     46  CE1       -7.7840   -3.2090   17.5790 C.ar  116  HIS116      0.1986
     47  NE2       -8.8980   -3.5660   18.1920 N.ar  116  HIS116     -0.2212
     48  N        -12.6200    3.6940   15.2690 N.3   118  VAL118     -0.1245
     49  CA       -11.7770    4.7060   15.9190 C.3   118  VAL118      0.1561
     50  C        -12.5170    6.0500   15.9420 C.2   118  VAL118      0.2260
     51  O        -13.0120    6.4990   14.8990 O.2   118  VAL118     -0.2867
     52  CB       -10.4110    4.8450   15.2060 C.3   118  VAL118      0.0252
     53  CG1       -9.4610    5.7410   16.0080 C.3   118  VAL118      0.0019
     54  CG2       -9.7690    3.4880   14.9860 C.3   118  VAL118      0.0019
     55  N         -8.3200   15.1440   14.7820 N.3   127  PHE127     -0.1227
     56  CA        -7.6770   13.8820   15.1520 C.3   127  PHE127      0.1736
     57  C         -6.2230   14.0450   15.6190 C.2   127  PHE127      0.2596
     58  O         -5.8290   13.4680   16.6400 O.2   127  PHE127     -0.2718
     59  CB        -7.7390   12.9020   13.9880 C.3   127  PHE127      0.0547
     60  CG        -7.1420   11.5730   14.2910 C.ar  127  PHE127     -0.0202
     61  CD1       -5.8190   11.3000   13.9680 C.ar  127  PHE127     -0.0042
     62  CD2       -7.9040   10.5810   14.9070 C.ar  127  PHE127     -0.0042
     63  CE1       -5.2620   10.0550   14.2430 C.ar  127  PHE127     -0.0003
     64  CE2       -7.3530    9.3340   15.1980 C.ar  127  PHE127     -0.0003
     65  CZ        -6.0300    9.0690   14.8620 C.ar  127  PHE127     -0.0000
     66  N         -5.4400   14.8140   14.8590 N.am  128  GLY128     -0.1957
     67  CA        -4.0230   15.0380   15.1570 C.3   128  GLY128      0.1869
     68  C         -3.7600   15.6580   16.5200 C.2   128  GLY128      0.2309
     69  O         -2.7670   15.3540   17.1580 O.2   128  GLY128     -0.2863
     70  N         -4.7810   12.8700   19.5090 N.3   131  VAL131     -0.1245
     71  CA        -3.7830   11.8230   19.8070 C.3   131  VAL131      0.1561
     72  C         -2.6090   12.3310   20.6450 C.2   131  VAL131      0.2260
     73  O         -1.6810   11.5760   20.9310 O.2   131  VAL131     -0.2867
     74  CB        -3.2500   11.0890   18.5360 C.3   131  VAL131      0.0252
     75  CG1       -4.3980   10.4580   17.7590 C.3   131  VAL131      0.0019
     76  CG2       -2.4250   12.0300   17.6530 C.3   131  VAL131      0.0019
     77  N        -11.8340    3.8760   21.1790 N.3   139  VAL139     -0.1245
     78  CA       -11.9180    2.8290   20.1770 C.3   139  VAL139      0.1561
     79  C        -12.8770    1.7600   20.6490 C.2   139  VAL139      0.2260
     80  O        -12.7380    1.2250   21.7590 O.2   139  VAL139     -0.2867
     81  CB       -10.5460    2.2320   19.7890 C.3   139  VAL139      0.0252
     82  CG1      -10.7110    1.1890   18.6610 C.3   139  VAL139      0.0019
     83  CG2       -9.5960    3.3390   19.3440 C.3   139  VAL139      0.0019
     84  N         -3.0180    3.1790   21.1840 N.3   194  LEU194     -0.1231
     85  CA        -3.0290    2.6710   19.8190 C.3   194  LEU194      0.1693
     86  C         -2.2520    1.3420   19.8150 C.2   194  LEU194      0.2593
     87  O         -1.2660    1.1940   20.5360 O.2   194  LEU194     -0.2718
     88  CB        -2.3550    3.6760   18.8760 C.3   194  LEU194      0.0284
     89  CG        -2.8890    5.1170   18.8450 C.3   194  LEU194      0.0019
     90  CD1       -1.9070    6.0400   18.1320 C.3   194  LEU194      0.0001
     91  CD2       -4.2610    5.1780   18.1840 C.3   194  LEU194      0.0001
     92  N         -2.6910    0.3750   19.0170 N.am  195  THR195     -0.1939
     93  CA        -2.0120   -0.9210   18.9940 C.3   195  THR195      0.2028
     94  C         -0.9940   -1.0360   17.8520 C.2   195  THR195      0.2643
     95  O         -0.3170   -2.0660   17.7150 O.2   195  THR195     -0.2714
     96  CB        -3.0030   -2.0950   18.9080 C.3   195  THR195      0.1808
     97  OG1       -3.6570   -2.0580   17.6320 O.3   195  THR195     -0.2208
     98  CG2       -4.0310   -2.0570   20.0720 C.3   195  THR195      0.0379
     99  N         -0.8970    0.0100   17.0340 N.am  196  THR196     -0.1937
    100  CA         0.1670    0.1270   16.0290 C.3   196  THR196      0.2013
    101  C          1.0480    1.3260   16.3660 C.2   196  THR196      0.2484
    102  O          0.5860    2.2690   17.0320 O.2   196  THR196     -0.2729
    103  CB        -0.3970    0.3610   14.6090 C.3   196  THR196      0.1807
    104  OG1       -1.2170    1.5340   14.6120 O.3   196  THR196     -0.2208
    105  CG2       -1.2350   -0.8110   14.1330 C.3   196  THR196      0.0379
    106  N          2.3190    1.3160   15.8990 N.am  197  PRO197     -0.2715
    107  CA         3.1060    2.5530   16.0080 C.3   197  PRO197      0.1521
    108  C          2.3040    3.7380   15.4620 C.2   197  PRO197      0.2440
    109  O          1.6380    3.5910   14.4370 O.2   197  PRO197     -0.2731
    110  CB         4.3200    2.2640   15.1280 C.3   197  PRO197      0.0310
    111  CG         4.5360    0.7850   15.3020 C.3   197  PRO197      0.0237
    112  CD         3.1080    0.2140   15.3180 C.3   197  PRO197      0.0939
    113  N          2.3910    4.9180   16.1030 N.am  198  PRO198     -0.2727
    114  CA         3.2800    5.3220   17.1940 C.3   198  PRO198      0.1402
    115  C          2.8560    4.9130   18.6070 C.2   198  PRO198      0.2269
    116  O          3.4200    5.4320   19.5710 O.2   198  PRO198     -0.2865
    117  CB         3.2810    6.8490   17.0800 C.3   198  PRO198      0.0296
    118  CG         1.9280    7.1690   16.5800 C.3   198  PRO198      0.0237
    119  CD         1.5270    6.0310   15.6660 C.3   198  PRO198      0.0939
    120  N          0.5600    5.5410   20.7510 N.3   200  LEU200     -0.1245
    121  CA         0.2850    6.6280   21.6820 C.3   200  LEU200      0.1561
    122  C         -0.7730    6.2480   22.7230 C.2   200  LEU200      0.2260
    123  O         -1.7680    5.5910   22.4040 O.2   200  LEU200     -0.2867
    124  CB        -0.1120    7.9020   20.9230 C.3   200  LEU200      0.0270
    125  CG         0.9680    8.4480   19.9660 C.3   200  LEU200      0.0019
    126  CD1        0.3620    9.3910   18.9390 C.3   200  LEU200      0.0001
    127  CD2        2.0760    9.1290   20.7480 C.3   200  LEU200      0.0001
    128  N         -6.0230    6.3290   24.2560 N.3   203  VAL203     -0.1245
    129  CA        -7.2660    5.5920   23.9700 C.3   203  VAL203      0.1561
    130  C         -8.0510    5.1220   25.2010 C.2   203  VAL203      0.2260
    131  O         -7.5010    4.4990   26.1180 O.2   203  VAL203     -0.2867
    132  CB        -6.9950    4.3590   23.0360 C.3   203  VAL203      0.0252
    133  CG1       -8.3030    3.6460   22.6800 C.3   203  VAL203      0.0019
    134  CG2       -6.2480    4.7780   21.7540 C.3   203  VAL203      0.0019
    135  N        -10.4680    2.3620   25.6590 N.3   205  TRP205     -0.1241
    136  CA       -10.9180    1.1550   24.9710 C.3   205  TRP205      0.1605
    137  C        -12.2810    0.7480   25.4720 C.2   205  TRP205      0.2264
    138  O        -12.5390    0.7610   26.6760 O.2   205  TRP205     -0.2867
    139  CB        -9.9230    0.0080   25.1460 C.3   205  TRP205      0.0550
    140  CG        -8.8100    0.1190   24.1800 C.ar  205  TRP205      0.0003
    141  CD1       -7.5770    0.6710   24.3950 C.ar  205  TRP205      0.0946
    142  CD2       -8.8340   -0.3110   22.8200 C.ar  205  TRP205      0.0152
    143  NE1       -6.8350    0.6220   23.2380 N.ar  205  TRP205     -0.2442
    144  CE2       -7.5800    0.0090   22.2600 C.ar  205  TRP205      0.0810
    145  CE3       -9.8010   -0.9390   22.0170 C.ar  205  TRP205      0.0012
    146  CZ2       -7.2580   -0.2850   20.9280 C.ar  205  TRP205      0.0191
    147  CZ3       -9.4780   -1.2430   20.6990 C.ar  205  TRP205      0.0001
    148  CH2       -8.2200   -0.9100   20.1660 C.ar  205  TRP205      0.0015
@<TRIPOS>BOND
     1     4     3    2
     2     3     2    1
     3     1     2    1
     4     2     5    1
     5     5     6    1
     6     6     7    2
     7     6     8   am
     8    13    10    1
     9    13    14    1
    10    22    19    1
    11    22    23    1
    12    19    18    1
    13    19    20    1
    14    10    11    1
    15    10     9    1
    16    17    15   am
    17    14    15    1
    18    15    16    2
    19    20    21    2
    20    11    12    2
    21    23    24   ar
    22    23    25   ar
    23    24    26   ar
    24    28    29    1
    25    30    29    1
    26    30    31    2
    27    25    27   ar
    28    29    32    1
    29    26    27   ar
    30    41    40    2
    31    61    63   ar
    32    61    60   ar
    33    59    60    1
    34    59    56    1
    35    32    33    1
    36    34    33   ar
    37    34    36   ar
    38   105   103    1
    39    63    65   ar
    40    60    62   ar
    41    33    35   ar
    42   109   108    2
    43    36    37   ar
    44   103   104    1
    45   103   100    1
    46    35    37   ar
    47    55    56    1
    48    66    67    1
    49    66    57   am
    50    65    64   ar
    51    38    39    1
    52    51    50    2
    53    62    64   ar
    54    40    39    1
    55    54    52    1
    56   110   111    1
    57   110   107    1
    58    56    57    1
    59    67    68    1
    60    52    49    1
    61    52    53    1
    62    48    49    1
    63   111   112    1
    64   112   106    1
    65   108   107    1
    66   108   113   am
    67    57    58    2
    68    39    42    1
    69   119   113    1
    70   119   118    1
    71    42    43    1
    72   106   107    1
    73   106   101   am
    74    49    50    1
    75   100   101    1
    76   100    99    1
    77   113   114    1
    78   101   102    2
    79    68    69    2
    80   118   117    1
    81    44    43   ar
    82    44    46   ar
    83    43    45   ar
    84    99    94   am
    85   117   114    1
    86   114   115    1
    87    46    47   ar
    88    97    96    1
    89    76    74    1
    90    45    47   ar
    91    95    94    2
    92    75    74    1
    93    94    93    1
    94    90    89    1
    95    91    89    1
    96    74    71    1
    97   115   116    2
    98    82    81    1
    99    89    88    1
   100    88    85    1
   101    96    93    1
   102    96    98    1
   103   126   125    1
   104    93    92    1
   105    92    86   am
   106    83    81    1
   107    70    71    1
   108    81    78    1
   109    71    72    1
   110    86    85    1
   111    86    87    2
   112    85    84    1
   113   125   127    1
   114   125   124    1
   115   148   147   ar
   116   148   146   ar
   117    78    79    1
   118    78    77    1
   119    72    73    2
   120    79    80    2
   121   147   145   ar
   122   120   121    1
   123   124   121    1
   124   146   144   ar
   125   121   122    1
   126   134   132    1
   127   145   142   ar
   128   144   142   ar
   129   144   143   ar
   130   123   122    2
   131   133   132    1
   132   142   140   ar
   133   132   129    1
   134   143   141   ar
   135   129   128    1
   136   129   130    1
   137   140   141   ar
   138   140   139    1
   139   136   139    1
   140   136   137    1
   141   136   135    1
   142   130   131    2
   143   137   138    2
