@<TRIPOS>MOLECULE
tmp/3eg9B00.pdb
 103 97 0 0 0
SMALL
GASTEIGER

@<TRIPOS>ATOM
      1  N        -72.0860  -23.5500    1.7830 N.3     1  ALA1       -0.1231
      2  CA       -71.1780  -22.8510    2.7290 C.3     1  ALA1        0.1694
      3  C        -69.9380  -22.4000    1.9720 C.2     1  ALA1        0.2592
      4  O        -69.1090  -23.2020    1.5500 O.2     1  ALA1       -0.2718
      5  CB       -70.7810  -23.7690    3.8780 C.3     1  ALA1        0.0304
      6  N        -69.8090  -21.0890    1.8130 N.am    2  MET2       -0.1965
      7  CA       -68.6740  -20.4700    1.1000 C.3     2  MET2        0.1736
      8  C        -67.3900  -20.1040    1.8950 C.2     2  MET2        0.2617
      9  O        -67.4530  -19.8720    3.1240 O.2     2  MET2       -0.2715
     10  CB       -69.1830  -19.2370    0.3690 C.3     2  MET2        0.0427
     11  CG       -68.0580  -18.2660   -0.0550 C.3     2  MET2        0.0599
     12  SD       -66.8060  -18.9360   -1.1980 S.3     2  MET2       -0.1393
     13  CE       -67.8520  -19.3090   -2.5760 C.3     2  MET2        0.0692
     14  N        -66.2470  -20.1120    1.1600 N.am    3  GLY3       -0.1955
     15  CA       -64.8800  -19.7910    1.6450 C.3     3  GLY3        0.1869
     16  C        -64.8160  -18.3010    2.0420 C.2     3  GLY3        0.2309
     17  O        -64.4820  -17.4590    1.2430 O.2     3  GLY3       -0.2863
     18  N        -70.6680  -31.2950  -12.2490 N.3   566  SER566     -0.1217
     19  CA       -71.1840  -31.3170  -10.8890 C.3   566  SER566      0.1889
     20  C        -72.6830  -31.1200  -10.9580 C.2   566  SER566      0.2288
     21  O        -73.1960  -30.5950  -11.9450 O.2   566  SER566     -0.2866
     22  CB       -70.5520  -30.2050  -10.0650 C.3   566  SER566      0.2089
     23  OG       -70.7400  -28.9650  -10.7080 O.3   566  SER566     -0.2183
     24  N        -77.6570  -28.5430   -8.6200 N.3   569  SER569     -0.1202
     25  CA       -78.0170  -27.9240   -7.3530 C.3   569  SER569      0.2020
     26  C        -76.8390  -27.1950   -6.7090 C.2   569  SER569      0.2619
     27  O        -76.9920  -26.5730   -5.6610 O.2   569  SER569     -0.2717
     28  CB       -78.5640  -28.9820   -6.3870 C.3   569  SER569      0.2103
     29  OG       -77.6170  -30.0070   -6.1410 O.3   569  SER569     -0.2182
     30  N        -75.6690  -27.2680   -7.3370 N.am  570  GLN570     -0.1965
     31  CA       -74.4780  -26.6090   -6.8070 C.3   570  GLN570      0.1733
     32  C        -74.0610  -25.3860   -7.6100 C.2   570  GLN570      0.2616
     33  O        -74.3850  -25.2610   -8.7880 O.2   570  GLN570     -0.2715
     34  CB       -73.3070  -27.5800   -6.7660 C.3   570  GLN570      0.0408
     35  CG       -73.5050  -28.7410   -5.8420 C.3   570  GLN570      0.0908
     36  CD       -72.2190  -29.5010   -5.6030 C.2   570  GLN570      0.2608
     37  OE1      -71.6340  -30.0760   -6.5310 O.2   570  GLN570     -0.2717
     38  NE2      -71.7600  -29.5020   -4.3530 N.am  570  GLN570     -0.0878
     39  N        -73.3360  -24.4840   -6.9560 N.am  571  LEU571     -0.1963
     40  CA       -72.8460  -23.2700   -7.5940 C.3   571  LEU571      0.1728
     41  C        -71.3330  -23.2900   -7.5210 C.2   571  LEU571      0.2616
     42  O        -70.7530  -23.2590   -6.4340 O.2   571  LEU571     -0.2715
     43  CB       -73.3800  -22.0390   -6.8820 C.3   571  LEU571      0.0311
     44  CG       -72.5970  -20.7710   -7.1970 C.3   571  LEU571      0.0022
     45  CD1      -73.5110  -19.7160   -7.7710 C.3   571  LEU571      0.0001
     46  CD2      -71.9290  -20.2800   -5.9230 C.3   571  LEU571      0.0001
     47  N        -70.6970  -23.3390   -8.6840 N.am  572  ILE572     -0.1963
     48  CA       -69.2470  -23.4020   -8.7430 C.3   572  ILE572      0.1727
     49  C        -68.5980  -22.0450   -8.8950 C.2   572  ILE572      0.2616
     50  O        -69.0600  -21.2010   -9.6630 O.2   572  ILE572     -0.2715
     51  CB       -68.7720  -24.2850   -9.9110 C.3   572  ILE572      0.0290
     52  CG1      -69.5840  -25.5790   -9.9420 C.3   572  ILE572      0.0022
     53  CG2      -67.2750  -24.5930   -9.7610 C.3   572  ILE572      0.0023
     54  CD1      -69.5000  -26.3800   -8.6610 C.3   572  ILE572      0.0001
     55  N        -67.5070  -21.8600   -8.1630 N.am  573  LEU573     -0.1977
     56  CA       -66.7520  -20.6240   -8.1900 C.3   573  LEU573      0.1596
     57  C        -65.2770  -20.9680   -8.1770 C.2   573  LEU573      0.2287
     58  O        -64.8160  -21.7250   -7.3250 O.2   573  LEU573     -0.2864
     59  CB       -67.0450  -19.7800   -6.9500 C.3   573  LEU573      0.0297
     60  CG       -68.4810  -19.4880   -6.5350 C.3   573  LEU573      0.0022
     61  CD1      -68.4620  -18.4700   -5.4040 C.3   573  LEU573      0.0001
     62  CD2      -69.2690  -18.9570   -7.7250 C.3   573  LEU573      0.0001
     63  N        -61.2800  -20.7470   -7.4850 N.3   575  ASP575     -0.1239
     64  CA       -60.5580  -20.2940   -6.2870 C.3   575  ASP575      0.1674
     65  C        -60.1480  -18.8430   -6.4040 C.2   575  ASP575      0.2266
     66  O        -60.0420  -18.1290   -5.4120 O.2   575  ASP575     -0.2867
     67  CB       -59.3070  -21.1390   -6.0400 C.3   575  ASP575      0.1410
     68  CG       -59.6340  -22.5540   -5.5990 C.2   575  ASP575      0.3668
     69  OD1      -60.4040  -22.7100   -4.6250 O.co2 575  ASP575     -0.2456
     70  OD2      -59.1190  -23.5120   -6.2220 O.co2 575  ASP575     -0.2456
     71  N        -63.3040  -17.0530   -5.2750 N.3   578  LYS578     -0.1245
     72  CA       -63.9890  -17.5230   -4.0750 C.3   578  LYS578      0.1561
     73  C        -64.8030  -16.4280   -3.4060 C.2   578  LYS578      0.2260
     74  O        -66.0090  -16.5580   -3.2240 O.2   578  LYS578     -0.2867
     75  CB       -62.9890  -18.0340   -3.0380 C.3   578  LYS578      0.0271
     76  CG       -62.3700  -19.3960   -3.2850 C.3   578  LYS578      0.0035
     77  CD       -61.3960  -19.6950   -2.1480 C.3   578  LYS578      0.0206
     78  CE       -60.8850  -21.1190   -2.1600 C.3   578  LYS578      0.1093
     79  NZ       -60.0460  -21.3860   -0.9570 N.3   578  LYS578     -0.1314
     80  N        -75.7140  -14.4560   -3.2780 N.3   755  LEU755     -0.1231
     81  CA       -75.1890  -15.7010   -3.8130 C.3   755  LEU755      0.1693
     82  C        -76.3480  -16.4380   -4.4470 C.2   755  LEU755      0.2592
     83  O        -76.2300  -16.9900   -5.5360 O.2   755  LEU755     -0.2718
     84  CB       -74.5890  -16.5630   -2.7020 C.3   755  LEU755      0.0284
     85  CG       -73.0780  -16.7900   -2.7420 C.3   755  LEU755      0.0019
     86  CD1      -72.7240  -17.8540   -1.7290 C.3   755  LEU755      0.0001
     87  CD2      -72.6400  -17.2260   -4.1290 C.3   755  LEU755      0.0001
     88  N        -77.4760  -16.4250   -3.7500 N.am  756  CYS756     -0.1970
     89  CA       -78.6820  -17.0930   -4.2130 C.3   756  CYS756      0.1712
     90  C        -79.1970  -16.4620   -5.5130 C.2   756  CYS756      0.2296
     91  O        -79.7970  -17.1330   -6.3580 O.2   756  CYS756     -0.2864
     92  CB       -79.7480  -17.0130   -3.1190 C.3   756  CYS756      0.0983
     93  SG       -80.9080  -18.3720   -3.1500 S.3   756  CYS756     -0.0798
     94  N        -76.7790  -17.4310   -8.7010 N.3   759  HIS759     -0.1241
     95  CA       -77.0540  -18.7780   -9.1600 C.3   759  HIS759      0.1621
     96  C        -78.2880  -18.8290  -10.0560 C.2   759  HIS759      0.2264
     97  O        -78.3340  -19.6110  -11.0020 O.2   759  HIS759     -0.2867
     98  CB       -77.2250  -19.7310   -7.9760 C.3   759  HIS759      0.0745
     99  CG       -77.1490  -21.1760   -8.3580 C.ar  759  HIS759      0.0817
    100  ND1      -78.1810  -22.0630   -8.1340 N.ar  759  HIS759     -0.2268
    101  CD2      -76.1680  -21.8850   -8.9660 C.ar  759  HIS759      0.1154
    102  CE1      -77.8400  -23.2550   -8.5870 C.ar  759  HIS759      0.1986
    103  NE2      -76.6230  -23.1750   -9.0970 N.ar  759  HIS759     -0.2212
@<TRIPOS>BOND
     1    18    19    1
     2    21    20    2
     3    97    96    2
     4    20    19    1
     5    19    22    1
     6    23    22    1
     7    96    95    1
     8    52    51    1
     9    52    54    1
    10    51    53    1
    11    51    48    1
    12    50    49    2
    13    95    94    1
    14    95    98    1
    15   103   101   ar
    16   103   102   ar
    17   101    99   ar
    18    49    48    1
    19    49    55   am
    20    33    32    2
    21    48    47    1
    22    47    41   am
    23    24    25    1
    24   102   100   ar
    25    99   100   ar
    26    99    98    1
    27    56    57    1
    28    56    55    1
    29    56    59    1
    30    57    58    2
    31    45    44    1
    32    62    60    1
    33    32    39   am
    34    32    31    1
    35    40    41    1
    36    40    39    1
    37    40    43    1
    38    41    42    2
    39    63    64    1
    40    25    26    1
    41    25    28    1
    42    30    31    1
    43    30    26   am
    44    44    43    1
    45    44    46    1
    46    59    60    1
    47    31    34    1
    48    34    35    1
    49    26    27    2
    50    60    61    1
    51    37    36    2
    52    65    64    1
    53    65    66    2
    54    28    29    1
    55    91    90    2
    56    64    67    1
    57    70    68   ar
    58    67    68    1
    59    35    36    1
    60    36    38   am
    61    68    69   ar
    62    83    82    2
    63    90    89    1
    64    71    72    1
    65    82    81    1
    66    82    88   am
    67    89    88    1
    68    89    92    1
    69    87    85    1
    70    72    73    1
    71    72    75    1
    72    81    80    1
    73    81    84    1
    74    73    74    2
    75    76    75    1
    76    76    77    1
    77    93    92    1
    78    85    84    1
    79    85    86    1
    80    13    12    1
    81    78    77    1
    82    78    79    1
    83    12    11    1
    84    11    10    1
    85    10     7    1
    86     7     6    1
    87     7     8    1
    88    14    15    1
    89    14     8   am
    90    17    16    2
    91     4     3    2
    92    15    16    1
    93     1     2    1
    94     6     3   am
    95     8     9    2
    96     3     2    1
    97     2     5    1
