@<TRIPOS>MOLECULE
tmp/3egdB00.pdb
 155 146 0 0 0
SMALL
GASTEIGER

@<TRIPOS>ATOM
      1  N         36.9760   12.1630  -58.9710 N.3    85  ARG85      -0.1245
      2  CA        37.3250   12.7320  -57.6600 C.3    85  ARG85       0.1563
      3  C         38.8110   12.5530  -57.3290 C.2    85  ARG85       0.2260
      4  O         39.3730   11.4780  -57.5460 O.2    85  ARG85      -0.2867
      5  CB        36.5110   12.0590  -56.5570 C.3    85  ARG85       0.0307
      6  CG        35.0540   11.8170  -56.8930 C.3    85  ARG85       0.0489
      7  CD        34.3380   11.1840  -55.7050 C.3    85  ARG85       0.2205
      8  NE        34.3710   12.0450  -54.5270 N.pl3  85  ARG85      -0.0865
      9  CZ        33.8330   11.7300  -53.3520 C.cat  85  ARG85       0.5346
     10  NH1       33.2130   10.5710  -53.1910 N.pl3  85  ARG85       0.1354
     11  NH2       33.9170   12.5730  -52.3330 N.pl3  85  ARG85       0.1354
     12  N         42.1950   11.5250  -55.9950 N.3    87  ARG87      -0.1231
     13  CA        42.5440   10.2850  -55.3140 C.3    87  ARG87       0.1694
     14  C         43.0430   10.4280  -53.8840 C.2    87  ARG87       0.2593
     15  O         43.1560    9.4370  -53.1660 O.2    87  ARG87      -0.2718
     16  CB        43.5790    9.5060  -56.1290 C.3    87  ARG87       0.0321
     17  CG        43.0290    8.8430  -57.3900 C.3    87  ARG87       0.0489
     18  CD        44.1110    8.0130  -58.0720 C.3    87  ARG87       0.2205
     19  NE        43.6550    7.4000  -59.3180 N.pl3  87  ARG87      -0.0865
     20  CZ        44.4540    6.7690  -60.1760 C.cat  87  ARG87       0.5346
     21  NH1       45.7530    6.6690  -59.9230 N.pl3  87  ARG87       0.1354
     22  NH2       43.9570    6.2470  -61.2900 N.pl3  87  ARG87       0.1354
     23  N         43.3440   11.6460  -53.4590 N.am   88  SER88      -0.1938
     24  CA        43.8260   11.8440  -52.1020 C.3    88  SER88       0.2055
     25  C         42.7310   12.3270  -51.1710 C.2    88  SER88       0.2643
     26  O         42.2590   11.5760  -50.3220 O.2    88  SER88      -0.2714
     27  CB        44.9830   12.8480  -52.0800 C.3    88  SER88       0.2130
     28  OG        46.1460   12.3200  -52.6930 O.3    88  SER88      -0.2179
     29  N         42.3290   13.5840  -51.3430 N.am   89  CYS89      -0.1953
     30  CA        41.3080   14.2050  -50.5020 C.3    89  CYS89       0.1843
     31  C         39.8800   13.9340  -50.9800 C.2    89  CYS89       0.2625
     32  O         38.9120   14.3330  -50.3300 O.2    89  CYS89      -0.2714
     33  CB        41.5410   15.7030  -50.4650 C.3    89  CYS89       0.0997
     34  SG        41.2800   16.4310  -52.0800 S.3    89  CYS89      -0.0797
     35  N         39.7570   13.2800  -52.1300 N.am   90  ARG90      -0.1977
     36  CA        38.4550   12.9290  -52.6860 C.3    90  ARG90       0.1597
     37  C         37.5410   14.0800  -53.0710 C.2    90  ARG90       0.2287
     38  O         36.3270   13.9250  -53.0910 O.2    90  ARG90      -0.2864
     39  CB        37.7120   11.9920  -51.7260 C.3    90  ARG90       0.0334
     40  CG        38.3940   10.6500  -51.5540 C.3    90  ARG90       0.0492
     41  CD        38.6330   10.0110  -52.9160 C.3    90  ARG90       0.2205
     42  NE        37.6700    8.9670  -53.2690 N.pl3  90  ARG90      -0.0865
     43  CZ        37.3010    8.6910  -54.5180 C.cat  90  ARG90       0.5346
     44  NH1       37.8010    9.3920  -55.5310 N.pl3  90  ARG90       0.1354
     45  NH2       36.4630    7.6900  -54.7650 N.pl3  90  ARG90       0.1354
     46  N         35.5870   16.6690  -55.4890 N.3    92  TYR92      -0.1241
     47  CA        34.9740   16.4820  -56.8040 C.3    92  TYR92       0.1605
     48  C         35.5700   17.3710  -57.8950 C.2    92  TYR92       0.2264
     49  O         35.7050   18.5840  -57.7250 O.2    92  TYR92      -0.2867
     50  CB        33.4610   16.7260  -56.7280 C.3    92  TYR92       0.0534
     51  CG        32.7220   15.7490  -55.8410 C.ar   92  TYR92      -0.0201
     52  CD1       32.3200   14.5000  -56.3200 C.ar   92  TYR92      -0.0009
     53  CD2       32.4590   16.0590  -54.5030 C.ar   92  TYR92      -0.0009
     54  CE1       31.6770   13.5810  -55.4830 C.ar   92  TYR92       0.0417
     55  CE2       31.8180   15.1490  -53.6640 C.ar   92  TYR92       0.0417
     56  CZ        31.4340   13.9170  -54.1590 C.ar   92  TYR92       0.1957
     57  OH        30.8210   13.0210  -53.3150 O.3    92  TYR92      -0.2866
     58  N         28.1370    2.0930  -54.5010 N.3   141  GLU141     -0.1231
     59  CA        28.9460    2.1730  -53.2840 C.3   141  GLU141      0.1699
     60  C         28.7320    3.4600  -52.5080 C.2   141  GLU141      0.2592
     61  O         29.4760    3.7530  -51.5760 O.2   141  GLU141     -0.2718
     62  CB        30.4390    2.0540  -53.6010 C.3   141  GLU141      0.0402
     63  CG        30.7790    1.0070  -54.6290 C.3   141  GLU141      0.1161
     64  CD        31.0180    1.6160  -55.9910 C.2   141  GLU141      0.3649
     65  OE1       30.1290    2.3410  -56.4900 O.co2 141  GLU141     -0.2457
     66  OE2       32.1010    1.3670  -56.5610 O.co2 141  GLU141     -0.2457
     67  N         27.7370    4.2430  -52.8960 N.am  142  TYR142     -0.1962
     68  CA        27.4670    5.4850  -52.1920 C.3   142  TYR142      0.1771
     69  C         26.1950    5.3310  -51.3720 C.2   142  TYR142      0.2619
     70  O         25.5490    6.3090  -51.0130 O.2   142  TYR142     -0.2715
     71  CB        27.3340    6.6480  -53.1800 C.3   142  TYR142      0.0574
     72  CG        28.6480    7.1150  -53.7870 C.ar  142  TYR142     -0.0198
     73  CD1       29.2220    8.3360  -53.4170 C.ar  142  TYR142     -0.0009
     74  CD2       29.2970    6.3560  -54.7570 C.ar  142  TYR142     -0.0009
     75  CE1       30.4040    8.7920  -54.0060 C.ar  142  TYR142      0.0417
     76  CE2       30.4820    6.8000  -55.3490 C.ar  142  TYR142      0.0417
     77  CZ        31.0280    8.0180  -54.9730 C.ar  142  TYR142      0.1957
     78  OH        32.1890    8.4510  -55.5780 O.3   142  TYR142     -0.2866
     79  N         25.8430    4.0830  -51.0820 N.am  143  MET143     -0.1963
     80  CA        24.6580    3.7850  -50.2900 C.3   143  MET143      0.1736
     81  C         24.8590    2.5520  -49.4290 C.2   143  MET143      0.2616
     82  O         25.2580    1.4970  -49.9140 O.2   143  MET143     -0.2715
     83  CB        23.4330    3.6090  -51.1910 C.3   143  MET143      0.0427
     84  CG        23.6490    2.7500  -52.4170 C.3   143  MET143      0.0599
     85  SD        22.2580    2.8850  -53.5680 S.3   143  MET143     -0.1393
     86  CE        22.9670    3.8630  -54.8760 C.3   143  MET143      0.0692
     87  N         24.5940    2.7130  -48.1360 N.am  144  LEU144     -0.1977
     88  CA        24.7300    1.6360  -47.1710 C.3   144  LEU144      0.1596
     89  C         23.5780    0.6580  -47.3060 C.2   144  LEU144      0.2287
     90  O         23.6070   -0.4190  -46.7120 O.2   144  LEU144     -0.2864
     91  CB        24.7110    2.1830  -45.7460 C.3   144  LEU144      0.0297
     92  CG        25.6710    3.2940  -45.3270 C.3   144  LEU144      0.0022
     93  CD1       25.3680    4.5660  -46.1070 C.3   144  LEU144      0.0001
     94  CD2       25.5090    3.5360  -43.8300 C.3   144  LEU144      0.0001
     95  N         23.8250   12.8570  -45.9180 N.3   391  VAL391     -0.1245
     96  CA        25.0240   13.3310  -45.2310 C.3   391  VAL391      0.1561
     97  C         25.6360   14.4330  -46.0820 C.2   391  VAL391      0.2260
     98  O         25.4680   14.4720  -47.3040 O.2   391  VAL391     -0.2867
     99  CB        26.1170   12.2500  -45.0670 C.3   391  VAL391      0.0252
    100  CG1       25.5810   11.0620  -44.2830 C.3   391  VAL391      0.0019
    101  CG2       26.6480   11.8460  -46.4420 C.3   391  VAL391      0.0019
    102  N         29.2220   17.1230  -46.5590 N.3   393  ARG393     -0.1245
    103  CA        30.5830   17.4340  -46.1970 C.3   393  ARG393      0.1563
    104  C         31.0250   18.7100  -46.8680 C.2   393  ARG393      0.2260
    105  O         30.6450   18.9910  -48.0040 O.2   393  ARG393     -0.2867
    106  CB        31.5400   16.3250  -46.5940 C.3   393  ARG393      0.0307
    107  CG        32.9790   16.7290  -46.3250 C.3   393  ARG393      0.0489
    108  CD        33.6050   15.7530  -45.3880 C.3   393  ARG393      0.2205
    109  NE        33.5310   14.4540  -46.0250 N.pl3 393  ARG393     -0.0865
    110  CZ        33.7060   13.2910  -45.4180 C.cat 393  ARG393      0.5346
    111  NH1       33.9780   13.2380  -44.1150 N.pl3 393  ARG393      0.1354
    112  NH2       33.5910   12.1790  -46.1350 N.pl3 393  ARG393      0.1354
    113  N         34.4570   20.6520  -47.8260 N.3   395  ARG395     -0.1245
    114  CA        35.8920   20.5200  -47.9430 C.3   395  ARG395      0.1563
    115  C         36.4140   21.9000  -48.2820 C.2   395  ARG395      0.2260
    116  O         35.7310   22.6710  -48.9630 O.2   395  ARG395     -0.2867
    117  CB        36.2540   19.5520  -49.0660 C.3   395  ARG395      0.0307
    118  CG        36.0780   18.0720  -48.7500 C.3   395  ARG395      0.0489
    119  CD        36.6680   17.2340  -49.8980 C.3   395  ARG395      0.2205
    120  NE        36.5090   15.8010  -49.6810 N.pl3 395  ARG395     -0.0865
    121  CZ        35.3550   15.1510  -49.7920 C.cat 395  ARG395      0.5346
    122  NH1       34.2500   15.8030  -50.1290 N.pl3 395  ARG395      0.1354
    123  NH2       35.3070   13.8490  -49.5430 N.pl3 395  ARG395      0.1354
    124  N         31.0570   15.1940  -41.0820 N.3   416  LEU416     -0.1245
    125  CA        30.2370   14.1620  -41.6720 C.3   416  LEU416      0.1561
    126  C         28.9180   14.5650  -41.0560 C.2   416  LEU416      0.2260
    127  O         28.4300   13.9370  -40.1150 O.2   416  LEU416     -0.2867
    128  CB        30.6250   12.7500  -41.2460 C.3   416  LEU416      0.0270
    129  CG        29.8700   11.7500  -42.1370 C.3   416  LEU416      0.0019
    130  CD1       30.2060   12.0320  -43.5960 C.3   416  LEU416      0.0001
    131  CD2       30.2240   10.3180  -41.7650 C.3   416  LEU416      0.0001
    132  N         29.2370   18.8740  -50.3840 N.3   449  ALA449     -0.1245
    133  CA        28.6250   17.7870  -51.1280 C.3   449  ALA449      0.1562
    134  C         27.4690   17.2290  -50.3270 C.2   449  ALA449      0.2260
    135  O         27.6040   16.8960  -49.1410 O.2   449  ALA449     -0.2867
    136  CB        29.6580   16.6880  -51.4120 C.3   449  ALA449      0.0290
    137  N         25.0050   14.1960  -50.1170 N.3   451  LEU451     -0.1245
    138  CA        24.6740   12.8240  -50.5380 C.3   451  LEU451      0.1561
    139  C         23.3030   12.4480  -49.9480 C.2   451  LEU451      0.2260
    140  O         23.1280   12.4270  -48.7240 O.2   451  LEU451     -0.2867
    141  CB        25.7370   11.8200  -50.0590 C.3   451  LEU451      0.0270
    142  CG        25.4260   10.3190  -50.2930 C.3   451  LEU451      0.0019
    143  CD1       25.1580   10.0800  -51.7810 C.3   451  LEU451      0.0001
    144  CD2       26.5820    9.4250  -49.8270 C.3   451  LEU451      0.0001
    145  N         19.7820    7.7600  -55.3500 N.3   459  ARG459     -0.1245
    146  CA        20.9000    8.3510  -54.6160 C.3   459  ARG459      0.1563
    147  C         21.4930    9.4560  -55.4610 C.2   459  ARG459      0.2260
    148  O         21.8160    9.2500  -56.6310 O.2   459  ARG459     -0.2867
    149  CB        22.0120    7.3320  -54.3370 C.3   459  ARG459      0.0307
    150  CG        22.0570    6.7760  -52.9180 C.3   459  ARG459      0.0489
    151  CD        22.0180    7.8610  -51.8370 C.3   459  ARG459      0.2205
    152  NE        22.7800    7.4640  -50.6500 N.pl3 459  ARG459     -0.0865
    153  CZ        22.4020    7.6840  -49.3950 C.cat 459  ARG459      0.5346
    154  NH1       21.2570    8.3000  -49.1310 N.pl3 459  ARG459      0.1354
    155  NH2       23.1800    7.2990  -48.3970 N.pl3 459  ARG459      0.1354
@<TRIPOS>BOND
     1    22    20    1
     2    20    21    1
     3    20    19    2
     4    19    18    1
     5     1     2    1
     6    18    17    1
     7    48    49    2
     8    48    47    1
     9     2     3    1
    10     2     5    1
    11     4     3    2
    12    17    16    1
    13     6     5    1
    14     6     7    1
    15    47    50    1
    16    47    46    1
    17    50    51    1
    18   148   147    2
    19    66    64   ar
    20    65    64   ar
    21    52    51   ar
    22    52    54   ar
    23    16    13    1
    24    12    13    1
    25    64    63    1
    26    51    53   ar
    27     7     8    1
    28    78    77    1
    29    44    43    1
    30    54    56   ar
    31   147   146    1
    32   145   146    1
    33    76    77   ar
    34    76    74   ar
    35    13    14    1
    36    77    75   ar
    37    86    85    1
    38    45    43    1
    39    74    72   ar
    40    63    62    1
    41   146   149    1
    42     8     9    2
    43    43    42    2
    44    53    55   ar
    45    58    59    1
    46   149   150    1
    47    56    55   ar
    48    56    57    1
    49    75    73   ar
    50    14    23   am
    51    14    15    2
    52    72    73   ar
    53    72    71    1
    54    62    59    1
    55    85    84    1
    56    23    24    1
    57     9    10    1
    58     9    11    1
    59    59    60    1
    60    42    41    1
    61    71    68    1
    62    38    37    2
    63    37    36    1
    64   150   151    1
    65    41    40    1
    66    67    60   am
    67    67    68    1
    68    28    27    1
    69    36    35    1
    70    36    39    1
    71    60    61    2
    72    84    83    1
    73    68    69    1
    74    35    31   am
    75    24    27    1
    76    24    25    1
    77    34    33    1
    78   151   152    1
    79   143   142    1
    80    39    40    1
    81   136   133    1
    82    69    79   am
    83    69    70    2
    84    29    25   am
    85    29    30    1
    86    83    80    1
    87    25    26    2
    88   133   132    1
    89   133   134    1
    90    79    80    1
    91    31    30    1
    92    31    32    2
    93   152   153    2
    94   138   137    1
    95   138   141    1
    96   138   139    1
    97    30    33    1
    98   134   135    2
    99   142   141    1
   100   142   144    1
   101    80    81    1
   102   122   121    1
   103   139   140    2
   104    82    81    2
   105   119   120    1
   106   119   118    1
   107   121   120    2
   108   121   123    1
   109    81    87   am
   110   153   154    1
   111   153   155    1
   112   117   118    1
   113   117   114    1
   114   116   115    2
   115   115   114    1
   116    87    88    1
   117   105   104    2
   118   114   113    1
   119    89    88    1
   120    89    90    2
   121    98    97    2
   122    88    91    1
   123   104   103    1
   124   106   107    1
   125   106   103    1
   126   102   103    1
   127   101    99    1
   128   107   108    1
   129   112   110    1
   130    93    92    1
   131    97    96    1
   132   109   110    2
   133   109   108    1
   134    95    96    1
   135    91    92    1
   136   110   111    1
   137    92    94    1
   138    96    99    1
   139    99   100    1
   140   130   129    1
   141   129   131    1
   142   129   128    1
   143   125   128    1
   144   125   124    1
   145   125   126    1
   146   126   127    2
