@<TRIPOS>MOLECULE
tmp/3eggA00.pdb
 140 135 0 0 0
SMALL
GASTEIGER

@<TRIPOS>ATOM
      1  N        -20.2780  -20.7370  -12.1390 N.3    58  ASP58      -0.1239
      2  CA       -19.6750  -21.2690  -13.3690 C.3    58  ASP58       0.1674
      3  C        -18.7680  -20.2480  -14.0470 C.2    58  ASP58       0.2266
      4  O        -19.1070  -19.0560  -14.1090 O.2    58  ASP58      -0.2867
      5  CB       -20.7480  -21.6050  -14.4220 C.3    58  ASP58       0.1410
      6  CG       -21.7580  -22.6550  -13.9660 C.2    58  ASP58       0.3668
      7  OD1      -22.0720  -22.7350  -12.7690 O.co2  58  ASP58      -0.2456
      8  OD2      -22.2740  -23.3880  -14.8370 O.co2  58  ASP58      -0.2456
      9  N        -16.8810  -21.5970  -17.1710 N.3    60  HIS60      -0.1241
     10  CA       -16.9500  -22.1440  -18.5290 C.3    60  HIS60       0.1621
     11  C        -15.9310  -21.5570  -19.5200 C.2    60  HIS60       0.2264
     12  O        -16.2960  -21.1020  -20.6080 O.2    60  HIS60      -0.2867
     13  CB       -18.3800  -22.0570  -19.0740 C.3    60  HIS60       0.0745
     14  CG       -19.2820  -23.1020  -18.5100 C.ar   60  HIS60       0.0817
     15  ND1      -19.0470  -24.4480  -18.6950 N.ar   60  HIS60      -0.2268
     16  CD2      -20.3990  -23.0130  -17.7480 C.ar   60  HIS60       0.1154
     17  CE1      -19.9920  -25.1450  -18.0840 C.ar   60  HIS60       0.1986
     18  NE2      -20.8300  -24.2970  -17.5140 N.ar   60  HIS60      -0.2212
     19  N        -17.5840  -26.2370  -12.8610 N.3    86  ASP86      -0.1239
     20  CA       -17.8180  -25.8660  -14.2540 C.3    86  ASP86       0.1674
     21  C        -16.8360  -24.7920  -14.7560 C.2    86  ASP86       0.2266
     22  O        -17.2280  -23.7010  -15.2070 O.2    86  ASP86      -0.2867
     23  CB       -19.2660  -25.4690  -14.4940 C.3    86  ASP86       0.1410
     24  CG       -20.1850  -26.6750  -14.6710 C.2    86  ASP86       0.3668
     25  OD1      -19.7720  -27.8260  -14.3640 O.co2  86  ASP86      -0.2456
     26  OD2      -21.3250  -26.4760  -15.1380 O.co2  86  ASP86      -0.2456
     27  N        -17.4780  -25.0760  -23.4040 N.3    90  ARG90      -0.1245
     28  CA       -18.2830  -23.9680  -23.9700 C.3    90  ARG90       0.1563
     29  C        -17.4530  -22.7530  -24.3840 C.2    90  ARG90       0.2260
     30  O        -17.5930  -22.2630  -25.5160 O.2    90  ARG90      -0.2867
     31  CB       -19.4490  -23.5520  -23.0510 C.3    90  ARG90       0.0307
     32  CG       -20.3180  -24.7330  -22.5470 C.3    90  ARG90       0.0489
     33  CD       -21.6140  -24.9370  -23.2910 C.3    90  ARG90       0.2205
     34  NE       -22.2360  -26.2120  -22.9060 N.pl3  90  ARG90      -0.0865
     35  CZ       -23.2170  -26.3790  -22.0120 C.cat  90  ARG90       0.5346
     36  NH1      -23.7670  -25.3470  -21.3710 N.pl3  90  ARG90       0.1354
     37  NH2      -23.6670  -27.6030  -21.7670 N.pl3  90  ARG90       0.1354
     38  N        -20.5520  -30.4990  -12.8960 N.3   118  ASN118     -0.1225
     39  CA       -20.9210  -31.5750  -13.8070 C.3   118  ASN118      0.1785
     40  C        -20.0520  -31.6340  -15.0710 C.2   118  ASN118      0.2597
     41  O        -19.8930  -32.6920  -15.6670 O.2   118  ASN118     -0.2718
     42  CB       -22.4310  -31.5370  -14.1310 C.3   118  ASN118      0.1169
     43  CG       -22.8710  -30.2820  -14.8650 C.2   118  ASN118      0.2627
     44  OD1      -22.6560  -29.1380  -14.4340 O.2   118  ASN118     -0.2716
     45  ND2      -23.5790  -30.5010  -15.9730 N.am  118  ASN118     -0.0877
     46  N        -19.4590  -30.5030  -15.4490 N.am  119  HIS119     -0.1975
     47  CA       -18.5270  -30.4660  -16.5890 C.3   119  HIS119      0.1656
     48  C        -17.0940  -30.9360  -16.2630 C.2   119  HIS119      0.2291
     49  O        -16.2720  -31.1030  -17.1750 O.2   119  HIS119     -0.2864
     50  CB       -18.5140  -29.0760  -17.2430 C.3   119  HIS119      0.0771
     51  CG       -19.7320  -28.8040  -18.0680 C.ar  119  HIS119      0.0820
     52  ND1      -19.7370  -28.9080  -19.4400 N.ar  119  HIS119     -0.2267
     53  CD2      -20.9990  -28.4800  -17.7100 C.ar  119  HIS119      0.1154
     54  CE1      -20.9510  -28.6580  -19.8970 C.ar  119  HIS119      0.1986
     55  NE2      -21.7320  -28.3860  -18.8660 N.ar  119  HIS119     -0.2212
     56  N        -18.9050  -35.7060  -20.0700 N.3   124  ILE124     -0.1245
     57  CA       -19.4890  -34.4070  -20.3970 C.3   124  ILE124      0.1561
     58  C        -18.5080  -33.4920  -21.1560 C.2   124  ILE124      0.2260
     59  O        -18.8350  -32.9600  -22.2290 O.2   124  ILE124     -0.2867
     60  CB       -20.0500  -33.7040  -19.1190 C.3   124  ILE124      0.0252
     61  CG1      -21.1310  -34.5860  -18.4770 C.3   124  ILE124      0.0019
     62  CG2      -20.6020  -32.3060  -19.4460 C.3   124  ILE124      0.0019
     63  CD1      -22.3390  -34.8210  -19.3850 C.3   124  ILE124      0.0001
     64  N        -18.6300  -31.2130  -24.8090 N.3   128  TYR128     -0.1241
     65  CA       -18.9380  -29.7870  -24.7970 C.3   128  TYR128      0.1605
     66  C        -17.7560  -28.8320  -24.9440 C.2   128  TYR128      0.2264
     67  O        -17.8900  -27.6220  -24.7120 O.2   128  TYR128     -0.2867
     68  CB       -19.8390  -29.4410  -23.6030 C.3   128  TYR128      0.0534
     69  CG       -21.1980  -30.1120  -23.7280 C.ar  128  TYR128     -0.0201
     70  CD1      -22.0990  -29.7120  -24.7170 C.ar  128  TYR128     -0.0009
     71  CD2      -21.5630  -31.1690  -22.8970 C.ar  128  TYR128     -0.0009
     72  CE1      -23.3450  -30.3360  -24.8580 C.ar  128  TYR128      0.0417
     73  CE2      -22.8210  -31.8010  -23.0310 C.ar  128  TYR128      0.0417
     74  CZ       -23.6960  -31.3720  -24.0090 C.ar  128  TYR128      0.1957
     75  OH       -24.9460  -31.9730  -24.1820 O.3   128  TYR128     -0.2866
     76  N        -25.8500  -32.1870  -10.5510 N.3   200  TRP200     -0.1241
     77  CA       -26.8100  -32.0740  -11.6680 C.3   200  TRP200      0.1605
     78  C        -28.1900  -31.4840  -11.3560 C.2   200  TRP200      0.2264
     79  O        -28.8670  -30.9940  -12.2710 O.2   200  TRP200     -0.2867
     80  CB       -27.0020  -33.4500  -12.3170 C.3   200  TRP200      0.0550
     81  CG       -25.9190  -33.8100  -13.3200 C.ar  200  TRP200      0.0003
     82  CD1      -24.7850  -34.5360  -13.0880 C.ar  200  TRP200      0.0946
     83  CD2      -25.8890  -33.4600  -14.7090 C.ar  200  TRP200      0.0152
     84  NE1      -24.0570  -34.6700  -14.2530 N.ar  200  TRP200     -0.2442
     85  CE2      -24.7060  -34.0050  -15.2560 C.ar  200  TRP200      0.0810
     86  CE3      -26.7450  -32.7310  -15.5400 C.ar  200  TRP200      0.0012
     87  CZ2      -24.3580  -33.8460  -16.6040 C.ar  200  TRP200      0.0191
     88  CZ3      -26.4090  -32.5820  -16.8770 C.ar  200  TRP200      0.0001
     89  CH2      -25.2190  -33.1330  -17.3940 C.ar  200  TRP200      0.0015
     90  N        -33.1540  -31.7150  -18.1330 N.3   215  ARG215     -0.1245
     91  CA       -31.8110  -32.0370  -18.6180 C.3   215  ARG215      0.1563
     92  C        -31.6510  -33.5080  -19.0070 C.2   215  ARG215      0.2260
     93  O        -30.7040  -33.8570  -19.7180 O.2   215  ARG215     -0.2867
     94  CB       -30.7590  -31.7260  -17.5460 C.3   215  ARG215      0.0307
     95  CG       -30.6400  -30.2740  -17.1240 C.3   215  ARG215      0.0489
     96  CD       -29.6400  -30.1950  -15.9670 C.3   215  ARG215      0.2205
     97  NE       -29.6290  -28.8940  -15.3110 N.pl3 215  ARG215     -0.0865
     98  CZ       -28.8290  -27.8900  -15.6580 C.cat 215  ARG215      0.5346
     99  NH1      -27.9800  -28.0300  -16.6690 N.pl3 215  ARG215      0.1354
    100  NH2      -28.8750  -26.7470  -14.9870 N.pl3 215  ARG215      0.1354
    101  N        -31.1860  -35.8490  -16.7610 N.3   217  VAL217     -0.1245
    102  CA       -30.2920  -36.3620  -15.7260 C.3   217  VAL217      0.1561
    103  C        -30.8010  -35.8140  -14.3950 C.2   217  VAL217      0.2260
    104  O        -31.2000  -34.6500  -14.3120 O.2   217  VAL217     -0.2867
    105  CB       -28.8300  -35.8730  -15.9510 C.3   217  VAL217      0.0252
    106  CG1      -27.8840  -36.5010  -14.9430 C.3   217  VAL217      0.0019
    107  CG2      -28.3580  -36.1630  -17.3980 C.3   217  VAL217      0.0019
    108  N        -24.7110  -23.6870  -11.6200 N.3   242  HIS242     -0.1241
    109  CA       -25.2550  -24.6990  -12.5450 C.3   242  HIS242      0.1621
    110  C        -26.3960  -24.1820  -13.4610 C.2   242  HIS242      0.2264
    111  O        -26.7280  -24.8360  -14.4450 O.2   242  HIS242     -0.2867
    112  CB       -25.6480  -25.9560  -11.7350 C.3   242  HIS242      0.0745
    113  CG       -26.1440  -27.1350  -12.5310 C.ar  242  HIS242      0.0817
    114  ND1      -25.4130  -27.7490  -13.5260 N.ar  242  HIS242     -0.2268
    115  CD2      -27.2510  -27.9000  -12.3610 C.ar  242  HIS242      0.1154
    116  CE1      -26.0680  -28.8050  -13.9710 C.ar  242  HIS242      0.1986
    117  NE2      -27.1990  -28.9080  -13.2930 N.ar  242  HIS242     -0.2212
    118  N        -23.8520  -17.5240  -10.7200 N.3   261  PHE261     -0.1241
    119  CA       -23.3280  -17.8230  -12.0310 C.3   261  PHE261      0.1605
    120  C        -22.3230  -16.7130  -12.3460 C.2   261  PHE261      0.2264
    121  O        -22.6350  -15.5250  -12.2020 O.2   261  PHE261     -0.2867
    122  CB       -24.4750  -17.8520  -13.0620 C.3   261  PHE261      0.0534
    123  CG       -24.1070  -18.5400  -14.3360 C.ar  261  PHE261     -0.0203
    124  CD1      -23.6680  -17.8050  -15.4280 C.ar  261  PHE261     -0.0042
    125  CD2      -24.1600  -19.9220  -14.4360 C.ar  261  PHE261     -0.0042
    126  CE1      -23.3140  -18.4210  -16.6080 C.ar  261  PHE261     -0.0003
    127  CE2      -23.8100  -20.5540  -15.6310 C.ar  261  PHE261     -0.0003
    128  CZ       -23.3820  -19.8080  -16.7130 C.ar  261  PHE261     -0.0000
    129  N        -23.0450  -15.4570  -21.1110 N.3   266  TYR266     -0.1241
    130  CA       -22.6320  -16.8480  -21.1970 C.3   266  TYR266      0.1605
    131  C        -22.5710  -17.3640  -22.6340 C.2   266  TYR266      0.2264
    132  O        -23.5810  -17.3830  -23.3530 O.2   266  TYR266     -0.2867
    133  CB       -23.5290  -17.7180  -20.3090 C.3   266  TYR266      0.0534
    134  CG       -23.2690  -19.2120  -20.3590 C.ar  266  TYR266     -0.0201
    135  CD1      -21.9750  -19.7230  -20.3090 C.ar  266  TYR266     -0.0009
    136  CD2      -24.3330  -20.1170  -20.4370 C.ar  266  TYR266     -0.0009
    137  CE1      -21.7390  -21.1030  -20.3510 C.ar  266  TYR266      0.0417
    138  CE2      -24.1080  -21.5010  -20.4560 C.ar  266  TYR266      0.0417
    139  CZ       -22.8140  -21.9810  -20.4180 C.ar  266  TYR266      0.1957
    140  OH       -22.5710  -23.3360  -20.4520 O.3   266  TYR266     -0.2866
@<TRIPOS>BOND
     1    30    29    2
     2    66    65    1
     3    66    67    2
     4    72    70   ar
     5    72    74   ar
     6    64    65    1
     7    65    68    1
     8    70    69   ar
     9    29    28    1
    10    75    74    1
    11    74    73   ar
    12    28    27    1
    13    28    31    1
    14    69    68    1
    15    69    71   ar
    16   132   131    2
    17    33    34    1
    18    33    32    1
    19    31    32    1
    20    73    71   ar
    21    34    35    2
    22   131   130    1
    23    59    58    2
    24    35    37    1
    25    35    36    1
    26   130   129    1
    27   130   133    1
    28    58    57    1
    29    12    11    2
    30   138   136   ar
    31   138   139   ar
    32   140   139    1
    33   136   134   ar
    34   139   137   ar
    35    57    56    1
    36    57    60    1
    37   134   135   ar
    38   134   133    1
    39   137   135   ar
    40    54    52   ar
    41    54    55   ar
    42    93    92    2
    43    11    10    1
    44    62    60    1
    45    52    51   ar
    46    63    61    1
    47    60    61    1
    48    13    10    1
    49    13    14    1
    50    92    91    1
    51    55    53   ar
    52    15    14   ar
    53    15    17   ar
    54    91    90    1
    55    91    94    1
    56    10     9    1
    57    14    16   ar
    58    17    18   ar
    59    51    53   ar
    60    51    50    1
    61    16    18   ar
    62    94    95    1
    63   107   105    1
    64    89    88   ar
    65    89    87   ar
    66    50    47    1
    67    49    48    2
    68    95    96    1
    69    88    86   ar
    70   101   102    1
    71   128   126   ar
    72   128   127   ar
    73    99    98    1
    74   126   124   ar
    75    87    85   ar
    76    47    48    1
    77    47    46    1
    78    45    43   am
    79    96    97    1
    80   105   102    1
    81   105   106    1
    82   102   103    1
    83    41    40    2
    84    98    97    2
    85    98   100    1
    86   127   125   ar
    87    86    83   ar
    88    46    40   am
    89   124   123   ar
    90    85    83   ar
    91    85    84   ar
    92    22    21    2
    93    26    24   ar
    94    40    39    1
    95    43    44    2
    96    43    42    1
    97     8     6   ar
    98    21    20    1
    99    83    81   ar
   100    24    23    1
   101    24    25   ar
   102    23    20    1
   103   111   110    2
   104   125   123   ar
   105     5     6    1
   106     5     2    1
   107   103   104    2
   108   123   122    1
   109    20    19    1
   110    84    82   ar
   111    42    39    1
   112     4     3    2
   113     3     2    1
   114   116   114   ar
   115   116   117   ar
   116     6     7   ar
   117    39    38    1
   118   114   113   ar
   119   110   109    1
   120     2     1    1
   121    81    82   ar
   122    81    80    1
   123   117   115   ar
   124   122   119    1
   125   109   112    1
   126   109   108    1
   127   113   115   ar
   128   113   112    1
   129   120   121    2
   130   120   119    1
   131    80    77    1
   132    79    78    2
   133   119   118    1
   134    77    78    1
   135    77    76    1
