@<TRIPOS>MOLECULE
tmp/3egiC00.pdb
 139 139 0 0 0
SMALL
GASTEIGER

@<TRIPOS>ATOM
      1  N         37.4220   -5.0200   -3.0960 N.3    49  ALA49      -0.1231
      2  CA        37.7990   -5.8380   -1.9330 C.3    49  ALA49       0.1694
      3  C         39.2110   -6.4400   -1.9270 C.2    49  ALA49       0.2592
      4  O         39.7500   -6.7470   -0.8550 O.2    49  ALA49      -0.2718
      5  CB        36.7600   -6.9350   -1.7290 C.3    49  ALA49       0.0304
      6  N         39.7800   -6.6370   -3.1200 N.am   50  PHE50      -0.1976
      7  CA        41.1270   -7.2060   -3.3100 C.3    50  PHE50       0.1639
      8  C         41.7480   -6.3770   -4.4200 C.2    50  PHE50       0.2290
      9  O         41.8430   -6.8300   -5.5680 O.2    50  PHE50      -0.2864
     10  CB        41.0620   -8.7010   -3.7270 C.3    50  PHE50       0.0560
     11  CG        40.3150   -9.5820   -2.7420 C.ar   50  PHE50      -0.0200
     12  CD1       41.0000  -10.3160   -1.7940 C.ar   50  PHE50      -0.0042
     13  CD2       38.9330   -9.6530   -2.7600 C.ar   50  PHE50      -0.0042
     14  CE1       40.3340  -11.1090   -0.8650 C.ar   50  PHE50      -0.0003
     15  CE2       38.2530  -10.4390   -1.8340 C.ar   50  PHE50      -0.0003
     16  CZ        38.9620  -11.1710   -0.8840 C.ar   50  PHE50      -0.0000
     17  N         44.6290   -5.1010   -5.3540 N.3    52  GLY52      -0.1225
     18  CA        45.9800   -5.1620   -5.9460 C.3    52  GLY52       0.1811
     19  C         46.6150   -3.7840   -6.1220 C.2    52  GLY52       0.2280
     20  O         46.5040   -2.9280   -5.2350 O.2    52  GLY52      -0.2866
     21  N         40.7950   -2.0650   -0.8720 N.3    69  ILE69      -0.1231
     22  CA        41.3680   -2.8510    0.2060 C.3    69  ILE69       0.1692
     23  C         42.3140   -3.9140   -0.3300 C.2    69  ILE69       0.2592
     24  O         41.9960   -4.6120   -1.2990 O.2    69  ILE69      -0.2718
     25  CB        40.2480   -3.5030    1.0880 C.3    69  ILE69       0.0266
     26  CG1       39.4000   -2.4190    1.7790 C.3    69  ILE69       0.0019
     27  CG2       40.8500   -4.4670    2.1190 C.3    69  ILE69       0.0020
     28  CD1       38.1130   -2.9380    2.4240 C.3    69  ILE69       0.0001
     29  N         43.4900   -4.0190    0.2860 N.am   70  ASP70      -0.1960
     30  CA        44.4140   -5.1060   -0.0070 C.3    70  ASP70       0.1840
     31  C         45.2510   -5.3880    1.2210 C.2    70  ASP70       0.2622
     32  O         45.6980   -4.4640    1.8980 O.2    70  ASP70      -0.2715
     33  CB        45.3280   -4.7660   -1.1870 C.3    70  ASP70       0.1450
     34  CG        45.8520   -6.0140   -1.8870 C.2    70  ASP70       0.3671
     35  OD1       46.7210   -6.7260   -1.3220 O.co2  70  ASP70      -0.2456
     36  OD2       45.3650   -6.2870   -3.0010 O.co2  70  ASP70      -0.2456
     37  N         45.4710   -6.6650    1.4940 N.am   71  ILE71      -0.1963
     38  CA        46.1970   -7.1100    2.6720 C.3    71  ILE71       0.1727
     39  C         47.7180   -6.8510    2.5530 C.2    71  ILE71       0.2616
     40  O         48.4470   -6.9110    3.5380 O.2    71  ILE71      -0.2715
     41  CB        45.8900   -8.6190    2.9310 C.3    71  ILE71       0.0290
     42  CG1       46.0810   -8.9860    4.4120 C.3    71  ILE71       0.0022
     43  CG2       46.7200   -9.5190    1.9940 C.3    71  ILE71       0.0023
     44  CD1       45.5780  -10.3960    4.7970 C.3    71  ILE71       0.0001
     45  N         48.1850   -6.5770    1.3390 N.am   72  ASP72      -0.1971
     46  CA        49.6010   -6.4080    1.0360 C.3    72  ASP72       0.1709
     47  C         49.9600   -4.9210    0.9860 C.2    72  ASP72       0.2293
     48  O         49.4360   -4.1900    0.1560 O.2    72  ASP72      -0.2864
     49  CB        49.8960   -7.0950   -0.3020 C.3    72  ASP72       0.1436
     50  CG        51.3850   -7.1830   -0.6290 C.2    72  ASP72       0.3671
     51  OD1       52.2100   -6.6200    0.0940 O.co2  72  ASP72      -0.2456
     52  OD2       51.7250   -7.8270   -1.6400 O.co2  72  ASP72      -0.2456
     53  N         51.2030   -3.6400   -2.4940 N.3    75  LYS75      -0.1245
     54  CA        50.1380   -3.3990   -3.4590 C.3    75  LYS75       0.1561
     55  C         49.4780   -2.0380   -3.2140 C.2    75  LYS75       0.2260
     56  O         49.2780   -1.2680   -4.1560 O.2    75  LYS75      -0.2867
     57  CB        49.1040   -4.5220   -3.3800 C.3    75  LYS75       0.0271
     58  CG        49.6380   -5.9100   -3.7860 C.3    75  LYS75       0.0035
     59  CD        49.8890   -5.9770   -5.2760 C.3    75  LYS75       0.0206
     60  CE        50.5660   -7.2760   -5.6980 C.3    75  LYS75       0.1093
     61  NZ        49.6800   -8.4270   -5.4070 N.3    75  LYS75      -0.1314
     62  N         44.6160   -4.0090    4.7240 N.3    97  GLY97      -0.1210
     63  CA        44.0450   -4.9250    5.7030 C.3    97  GLY97       0.1956
     64  C         43.3390   -6.1180    5.0710 C.2    97  GLY97       0.2612
     65  O         43.2570   -6.2380    3.8460 O.2    97  GLY97      -0.2717
     66  N         42.8210   -6.9940    5.9200 N.am   98  ASP98      -0.1959
     67  CA        42.0760   -8.1710    5.5010 C.3    98  ASP98       0.1840
     68  C         40.6160   -7.8030    5.2270 C.2    98  ASP98       0.2622
     69  O         39.9150   -7.3550    6.1350 O.2    98  ASP98      -0.2715
     70  CB        42.1500   -9.2290    6.6170 C.3    98  ASP98       0.1450
     71  CG        41.6430  -10.6040    6.1770 C.2    98  ASP98       0.3671
     72  OD1       40.8360  -10.7090    5.2260 O.co2  98  ASP98      -0.2456
     73  OD2       42.0520  -11.5850    6.8130 O.co2  98  ASP98      -0.2456
     74  N         40.1630   -7.9850    3.9850 N.am   99  PHE99      -0.1960
     75  CA        38.7650   -7.6980    3.6200 C.3    99  PHE99       0.1771
     76  C         37.7720   -8.3580    4.5650 C.2    99  PHE99       0.2619
     77  O         36.8040   -7.7320    4.9670 O.2    99  PHE99      -0.2715
     78  CB        38.4210   -8.1200    2.1750 C.3    99  PHE99       0.0574
     79  CG        36.9420   -7.9550    1.8360 C.ar   99  PHE99      -0.0200
     80  CD1       36.3680   -6.6870    1.7540 C.ar   99  PHE99      -0.0042
     81  CD2       36.1250   -9.0700    1.6300 C.ar   99  PHE99      -0.0042
     82  CE1       35.0110   -6.5250    1.4500 C.ar   99  PHE99      -0.0003
     83  CE2       34.7620   -8.9230    1.3260 C.ar   99  PHE99      -0.0003
     84  CZ        34.2060   -7.6500    1.2360 C.ar   99  PHE99      -0.0000
     85  N         38.0190   -9.6170    4.9190 N.am  100  LEU100     -0.1977
     86  CA        37.0860  -10.3720    5.7580 C.3   100  LEU100      0.1596
     87  C         36.9230   -9.7610    7.1460 C.2   100  LEU100      0.2287
     88  O         35.8540   -9.8730    7.7550 O.2   100  LEU100     -0.2864
     89  CB        37.5230  -11.8380    5.8890 C.3   100  LEU100      0.0297
     90  CG        37.5770  -12.7400    4.6440 C.3   100  LEU100      0.0022
     91  CD1       37.8910  -14.1570    5.0730 C.3   100  LEU100      0.0001
     92  CD2       36.2730  -12.7320    3.8780 C.3   100  LEU100      0.0001
     93  N         37.1160   -9.7300   -6.7640 N.3   114  SER114     -0.1203
     94  CA        38.0190  -10.4810   -7.6250 C.3   114  SER114      0.2005
     95  C         39.0670  -11.1620   -6.7430 C.2   114  SER114      0.2461
     96  O         40.2200  -10.7700   -6.7380 O.2   114  SER114     -0.2732
     97  CB        38.6690   -9.5520   -8.6520 C.3   114  SER114      0.2103
     98  OG        39.3850  -10.2880   -9.6170 O.3   114  SER114     -0.2182
     99  N         38.6490  -12.1880   -5.9810 N.am  115  PRO115     -0.2718
    100  CA        39.4780  -12.8590   -4.9820 C.3   115  PRO115      0.1520
    101  C         40.6480  -13.6170   -5.5920 C.2   115  PRO115      0.2440
    102  O         40.6620  -13.8360   -6.7950 O.2   115  PRO115     -0.2731
    103  CB        38.5010  -13.8550   -4.3340 C.3   115  PRO115      0.0310
    104  CG        37.1550  -13.3520   -4.6720 C.3   115  PRO115      0.0237
    105  CD        37.3070  -12.7940   -6.0400 C.3   115  PRO115      0.0939
    106  N         41.6380  -13.9990   -4.7670 N.am  116  PRO116     -0.2716
    107  CA        42.7070  -14.9050   -5.1990 C.3   116  PRO116      0.1536
    108  C         42.1610  -16.2980   -5.5390 C.2   116  PRO116      0.2598
    109  O         41.4130  -16.8760   -4.7400 O.2   116  PRO116     -0.2715
    110  CB        43.6110  -14.9980   -3.9640 C.3   116  PRO116      0.0310
    111  CG        43.2620  -13.8230   -3.1220 C.3   116  PRO116      0.0237
    112  CD        41.8160  -13.5630   -3.3690 C.3   116  PRO116      0.0939
    113  N         42.5200  -16.8210   -6.7140 N.am  117  TRP117     -0.1974
    114  CA        42.0630  -18.1550   -7.1530 C.3   117  TRP117      0.1640
    115  C         43.0880  -19.2150   -6.7520 C.2   117  TRP117      0.2290
    116  O         43.7170  -19.1230   -5.6820 O.2   117  TRP117     -0.2864
    117  CB        41.7590  -18.2130   -8.6750 C.3   117  TRP117      0.0576
    118  CG        40.8070  -17.1230   -9.1860 C.ar  117  TRP117      0.0006
    119  CD1       40.0290  -16.2960   -8.4220 C.ar  117  TRP117      0.0946
    120  CD2       40.5320  -16.7640  -10.5580 C.ar  117  TRP117      0.0152
    121  NE1       39.3020  -15.4330   -9.2200 N.ar  117  TRP117     -0.2442
    122  CE2       39.5860  -15.6970  -10.5330 C.ar  117  TRP117      0.0810
    123  CE3       40.9930  -17.2280  -11.8000 C.ar  117  TRP117      0.0012
    124  CZ2       39.0920  -15.0880  -11.7070 C.ar  117  TRP117      0.0191
    125  CZ3       40.5000  -16.6200  -12.9740 C.ar  117  TRP117      0.0001
    126  CH2       39.5570  -15.5620  -12.9130 C.ar  117  TRP117      0.0015
    127  N         41.0960  -18.6950   -2.0390 N.3   126  SER126     -0.1203
    128  CA        41.6390  -18.3980   -0.7190 C.3   126  SER126      0.2005
    129  C         41.5540  -16.8820   -0.4860 C.2   126  SER126      0.2460
    130  O         42.2270  -16.1050   -1.1690 O.2   126  SER126     -0.2732
    131  CB        43.0800  -18.9050   -0.5970 C.3   126  SER126      0.2103
    132  OG        43.6180  -18.6530    0.6910 O.3   126  SER126     -0.2182
    133  N         40.7030  -16.4520    0.4660 N.am  127  PRO127     -0.2728
    134  CA        39.8450  -17.2980    1.3060 C.3   127  PRO127      0.1401
    135  C         38.5640  -17.7910    0.6100 C.2   127  PRO127      0.2269
    136  O         38.2340  -17.3380   -0.4870 O.2   127  PRO127     -0.2865
    137  CB        39.4920  -16.3680    2.4710 C.3   127  PRO127      0.0296
    138  CG        39.5010  -15.0050    1.8760 C.3   127  PRO127      0.0237
    139  CD        40.5490  -15.0170    0.7860 C.3   127  PRO127      0.0939
@<TRIPOS>BOND
     1   125   126   ar
     2   125   123   ar
     3   126   124   ar
     4   123   120   ar
     5   124   122   ar
     6   120   122   ar
     7   120   118   ar
     8   122   121   ar
     9    98    97    1
    10   121   119   ar
    11   118   117    1
    12   118   119   ar
    13   117   114    1
    14    97    94    1
    15    94    93    1
    16    94    95    1
    17   114   115    1
    18   114   113    1
    19   102   101    2
    20   115   116    2
    21    95    96    2
    22    95    99   am
    23   113   108   am
    24    19    18    1
    25    19    20    2
    26   105    99    1
    27   105   104    1
    28    99   100    1
    29    18    17    1
    30    60    61    1
    31    60    59    1
    32   101   100    1
    33   101   106   am
    34     9     8    2
    35   108   107    1
    36   108   109    2
    37    59    58    1
    38   107   106    1
    39   107   110    1
    40   100   103    1
    41   106   112    1
    42   104   103    1
    43     8     7    1
    44    56    55    2
    45   110   111    1
    46    58    57    1
    47    10     7    1
    48    10    11    1
    49    54    57    1
    50    54    55    1
    51    54    53    1
    52   112   111    1
    53     7     6    1
    54     6     3   am
    55     1     2    1
    56    36    34   ar
    57    13    11   ar
    58    13    15   ar
    59    11    12   ar
    60   127   128    1
    61     2     3    1
    62     2     5    1
    63     3     4    2
    64    34    35   ar
    65    34    33    1
    66    15    16   ar
    67    12    14   ar
    68    52    50   ar
    69    24    23    2
    70    33    30    1
    71   130   129    2
    72    16    14   ar
    73    21    22    1
    74   128   131    1
    75   128   129    1
    76    50    49    1
    77    50    51   ar
    78   131   132    1
    79   136   135    2
    80   129   133   am
    81    23    22    1
    82    23    29   am
    83    49    46    1
    84    30    29    1
    85    30    31    1
    86    48    47    2
    87    22    25    1
    88   133   139    1
    89   133   134    1
    90   135   134    1
    91   139   138    1
    92    47    46    1
    93    46    45    1
    94    25    26    1
    95    25    27    1
    96    31    37   am
    97    31    32    2
    98    84    83   ar
    99    84    82   ar
   100   134   137    1
   101    83    81   ar
   102    45    39   am
   103    82    80   ar
   104    37    38    1
   105    81    79   ar
   106    80    79   ar
   107    26    28    1
   108    79    78    1
   109   138   137    1
   110    43    41    1
   111    78    75    1
   112    39    38    1
   113    39    40    2
   114    38    41    1
   115    41    42    1
   116    75    74    1
   117    75    76    1
   118    65    64    2
   119    92    90    1
   120    74    68   am
   121    42    44    1
   122    76    85   am
   123    76    77    2
   124    90    91    1
   125    90    89    1
   126    62    63    1
   127    85    86    1
   128    64    63    1
   129    64    66   am
   130    72    71   ar
   131    68    67    1
   132    68    69    2
   133    67    66    1
   134    67    70    1
   135    86    89    1
   136    86    87    1
   137    71    70    1
   138    71    73   ar
   139    87    88    2
