@<TRIPOS>MOLECULE
tmp/3egkB01.pdb
 194 195 0 0 0
SMALL
GASTEIGER

@<TRIPOS>ATOM
      1  N         22.5960   -6.0340   18.2500 N.3    43  HIS43      -0.1241
      2  CA        22.3890   -7.4100   17.8100 C.3    43  HIS43       0.1621
      3  C         21.6770   -7.4900   16.4620 C.2    43  HIS43       0.2264
      4  O         21.7210   -8.5700   15.8600 O.2    43  HIS43      -0.2867
      5  CB        21.6180   -8.2270   18.8420 C.3    43  HIS43       0.0745
      6  CG        20.1330   -8.3370   18.8240 C.ar   43  HIS43       0.0817
      7  ND1       19.3410   -7.6920   19.7540 N.ar   43  HIS43      -0.2268
      8  CD2       19.2450   -9.0290   18.0600 C.ar   43  HIS43       0.1154
      9  CE1       18.0590   -7.9600   19.5490 C.ar   43  HIS43       0.1986
     10  NE2       17.9790   -8.7730   18.5110 N.ar   43  HIS43      -0.2212
     11  N         25.8140  -10.0290   15.3940 N.3    47  TYR47      -0.1241
     12  CA        25.5340  -11.1040   16.3320 C.3    47  TYR47       0.1605
     13  C         26.1270  -12.4110   15.8060 C.2    47  TYR47       0.2264
     14  O         25.4440  -13.2860   15.2770 O.2    47  TYR47      -0.2867
     15  CB        24.0320  -11.2550   16.5740 C.3    47  TYR47       0.0534
     16  CG        23.7420  -12.2350   17.6880 C.ar   47  TYR47      -0.0201
     17  CD1       24.1120  -11.9390   18.9910 C.ar   47  TYR47      -0.0009
     18  CD2       23.1110  -13.4390   17.4280 C.ar   47  TYR47      -0.0009
     19  CE1       23.8520  -12.8310   20.0160 C.ar   47  TYR47       0.0417
     20  CE2       22.8460  -14.3390   18.4450 C.ar   47  TYR47       0.0417
     21  CZ        23.2220  -14.0210   19.7340 C.ar   47  TYR47       0.1957
     22  OH        22.9700  -14.9060   20.7510 O.3    47  TYR47      -0.2866
     23  N         24.8800  -16.1350   15.1540 N.3    50  TRP50      -0.1241
     24  CA        23.9340  -16.5370   14.1090 C.3    50  TRP50       0.1605
     25  C         24.4500  -16.1110   12.7410 C.2    50  TRP50       0.2264
     26  O         23.6730  -15.9290   11.8040 O.2    50  TRP50      -0.2867
     27  CB        22.5470  -15.9460   14.3300 C.3    50  TRP50       0.0550
     28  CG        21.8200  -16.4690   15.5260 C.ar   50  TRP50       0.0003
     29  CD1       22.1530  -17.5240   16.3260 C.ar   50  TRP50       0.0946
     30  CD2       20.6000  -15.9290   16.0630 C.ar   50  TRP50       0.0152
     31  NE1       21.2170  -17.6770   17.3250 N.ar   50  TRP50      -0.2442
     32  CE2       20.2560  -16.7090   17.1820 C.ar   50  TRP50       0.0810
     33  CE3       19.7820  -14.8610   15.6910 C.ar   50  TRP50       0.0012
     34  CZ2       19.1150  -16.4500   17.9410 C.ar   50  TRP50       0.0191
     35  CZ3       18.6520  -14.6060   16.4440 C.ar   50  TRP50       0.0001
     36  CH2       18.3310  -15.3970   17.5540 C.ar   50  TRP50       0.0015
     37  N         27.9830   -9.2250   22.8610 N.3    92  TRP92      -0.1241
     38  CA        27.1720  -10.2250   22.1640 C.3    92  TRP92       0.1605
     39  C         27.4880  -11.6170   22.7030 C.2    92  TRP92       0.2264
     40  O         26.6530  -12.5270   22.6890 O.2    92  TRP92      -0.2867
     41  CB        27.3940  -10.1450   20.6570 C.3    92  TRP92       0.0550
     42  CG        28.8430  -10.2250   20.2690 C.ar   92  TRP92       0.0003
     43  CD1       29.7060   -9.1950   20.0340 C.ar   92  TRP92       0.0946
     44  CD2       29.5930  -11.4240   20.0720 C.ar   92  TRP92       0.0152
     45  NE1       30.9460   -9.6730   19.7080 N.ar   92  TRP92      -0.2442
     46  CE2       30.9020  -11.0440   19.7210 C.ar   92  TRP92       0.0810
     47  CE3       29.2660  -12.7790   20.1660 C.ar   92  TRP92       0.0012
     48  CZ2       31.9050  -11.9810   19.4540 C.ar   92  TRP92       0.0191
     49  CZ3       30.2660  -13.7000   19.8980 C.ar   92  TRP92       0.0001
     50  CH2       31.5630  -13.3010   19.5480 C.ar   92  TRP92       0.0015
     51  N         27.9180  -12.8620   25.7820 N.3    94  GLU94      -0.1231
     52  CA        27.2740  -13.4200   26.9680 C.3    94  GLU94       0.1699
     53  C         25.8210  -13.0170   27.1190 C.2    94  GLU94       0.2592
     54  O         24.9440  -13.8820   27.1980 O.2    94  GLU94      -0.2718
     55  CB        28.0860  -12.9990   28.2040 C.3    94  GLU94       0.0402
     56  CG        27.4200  -13.3820   29.5110 C.3    94  GLU94       0.1161
     57  CD        27.9950  -12.6920   30.7310 C.2    94  GLU94       0.3649
     58  OE1       28.9000  -11.8380   30.5940 O.co2  94  GLU94      -0.2457
     59  OE2       27.5330  -13.0080   31.8530 O.co2  94  GLU94      -0.2457
     60  N         25.4920  -11.7240   27.1760 N.am   95  ASN95      -0.1960
     61  CA        24.1050  -11.3850   27.5020 C.3    95  ASN95       0.1819
     62  C         23.5480  -10.1540   26.8080 C.2    95  ASN95       0.2621
     63  O         22.5140   -9.6400   27.2600 O.2    95  ASN95      -0.2715
     64  CB        24.0260  -11.1770   29.0230 C.3    95  ASN95       0.1195
     65  CG        25.0390  -10.1420   29.4820 C.2    95  ASN95       0.2630
     66  OD1       25.8390   -9.6210   28.6910 O.2    95  ASN95      -0.2716
     67  ND2       25.0060   -9.8230   30.7700 N.am   95  ASN95      -0.0877
     68  N         24.1560   -9.6550   25.7430 N.am   96  LEU96      -0.1977
     69  CA        23.6740   -8.4810   25.0170 C.3    96  LEU96       0.1596
     70  C         23.6740   -7.2470   25.9090 C.2    96  LEU96       0.2287
     71  O         22.9310   -6.2810   25.7440 O.2    96  LEU96      -0.2864
     72  CB        22.2820   -8.7070   24.4190 C.3    96  LEU96       0.0297
     73  CG        22.2680   -9.3180   23.0140 C.3    96  LEU96       0.0022
     74  CD1       23.4590  -10.2430   22.7990 C.3    96  LEU96       0.0001
     75  CD2       20.9660  -10.0770   22.7660 C.3    96  LEU96       0.0001
     76  N         20.1830  -16.0960   32.9960 N.3   170  ILE170     -0.1245
     77  CA        21.1530  -15.1730   32.4080 C.3   170  ILE170      0.1561
     78  C         21.3910  -13.9760   33.3160 C.2   170  ILE170      0.2260
     79  O         20.4660  -13.4670   33.9560 O.2   170  ILE170     -0.2867
     80  CB        20.6650  -14.7260   31.0180 C.3   170  ILE170      0.0252
     81  CG1       20.9330  -15.7780   29.9300 C.3   170  ILE170      0.0019
     82  CG2       21.2440  -13.3810   30.6110 C.3   170  ILE170      0.0019
     83  CD1       20.2280  -15.4830   28.6280 C.3   170  ILE170      0.0001
     84  N          3.8160   -9.0310   24.6960 N.3   190  ASP190     -0.1225
     85  CA         5.2800   -8.9920   24.7720 C.3   190  ASP190      0.1805
     86  C          5.8290   -8.5730   23.4180 C.2   190  ASP190      0.2598
     87  O          5.0950   -8.5650   22.4230 O.2   190  ASP190     -0.2718
     88  CB         5.8000  -10.3600   25.1880 C.3   190  ASP190      0.1424
     89  CG         7.2900  -10.5110   25.3340 C.2   190  ASP190      0.3668
     90  OD1        8.0570   -9.5290   25.2970 O.co2 190  ASP190     -0.2456
     91  OD2        7.7340  -11.6700   25.5090 O.co2 190  ASP190     -0.2456
     92  N          7.1090   -8.2230   23.3990 N.am  191  ALA191     -0.1966
     93  CA         7.8070   -8.1000   22.1310 C.3   191  ALA191      0.1728
     94  C          8.0800   -9.5300   21.6590 C.2   191  ALA191      0.2616
     95  O          7.9050  -10.4750   22.4380 O.2   191  ALA191     -0.2715
     96  CB         9.0710   -7.2830   22.2670 C.3   191  ALA191      0.0334
     97  N          8.4910   -9.7040   20.4180 N.am  192  CYS192     -0.1954
     98  CA         8.8580  -11.0180   19.9060 C.3   192  CYS192      0.1843
     99  C          9.8630  -10.8300   18.7680 C.2   192  CYS192      0.2625
    100  O         10.2060   -9.6920   18.4550 O.2   192  CYS192     -0.2714
    101  CB         7.6500  -11.8130   19.4150 C.3   192  CYS192      0.0997
    102  SG         7.9030  -13.5950   19.2590 S.3   192  CYS192     -0.0797
    103  N         10.2960  -11.9420   18.1920 N.am  193  GLU193     -0.1977
    104  CA        11.2380  -11.8950   17.0820 C.3   193  GLU193      0.1602
    105  C         10.7370  -10.9390   16.0060 C.2   193  GLU193      0.2287
    106  O          9.5960  -11.0450   15.5440 O.2   193  GLU193     -0.2864
    107  CB        11.4480  -13.2970   16.5310 C.3   193  GLU193      0.0415
    108  CG        11.8350  -14.2510   17.6550 C.3   193  GLU193      0.1163
    109  CD        13.2620  -14.1340   18.1190 C.2   193  GLU193      0.3649
    110  OE1       13.9820  -13.3080   17.5540 O.co2 193  GLU193     -0.2457
    111  OE2       13.6700  -14.8800   19.0610 O.co2 193  GLU193     -0.2457
    112  N         12.7940   -6.4090   17.7210 N.3   196  SER196     -0.1217
    113  CA        14.1550   -6.1230   18.1360 C.3   196  SER196      0.1889
    114  C         14.6320   -4.7860   17.5900 C.2   196  SER196      0.2288
    115  O         14.4490   -4.5160   16.4010 O.2   196  SER196     -0.2866
    116  CB        15.0960   -7.2340   17.6470 C.3   196  SER196      0.2089
    117  OG        15.1390   -8.2920   18.5910 O.3   196  SER196     -0.2183
    118  N         14.1640   -2.6290   22.5310 N.3   216  VAL216     -0.1231
    119  CA        13.8200   -4.0500   22.5010 C.3   216  VAL216      0.1692
    120  C         15.0950   -4.8450   22.3010 C.2   216  VAL216      0.2593
    121  O         15.8330   -4.7060   21.3170 O.2   216  VAL216     -0.2718
    122  CB        12.7730   -4.3100   21.4040 C.3   216  VAL216      0.0266
    123  CG1       12.2430   -5.7380   21.4580 C.3   216  VAL216      0.0020
    124  CG2       11.6330   -3.2990   21.5420 C.3   216  VAL216      0.0020
    125  N         15.4090   -5.6900   23.2790 N.am  217  SER217     -0.1938
    126  CA        16.7120   -6.3580   23.1950 C.3   217  SER217      0.2055
    127  C         16.5840   -7.8710   23.1160 C.2   217  SER217      0.2643
    128  O         16.9400   -8.5010   22.1170 O.2   217  SER217     -0.2714
    129  CB        17.5640   -5.9270   24.3950 C.3   217  SER217      0.2130
    130  OG        18.8940   -6.3930   24.2240 O.3   217  SER217     -0.2179
    131  N         16.0610   -8.5060   24.1650 N.am  218  TRP218     -0.1959
    132  CA        15.9660   -9.9580   24.1380 C.3   218  TRP218      0.1771
    133  C         14.9060  -10.4880   25.1050 C.2   218  TRP218      0.2620
    134  O         14.5290   -9.8030   26.0470 O.2   218  TRP218     -0.2715
    135  CB        17.3100  -10.5960   24.4820 C.3   218  TRP218      0.0590
    136  CG        17.8780  -10.3130   25.8370 C.ar  218  TRP218      0.0006
    137  CD1       18.6510   -9.2280   26.1420 C.ar  218  TRP218      0.0946
    138  CD2       17.7640  -11.0630   27.0510 C.ar  218  TRP218      0.0152
    139  NE1       19.0160   -9.2600   27.4560 N.ar  218  TRP218     -0.2442
    140  CE2       18.4860  -10.3770   28.0460 C.ar  218  TRP218      0.0810
    141  CE3       17.1230  -12.2550   27.4140 C.ar  218  TRP218      0.0012
    142  CZ2       18.5980  -10.8170   29.3690 C.ar  218  TRP218      0.0191
    143  CZ3       17.2240  -12.7010   28.7190 C.ar  218  TRP218      0.0001
    144  CH2       17.9550  -11.9830   29.6800 C.ar  218  TRP218      0.0015
    145  N         14.4720  -11.7110   24.8320 N.am  219  GLY219     -0.1940
    146  CA        13.6160  -12.4840   25.7090 C.3   219  GLY219      0.2014
    147  C         13.8490  -13.9750   25.5040 C.2   219  GLY219      0.2639
    148  O         14.4000  -14.3790   24.4820 O.2   219  GLY219     -0.2714
    149  N         13.4370  -14.7950   26.4640 N.am  220  GLU220     -0.1963
    150  CA        13.4880  -16.2510   26.3050 C.3   220  GLU220      0.1733
    151  C         12.0840  -16.7120   25.9270 C.2   220  GLU220      0.2617
    152  O         11.1560  -16.8580   26.7240 O.2   220  GLU220     -0.2715
    153  CB        14.0480  -16.8960   27.5760 C.3   220  GLU220      0.0429
    154  CG        15.4350  -16.3550   27.8980 C.3   220  GLU220      0.1163
    155  CD        16.0070  -16.7140   29.2540 C.2   220  GLU220      0.3649
    156  OE1       15.4950  -16.2680   30.3080 O.co2 220  GLU220     -0.2457
    157  OE2       17.0340  -17.4410   29.2660 O.co2 220  GLU220     -0.2457
    158  N         11.9130  -16.9160   24.6220 N.am  221  GLY221     -0.1940
    159  CA        10.5790  -17.1180   24.0670 C.3   221  GLY221      0.2014
    160  C          9.9070  -15.7620   23.8930 C.2   221  GLY221      0.2639
    161  O         10.5990  -14.7410   23.8560 O.2   221  GLY221     -0.2714
    162  N          8.5870  -15.7320   23.7790 N.am  222  CYS222     -0.1967
    163  CA         7.8340  -14.4950   23.6790 C.3   222  CYS222      0.1712
    164  C          6.5290  -14.7270   24.4540 C.2   222  CYS222      0.2296
    165  O          5.8390  -15.7090   24.1700 O.2   222  CYS222     -0.2864
    166  CB         7.5180  -14.0380   22.2570 C.3   222  CYS222      0.0983
    167  SG         8.8000  -14.1720   21.0000 S.3   222  CYS222     -0.0798
    168  N         10.3010   -9.3750   28.8340 N.3   229  GLY229     -0.1210
    169  CA        11.1650   -8.8480   27.7780 C.3   229  GLY229      0.1956
    170  C         12.2460   -8.0150   28.4560 C.2   229  GLY229      0.2612
    171  O         11.9490   -7.3620   29.4690 O.2   229  GLY229     -0.2717
    172  N         13.4520   -8.0640   27.9070 N.am  230  PHE230     -0.1962
    173  CA        14.5480   -7.2330   28.4010 C.3   230  PHE230      0.1771
    174  C         14.8900   -6.1810   27.3580 C.2   230  PHE230      0.2619
    175  O         15.0250   -6.4660   26.1680 O.2   230  PHE230     -0.2715
    176  CB        15.7670   -8.0860   28.7750 C.3   230  PHE230      0.0574
    177  CG        15.5090   -8.9170   30.0300 C.ar  230  PHE230     -0.0200
    178  CD1       14.6330   -9.9890   29.9950 C.ar  230  PHE230     -0.0042
    179  CD2       16.1360   -8.6180   31.2290 C.ar  230  PHE230     -0.0042
    180  CE1       14.3970  -10.7420   31.1370 C.ar  230  PHE230     -0.0003
    181  CE2       15.9120   -9.3510   32.3860 C.ar  230  PHE230     -0.0003
    182  CZ        15.0300  -10.4180   32.3240 C.ar  230  PHE230     -0.0000
    183  N         15.0290   -4.9450   27.8260 N.am  231  TYR231     -0.1974
    184  CA        15.2340   -3.7610   27.0120 C.3   231  TYR231      0.1639
    185  C         16.5420   -3.0550   27.3240 C.2   231  TYR231      0.2290
    186  O         16.9310   -2.9530   28.4920 O.2   231  TYR231     -0.2864
    187  CB        14.0430   -2.7990   27.2610 C.3   231  TYR231      0.0560
    188  CG        12.7260   -3.4350   26.8800 C.ar  231  TYR231     -0.0198
    189  CD1       12.0970   -4.3620   27.7040 C.ar  231  TYR231     -0.0009
    190  CD2       12.0970   -3.1180   25.6830 C.ar  231  TYR231     -0.0009
    191  CE1       10.8950   -4.9380   27.3560 C.ar  231  TYR231      0.0417
    192  CE2       10.8950   -3.7050   25.3350 C.ar  231  TYR231      0.0417
    193  CZ        10.2870   -4.6220   26.1670 C.ar  231  TYR231      0.1957
    194  OH         9.0860   -5.1970   25.8050 O.3   231  TYR231     -0.2866
@<TRIPOS>BOND
     1    26    25    2
     2    25    24    1
     3    24    27    1
     4    24    23    1
     5    27    28    1
     6    14    13    2
     7    11    12    1
     8    28    30   ar
     9    28    29   ar
    10   106   105    2
    11    33    30   ar
    12    33    35   ar
    13    13    12    1
    14     4     3    2
    15   105   104    1
    16    30    32   ar
    17    29    31   ar
    18    12    15    1
    19   115   114    2
    20    35    36   ar
    21     3     2    1
    22   107   104    1
    23   107   108    1
    24    15    16    1
    25   104   103    1
    26    32    31   ar
    27    32    34   ar
    28    18    16   ar
    29    18    20   ar
    30   110   109   ar
    31    36    34   ar
    32   114   113    1
    33   116   113    1
    34   116   117    1
    35   108   109    1
    36    16    17   ar
    37   112   113    1
    38     2     1    1
    39     2     5    1
    40     8    10   ar
    41     8     6   ar
    42   109   111   ar
    43   103    99   am
    44    20    21   ar
    45   100    99    2
    46    10     9   ar
    47    99    98    1
    48     6     5    1
    49     6     7   ar
    50    17    19   ar
    51   102   101    1
    52   102   167    1
    53   101    98    1
    54    48    50   ar
    55    48    46   ar
    56    50    49   ar
    57     9     7   ar
    58    45    46   ar
    59    45    43   ar
    60    46    44   ar
    61    21    19   ar
    62    21    22    1
    63    49    47   ar
    64    98    97    1
    65    43    42   ar
    66    44    47   ar
    67    44    42   ar
    68    42    41    1
    69    97    94   am
    70    41    38    1
    71   167   166    1
    72   121   120    2
    73   122   123    1
    74   122   124    1
    75   122   119    1
    76    94    93    1
    77    94    95    2
    78   128   127    2
    79    93    96    1
    80    93    92    1
    81    38    39    1
    82    38    37    1
    83   166   163    1
    84   120   119    1
    85   120   125   am
    86    87    86    2
    87   119   118    1
    88    40    39    2
    89    75    73    1
    90    74    73    1
    91    73    72    1
    92   127   126    1
    93   127   131   am
    94   126   125    1
    95   126   129    1
    96    92    86   am
    97    86    85    1
    98   163   162    1
    99   163   164    1
   100   162   160   am
   101   161   160    2
   102   160   159    1
   103   159   158    1
   104   132   131    1
   105   132   135    1
   106   132   133    1
   107   165   164    2
   108   130   129    1
   109    72    69    1
   110   135   136    1
   111   148   147    2
   112   158   151   am
   113    84    85    1
   114    85    88    1
   115   145   133   am
   116   145   146    1
   117    69    68    1
   118    69    70    1
   119   133   134    2
   120    88    89    1
   121    90    89   ar
   122    89    91   ar
   123   192   190   ar
   124   192   193   ar
   125   147   146    1
   126   147   149   am
   127   190   188   ar
   128    68    62   am
   129    71    70    2
   130    51    52    1
   131   194   193    1
   132   136   137   ar
   133   136   138   ar
   134   151   150    1
   135   151   152    2
   136   137   139   ar
   137   193   191   ar
   138   175   174    2
   139   150   149    1
   140   150   153    1
   141    62    63    2
   142    62    61    1
   143   188   187    1
   144   188   189   ar
   145    52    53    1
   146    52    55    1
   147   184   187    1
   148   184   185    1
   149   184   183    1
   150   138   141   ar
   151   138   140   ar
   152    53    60   am
   153    53    54    2
   154    60    61    1
   155   185   186    2
   156   191   189   ar
   157   174   183   am
   158   174   173    1
   159   141   143   ar
   160   139   140   ar
   161    61    64    1
   162   153   154    1
   163   169   170    1
   164   169   168    1
   165   154   155    1
   166   172   173    1
   167   172   170   am
   168   140   142   ar
   169    55    56    1
   170   173   176    1
   171   170   171    2
   172    83    81    1
   173    66    65    2
   174   143   144   ar
   175   176   177    1
   176    64    65    1
   177   155   157   ar
   178   155   156   ar
   179   142   144   ar
   180    65    67   am
   181    56    57    1
   182    81    80    1
   183   178   177   ar
   184   178   180   ar
   185   177   179   ar
   186    58    57   ar
   187    82    80    1
   188    57    59   ar
   189    80    77    1
   190   180   182   ar
   191   179   181   ar
   192   182   181   ar
   193    77    76    1
   194    77    78    1
   195    78    79    2
