@<TRIPOS>MOLECULE
tmp/3eglB00.pdb
 177 160 0 0 0
SMALL
GASTEIGER

@<TRIPOS>ATOM
      1  N         35.5970   -6.7530   46.7680 N.3    14  CYS14      -0.1235
      2  CA        35.0450   -5.6210   47.5150 C.3    14  CYS14       0.1677
      3  C         34.5340   -5.9660   48.9140 C.2    14  CYS14       0.2270
      4  O         33.6520   -5.2690   49.4270 O.2    14  CYS14      -0.2867
      5  CB        33.9160   -4.8850   46.7390 C.3    14  CYS14       0.0956
      6  SG        34.4040   -4.2650   45.1360 S.3    14  CYS14      -0.0801
      7  N         44.8790   -6.2340   44.2490 N.3    30  LEU30      -0.1245
      8  CA        45.2770   -6.0170   42.8600 C.3    30  LEU30       0.1561
      9  C         46.0860   -4.7220   42.7980 C.2    30  LEU30       0.2260
     10  O         46.1450   -3.9840   43.7870 O.2    30  LEU30      -0.2867
     11  CB        44.0530   -5.9250   41.9580 C.3    30  LEU30       0.0270
     12  CG        43.1440   -7.1420   41.9100 C.3    30  LEU30       0.0019
     13  CD1       41.9770   -6.7890   40.9910 C.3    30  LEU30       0.0001
     14  CD2       43.8740   -8.4230   41.4440 C.3    30  LEU30       0.0001
     15  N         45.9700   -0.0180   36.0520 N.3    40  THR40      -0.1203
     16  CA        45.8970   -1.1660   36.9210 C.3    40  THR40       0.1994
     17  C         46.6340   -2.3710   36.3100 C.2    40  THR40       0.2619
     18  O         46.9730   -2.3940   35.1390 O.2    40  THR40      -0.2717
     19  CB        44.4390   -1.5290   37.2770 C.3    40  THR40       0.1784
     20  OG1       43.7430   -1.9130   36.0910 O.3    40  THR40      -0.2211
     21  CG2       43.7160   -0.3690   37.9430 C.3    40  THR40       0.0376
     22  N         46.8380   -3.3790   37.1200 N.am   41  SER41      -0.1937
     23  CA        47.4770   -4.5970   36.6920 C.3    41  SER41       0.2055
     24  C         46.9480   -5.7530   37.5540 C.2    41  SER41       0.2643
     25  O         46.5730   -5.5540   38.7310 O.2    41  SER41      -0.2714
     26  CB        49.0010   -4.3980   36.7870 C.3    41  SER41       0.2130
     27  OG        49.6430   -5.3780   37.5450 O.3    41  SER41      -0.2179
     28  N         46.8740   -6.9390   36.9480 N.am   42  GLY42      -0.1954
     29  CA        46.4600   -8.1610   37.6520 C.3    42  GLY42       0.1869
     30  C         47.5900   -8.6970   38.5290 C.2    42  GLY42       0.2309
     31  O         48.6910   -8.1350   38.5830 O.2    42  GLY42      -0.2863
     32  N         38.8150  -12.3120   40.3890 N.3    69  ILE69      -0.1245
     33  CA        38.1450  -11.6290   39.2950 C.3    69  ILE69       0.1561
     34  C         38.1840  -12.4720   37.9990 C.2    69  ILE69       0.2260
     35  O         39.1500  -13.1890   37.7240 O.2    69  ILE69      -0.2867
     36  CB        38.7740  -10.2720   39.0530 C.3    69  ILE69       0.0252
     37  CG1       38.1180   -9.5530   37.8570 C.3    69  ILE69       0.0019
     38  CG2       40.3140  -10.4000   38.8230 C.3    69  ILE69       0.0019
     39  CD1       38.4240   -8.0410   37.8460 C.3    69  ILE69       0.0001
     40  N         38.4740  -10.2500   32.3870 N.3    72  LEU72      -0.1231
     41  CA        38.6520   -8.8860   32.8360 C.3    72  LEU72       0.1693
     42  C         40.0920   -8.6060   33.2510 C.2    72  LEU72       0.2593
     43  O         40.5070   -7.4400   33.3020 O.2    72  LEU72      -0.2718
     44  CB        37.6680   -8.5520   33.9860 C.3    72  LEU72       0.0284
     45  CG        36.1780   -8.5660   33.5490 C.3    72  LEU72       0.0019
     46  CD1       35.1930   -8.2090   34.6720 C.3    72  LEU72       0.0001
     47  CD2       35.9280   -7.6880   32.3150 C.3    72  LEU72       0.0001
     48  N         40.8600   -9.6770   33.4890 N.am   73  SER73      -0.1938
     49  CA        42.1520   -9.5790   34.1510 C.3    73  SER73       0.2055
     50  C         42.9560  -10.8340   33.9160 C.2    73  SER73       0.2643
     51  O         42.3740  -11.9260   33.8110 O.2    73  SER73      -0.2714
     52  CB        41.9250   -9.4290   35.6670 C.3    73  SER73       0.2130
     53  OG        43.1390   -9.2440   36.3730 O.3    73  SER73      -0.2179
     54  N         44.2860  -10.7030   33.8810 N.am   74  SER74      -0.1949
     55  CA        45.1770  -11.8690   33.7100 C.3    74  SER74       0.1924
     56  C         45.3400  -12.6710   35.0010 C.2    74  SER74       0.2314
     57  O         46.0510  -13.6810   35.0380 O.2    74  SER74      -0.2863
     58  CB        46.5480  -11.4140   33.2000 C.3    74  SER74       0.2116
     59  OG        47.1240  -10.4580   34.0910 O.3    74  SER74      -0.2180
     60  N         32.9640  -10.5250   39.2200 N.3    99  LEU99      -0.1231
     61  CA        33.8440   -9.6160   39.9520 C.3    99  LEU99       0.1693
     62  C         33.0000   -8.9810   41.0440 C.2    99  LEU99       0.2592
     63  O         31.7680   -8.9650   40.9320 O.2    99  LEU99      -0.2718
     64  CB        34.4120   -8.5090   39.0420 C.3    99  LEU99       0.0284
     65  CG        33.5270   -7.2970   38.6250 C.3    99  LEU99       0.0019
     66  CD1       34.3320   -6.2140   37.9260 C.3    99  LEU99       0.0001
     67  CD2       32.3910   -7.6670   37.7010 C.3    99  LEU99       0.0001
     68  N         33.6410   -8.4060   42.0680 N.am  100  GLY100     -0.1957
     69  CA        32.9020   -7.6520   43.0340 C.3   100  GLY100      0.1869
     70  C         32.1810   -8.5830   43.9930 C.2   100  GLY100      0.2309
     71  O         32.5880   -9.7560   44.2060 O.2   100  GLY100     -0.2863
     72  N         25.4170   -9.1610   38.2520 N.3   131  THR131     -0.1218
     73  CA        26.1840   -7.9530   38.5000 C.3   131  THR131      0.1862
     74  C         25.8280   -6.8650   37.5100 C.2   131  THR131      0.2287
     75  O         25.9560   -7.0480   36.3150 O.2   131  THR131     -0.2866
     76  CB        27.7020   -8.2370   38.4870 C.3   131  THR131      0.1770
     77  OG1       27.9960   -9.1080   39.5730 O.3   131  THR131     -0.2211
     78  CG2       28.5290   -6.9500   38.6540 C.3   131  THR131      0.0375
     79  N         26.2010   -2.4570   36.9540 N.3   133  ILE133     -0.1245
     80  CA        26.9160   -1.2580   37.3620 C.3   133  ILE133      0.1561
     81  C         26.3120   -0.0610   36.6640 C.2   133  ILE133      0.2260
     82  O         26.2710   -0.0130   35.4140 O.2   133  ILE133     -0.2867
     83  CB        28.4130   -1.2420   36.8960 C.3   133  ILE133      0.0252
     84  CG1       28.9350   -2.6440   36.5910 C.3   133  ILE133      0.0019
     85  CG2       29.3160   -0.4070   37.8440 C.3   133  ILE133      0.0019
     86  CD1       29.5250   -3.3340   37.7330 C.3   133  ILE133      0.0001
     87  N         26.8980    3.7090   35.6390 N.3   135  LEU135     -0.1245
     88  CA        28.0640    4.5870   35.4190 C.3   135  LEU135      0.1561
     89  C         27.6030    5.9980   35.2460 C.2   135  LEU135      0.2260
     90  O         26.7580    6.2500   34.4170 O.2   135  LEU135     -0.2867
     91  CB        28.8840    4.1750   34.1920 C.3   135  LEU135      0.0270
     92  CG        29.4770    2.7700   34.3060 C.3   135  LEU135      0.0019
     93  CD1       30.2420    2.4290   33.0860 C.3   135  LEU135      0.0001
     94  CD2       30.3880    2.6910   35.5070 C.3   135  LEU135      0.0001
     95  N         35.5100    3.7120   31.7850 N.3   141  ILE141     -0.1245
     96  CA        35.2990    2.3620   31.2770 C.3   141  ILE141      0.1561
     97  C         35.7010    2.2110   29.7990 C.2   141  ILE141      0.2260
     98  O         36.1910    1.1500   29.3850 O.2   141  ILE141     -0.2867
     99  CB        33.8970    1.7960   31.5760 C.3   141  ILE141      0.0252
    100  CG1       33.9560    0.2860   31.4850 C.3   141  ILE141      0.0019
    101  CG2       32.8120    2.3640   30.6400 C.3   141  ILE141      0.0019
    102  CD1       33.3290   -0.3380   32.6170 C.3   141  ILE141      0.0001
    103  N         39.3780    1.6420   29.5180 N.3   143  SER143     -0.1217
    104  CA        39.8000    0.4700   30.2570 C.3   143  SER143      0.1889
    105  C         40.0840   -0.7360   29.3690 C.2   143  SER143      0.2288
    106  O         40.7440   -1.6470   29.8070 O.2   143  SER143     -0.2866
    107  CB        38.7210    0.0720   31.2680 C.3   143  SER143      0.2089
    108  OG        37.7200   -0.7160   30.6430 O.3   143  SER143     -0.2183
    109  N         37.9340   -2.8860   28.6190 N.3   145  ARG145     -0.1245
    110  CA        36.9950   -3.9500   28.9860 C.3   145  ARG145      0.1563
    111  C         35.6350   -3.8780   28.3100 C.2   145  ARG145      0.2260
    112  O         34.7760   -4.6980   28.5980 O.2   145  ARG145     -0.2867
    113  CB        36.8060   -4.0300   30.4960 C.3   145  ARG145      0.0307
    114  CG        37.8620   -4.8800   31.1780 C.3   145  ARG145      0.0489
    115  CD        39.2430   -4.2880   30.9790 C.3   145  ARG145      0.2205
    116  NE        40.2050   -4.9740   31.8250 N.pl3 145  ARG145     -0.0865
    117  CZ        41.3510   -4.4480   32.2540 C.cat 145  ARG145      0.5346
    118  NH1       41.6770   -3.1930   31.9240 N.pl3 145  ARG145      0.1354
    119  NH2       42.1580   -5.1810   33.0300 N.pl3 145  ARG145      0.1354
    120  N         29.1140   -1.5830   50.3620 N.3   223  VAL223     -0.1245
    121  CA        30.5270   -1.8230   50.1560 C.3   223  VAL223      0.1561
    122  C         31.1010   -0.6600   49.3690 C.2   223  VAL223      0.2260
    123  O         30.3750    0.1010   48.7620 O.2   223  VAL223     -0.2867
    124  CB        30.8300   -3.1470   49.4150 C.3   223  VAL223      0.0252
    125  CG1       30.2110   -4.3100   50.1200 C.3   223  VAL223      0.0019
    126  CG2       30.3300   -3.0890   47.9990 C.3   223  VAL223      0.0019
    127  N         33.5230    0.2240   46.2140 N.3   225  ILE225     -0.1245
    128  CA        34.1380   -0.3430   45.0520 C.3   225  ILE225      0.1561
    129  C         35.6540   -0.2680   45.2550 C.2   225  ILE225      0.2260
    130  O         36.2000    0.7930   45.5170 O.2   225  ILE225     -0.2867
    131  CB        33.6480    0.3720   43.7810 C.3   225  ILE225      0.0252
    132  CG1       32.1820   -0.0060   43.4930 C.3   225  ILE225      0.0019
    133  CG2       34.5770    0.0860   42.6290 C.3   225  ILE225      0.0019
    134  CD1       31.5360    0.8260   42.4330 C.3   225  ILE225      0.0001
    135  N         41.1310   -0.3380   42.7010 N.3   228  THR228     -0.1203
    136  CA        41.5210   -0.8930   41.4120 C.3   228  THR228      0.1994
    137  C         40.3670   -0.8970   40.4230 C.2   228  THR228      0.2617
    138  O         40.5690   -0.5500   39.2860 O.2   228  THR228     -0.2717
    139  CB        42.0480   -2.3470   41.5330 C.3   228  THR228      0.1784
    140  OG1       43.0790   -2.3700   42.4940 O.3   228  THR228     -0.2211
    141  CG2       42.6460   -2.8480   40.2020 C.3   228  THR228      0.0376
    142  N         39.1810   -1.3250   40.8330 N.am  229  LEU229     -0.1979
    143  CA        38.0030   -1.2640   39.9320 C.3   229  LEU229      0.1596
    144  C         37.6060    0.1820   39.6390 C.2   229  LEU229      0.2287
    145  O         37.1740    0.4870   38.5370 O.2   229  LEU229     -0.2864
    146  CB        36.8180   -2.0370   40.5250 C.3   229  LEU229      0.0297
    147  CG        37.1790   -3.4880   40.8230 C.3   229  LEU229      0.0022
    148  CD1       35.9580   -4.1550   41.3770 C.3   229  LEU229      0.0001
    149  CD2       37.7510   -4.2930   39.5750 C.3   229  LEU229      0.0001
    150  N         38.6570    2.1580   36.7280 N.3   232  HIS232     -0.1226
    151  CA        37.9570    1.8780   35.4820 C.3   232  HIS232      0.1752
    152  C         36.4590    2.2070   35.4930 C.2   232  HIS232      0.2596
    153  O         35.8610    2.3210   34.4330 O.2   232  HIS232     -0.2718
    154  CB        38.2160    0.4420   35.0340 C.3   232  HIS232      0.0759
    155  CG        39.6630    0.1400   34.8190 C.ar  232  HIS232      0.0818
    156  ND1       40.4270    0.7820   33.8570 N.ar  232  HIS232     -0.2268
    157  CD2       40.4980   -0.7160   35.4530 C.ar  232  HIS232      0.1154
    158  CE1       41.6670    0.3290   33.9040 C.ar  232  HIS232      0.1986
    159  NE2       41.7400   -0.5730   34.8730 N.ar  232  HIS232     -0.2212
    160  N         35.8390    2.3350   36.6680 N.am  233  SER233     -0.1952
    161  CA        34.4480    2.7680   36.7070 C.3   233  SER233      0.1924
    162  C         34.3530    4.2790   36.5790 C.2   233  SER233      0.2314
    163  O         33.3950    4.8050   35.9980 O.2   233  SER233     -0.2863
    164  CB        33.7540    2.3000   37.9850 C.3   233  SER233      0.2116
    165  OG        34.1800    3.0380   39.1400 O.3   233  SER233     -0.2180
    166  N         27.4010    0.0400   42.0030 N.3   239  SER239     -0.1217
    167  CA        27.2610   -1.3220   41.5230 C.3   239  SER239      0.1889
    168  C         26.2420   -2.0800   42.3450 C.2   239  SER239      0.2288
    169  O         26.0470   -1.7900   43.5090 O.2   239  SER239     -0.2866
    170  CB        28.6090   -2.0500   41.5770 C.3   239  SER239      0.2089
    171  OG        29.0600   -2.1670   42.9100 O.3   239  SER239     -0.2183
    172  N         25.5170   -6.0010   43.3450 N.3   241  SER241     -0.1217
    173  CA        25.8290   -7.4100   43.3140 C.3   241  SER241      0.1889
    174  C         24.6650   -8.1390   43.9750 C.2   241  SER241      0.2288
    175  O         24.3060   -7.8750   45.1400 O.2   241  SER241     -0.2866
    176  CB        27.1300   -7.6960   44.0800 C.3   241  SER241      0.2089
    177  OG        28.2570   -7.0370   43.4980 O.3   241  SER241     -0.2183
@<TRIPOS>BOND
     1   111   112    2
     2   111   110    1
     3   109   110    1
     4   110   113    1
     5   105   106    2
     6   105   104    1
     7    98    97    2
     8   103   104    1
     9    97    96    1
    10   104   107    1
    11   113   114    1
    12   101    99    1
    13   108   107    1
    14   115   114    1
    15   115   116    1
    16    96    99    1
    17    96    95    1
    18   100    99    1
    19   100   102    1
    20   116   117    2
    21   118   117    1
    22   117   119    1
    23    47    45    1
    24    40    41    1
    25    41    42    1
    26    41    44    1
    27    93    92    1
    28    58    55    1
    29    58    59    1
    30    42    43    2
    31    42    48   am
    32    48    49    1
    33    45    44    1
    34    45    46    1
    35    55    54    1
    36    55    56    1
    37    51    50    2
    38   156   158   ar
    39   156   155   ar
    40    54    50   am
    41   158   159   ar
    42    50    49    1
    43    49    52    1
    44    91    92    1
    45    91    88    1
    46    92    94    1
    47    90    89    2
    48   153   152    2
    49   155   154    1
    50   155   157   ar
    51   159   157   ar
    52    56    57    2
    53   154   151    1
    54    18    17    2
    55    89    88    1
    56    82    81    2
    57    88    87    1
    58   151   152    1
    59   151   150    1
    60   152   160   am
    61    52    53    1
    62   163   162    2
    63    15    16    1
    64    20    19    1
    65    17    16    1
    66    17    22   am
    67    75    74    2
    68   162   161    1
    69    84    83    1
    70    84    86    1
    71    81    80    1
    72   160   161    1
    73    23    26    1
    74    23    22    1
    75    23    24    1
    76   161   164    1
    77    26    27    1
    78    83    80    1
    79    83    85    1
    80    16    19    1
    81    28    24   am
    82    28    29    1
    83    79    80    1
    84    19    21    1
    85    74    73    1
    86    24    25    2
    87    29    30    1
    88    67    65    1
    89    35    34    2
    90    39    37    1
    91    37    36    1
    92    66    65    1
    93   164   165    1
    94    34    33    1
    95    72    73    1
    96    76    73    1
    97    76    78    1
    98    76    77    1
    99    30    31    2
   100   145   144    2
   101    65    64    1
   102    38    36    1
   103    64    61    1
   104    36    33    1
   105    60    61    1
   106   138   137    2
   107    33    32    1
   108   149   147    1
   109   144   143    1
   110   143   146    1
   111   143   142    1
   112    61    62    1
   113   141   139    1
   114   137   142   am
   115   137   136    1
   116   146   147    1
   117   147   148    1
   118    63    62    2
   119    13    12    1
   120    62    68   am
   121   136   139    1
   122   136   135    1
   123    14    12    1
   124   167   170    1
   125   167   166    1
   126   167   168    1
   127   139   140    1
   128   170   171    1
   129    12    11    1
   130    11     8    1
   131    68    69    1
   132   168   169    2
   133   134   132    1
   134   133   131    1
   135     9     8    1
   136     9    10    2
   137     8     7    1
   138    69    70    1
   139   173   172    1
   140   173   174    1
   141   173   176    1
   142   132   131    1
   143   177   176    1
   144   131   128    1
   145   174   175    2
   146    70    71    2
   147   128   129    1
   148   128   127    1
   149     6     5    1
   150   129   130    2
   151     5     2    1
   152     1     2    1
   153     2     3    1
   154   126   124    1
   155   123   122    2
   156     3     4    2
   157   122   121    1
   158   124   125    1
   159   124   121    1
   160   121   120    1
