@<TRIPOS>MOLECULE
tmp/3eglC00.pdb
 157 144 0 0 0
SMALL
GASTEIGER

@<TRIPOS>ATOM
      1  N         13.9690    7.6730    7.7500 N.3    28  LEU28      -0.1245
      2  CA        13.9970    7.5930    6.2970 C.3    28  LEU28       0.1561
      3  C         15.0110    6.5390    5.9010 C.2    28  LEU28       0.2260
      4  O         15.8290    6.1450    6.7240 O.2    28  LEU28      -0.2867
      5  CB        14.3990    8.9240    5.6970 C.3    28  LEU28       0.0270
      6  CG        13.4100   10.0210    6.0490 C.3    28  LEU28       0.0019
      7  CD1       13.8500   11.3180    5.3970 C.3    28  LEU28       0.0001
      8  CD2       11.9840    9.6450    5.6470 C.3    28  LEU28       0.0001
      9  N         18.0720    6.7780   -1.7110 N.3    36  THR36      -0.1203
     10  CA        17.2010    7.0060   -0.5520 C.3    36  THR36       0.1994
     11  C         15.7710    6.8000   -0.9270 C.2    36  THR36       0.2619
     12  O         15.4050    6.8750   -2.0850 O.2    36  THR36      -0.2717
     13  CB        17.2770    8.4330    0.0860 C.3    36  THR36       0.1784
     14  OG1       16.6660    9.4040   -0.7760 O.3    36  THR36      -0.2211
     15  CG2       18.6920    8.8400    0.4740 C.3    36  THR36       0.0376
     16  N         14.9550    6.6030    0.0880 N.am   37  SER37      -0.1937
     17  CA        13.5350    6.4360   -0.1090 C.3    37  SER37       0.2055
     18  C         12.7330    7.1030    1.0320 C.2    37  SER37       0.2643
     19  O         13.2020    7.1790    2.1620 O.2    37  SER37      -0.2714
     20  CB        13.2660    4.9360   -0.2070 C.3    37  SER37       0.2130
     21  OG        11.8960    4.7090   -0.2720 O.3    37  SER37      -0.2179
     22  N         11.5470    7.6180    0.7250 N.am   38  GLY38      -0.1954
     23  CA        10.6580    8.1460    1.7470 C.3    38  GLY38       0.1869
     24  C          9.9610    7.0160    2.5020 C.2    38  GLY38       0.2309
     25  O         10.1560    5.8460    2.2240 O.2    38  GLY38      -0.2863
     26  N          8.9110   15.7210    6.6560 N.3    65  ILE65      -0.1245
     27  CA         9.6460   16.4410    5.6450 C.3    65  ILE65       0.1561
     28  C          8.6820   16.9680    4.5790 C.2    65  ILE65       0.2260
     29  O          7.7310   16.2660    4.2060 O.2    65  ILE65      -0.2867
     30  CB        10.7360   15.5660    5.0550 C.3    65  ILE65       0.0252
     31  CG1       11.4450   16.3000    3.9130 C.3    65  ILE65       0.0019
     32  CG2       10.1550   14.1620    4.6610 C.3    65  ILE65       0.0019
     33  CD1       12.7550   15.6330    3.5090 C.3    65  ILE65       0.0001
     34  N          9.8110   17.5680   -1.3090 N.3    68  LEU68      -0.1231
     35  CA        11.1430   16.9820   -1.2830 C.3    68  LEU68       0.1693
     36  C         11.1280   15.4720   -1.0850 C.2    68  LEU68       0.2593
     37  O         12.1830   14.8340   -1.1050 O.2    68  LEU68      -0.2718
     38  CB        11.9970   17.6600   -0.1930 C.3    68  LEU68       0.0284
     39  CG        12.2360   19.1770   -0.2550 C.3    68  LEU68       0.0019
     40  CD1       13.0270   19.5160    0.9830 C.3    68  LEU68       0.0001
     41  CD2       13.0410   19.5930   -1.4850 C.3    68  LEU68       0.0001
     42  N          9.9370   14.8980   -0.9020 N.am   69  SER69      -0.1938
     43  CA         9.8380   13.4800   -0.5330 C.3    69  SER69       0.2055
     44  C          8.4050   13.0320   -0.6420 C.2    69  SER69       0.2643
     45  O          7.4780   13.8150   -0.4830 O.2    69  SER69      -0.2714
     46  CB        10.3870   13.2280    0.8800 C.3    69  SER69       0.2130
     47  OG        10.1350   11.9140    1.3390 O.3    69  SER69      -0.2179
     48  N          8.2360   11.7610   -0.9350 N.am   70  SER70      -0.1949
     49  CA         6.9290   11.1680   -1.0730 C.3    70  SER70       0.1924
     50  C          6.3480   10.8800    0.3160 C.2    70  SER70       0.2314
     51  O          5.2150   10.4070    0.4290 O.2    70  SER70      -0.2863
     52  CB         7.0350    9.8660   -1.8800 C.3    70  SER70       0.2116
     53  OG         7.8460    8.9320   -1.1630 O.3    70  SER70      -0.2180
     54  N         12.2980   20.9920    6.4770 N.3    95  LEU95      -0.1245
     55  CA        13.0300   19.8260    6.9230 C.3    95  LEU95       0.1561
     56  C         14.0900   20.2320    7.9360 C.2    95  LEU95       0.2260
     57  O         14.3930   21.3960    8.0620 O.2    95  LEU95      -0.2867
     58  CB        13.6800   19.1260    5.7190 C.3    95  LEU95       0.0270
     59  CG        14.7460   19.8270    4.8570 C.3    95  LEU95       0.0019
     60  CD1       15.9070   20.2860    5.6890 C.3    95  LEU95       0.0001
     61  CD2       15.2640   18.8160    3.8580 C.3    95  LEU95       0.0001
     62  N         20.8720   26.3400    3.6130 N.3   129  ILE129     -0.1245
     63  CA        21.8760   25.2750    3.3900 C.3   129  ILE129      0.1561
     64  C         23.0930   25.7990    2.5720 C.2   129  ILE129      0.2260
     65  O         22.9210   26.3530    1.4850 O.2   129  ILE129     -0.2867
     66  CB        21.2900   24.0780    2.6250 C.3   129  ILE129      0.0252
     67  CG1       19.8400   23.8000    3.0470 C.3   129  ILE129      0.0019
     68  CG2       22.1920   22.8250    2.7670 C.3   129  ILE129      0.0019
     69  CD1       19.7230   23.0240    4.2940 C.3   129  ILE129      0.0001
     70  N         25.9280   24.6100    0.3320 N.3   131  LEU131     -0.1245
     71  CA        26.3550   23.4550   -0.4410 C.3   131  LEU131      0.1561
     72  C         27.7640   23.7040   -0.9360 C.2   131  LEU131      0.2260
     73  O         28.0260   24.6500   -1.6800 O.2   131  LEU131     -0.2867
     74  CB        25.3990   23.1870   -1.5990 C.3   131  LEU131      0.0270
     75  CG        24.0400   22.6190   -1.1440 C.3   131  LEU131      0.0019
     76  CD1       23.1520   22.3460   -2.3540 C.3   131  LEU131      0.0001
     77  CD2       24.2100   21.3570   -0.3040 C.3   131  LEU131      0.0001
     78  N         23.3310   17.3120   -5.0330 N.3   137  ILE137     -0.1245
     79  CA        22.0540   18.0070   -5.0550 C.3   137  ILE137      0.1561
     80  C         21.4930   17.9480   -6.4690 C.2   137  ILE137      0.2260
     81  O         20.2850   17.7520   -6.6770 O.2   137  ILE137     -0.2867
     82  CB        22.1580   19.4540   -4.5370 C.3   137  ILE137      0.0252
     83  CG1       20.7830   19.9660   -4.1070 C.3   137  ILE137      0.0019
     84  CG2       22.7820   20.3830   -5.5730 C.3   137  ILE137      0.0019
     85  CD1       20.1110   19.1020   -3.0160 C.3   137  ILE137      0.0001
     86  N         15.8680   17.3910   -6.3330 N.3   141  ARG141     -0.1245
     87  CA        15.1520   18.3850   -5.5260 C.3   141  ARG141      0.1563
     88  C         15.3910   19.8590   -5.9180 C.2   141  ARG141      0.2260
     89  O         14.9010   20.7680   -5.2360 O.2   141  ARG141     -0.2867
     90  CB        15.3500   18.2100   -4.0130 C.3   141  ARG141      0.0307
     91  CG        15.2860   16.7770   -3.3530 C.3   141  ARG141      0.0489
     92  CD        14.5200   15.6990   -4.0490 C.3   141  ARG141      0.2205
     93  NE        14.0930   14.6560   -3.1170 N.pl3 141  ARG141     -0.0865
     94  CZ        14.5540   13.4100   -3.0610 C.cat 141  ARG141      0.5346
     95  NH1       15.4930   12.9770   -3.8890 N.pl3 141  ARG141      0.1354
     96  NH2       14.0430   12.5810   -2.1670 N.pl3 141  ARG141      0.1354
     97  N         14.4330   27.5950    1.5500 N.3   159  PHE159     -0.1241
     98  CA        13.0960   27.1090    1.1600 C.3   159  PHE159      0.1605
     99  C         11.9920   28.1350    0.9540 C.2   159  PHE159      0.2264
    100  O         11.6000   28.8000    1.8900 O.2   159  PHE159     -0.2867
    101  CB        12.5960   26.1120    2.1900 C.3   159  PHE159      0.0534
    102  CG        13.3450   24.8430    2.1700 C.ar  159  PHE159     -0.0203
    103  CD1       13.4600   24.1360    0.9960 C.ar  159  PHE159     -0.0042
    104  CD2       13.9310   24.3590    3.3200 C.ar  159  PHE159     -0.0042
    105  CE1       14.1610   22.9690    0.9570 C.ar  159  PHE159     -0.0003
    106  CE2       14.6570   23.1740    3.3100 C.ar  159  PHE159     -0.0003
    107  CZ        14.7740   22.4740    2.1230 C.ar  159  PHE159     -0.0000
    108  N         23.4640   15.8390   10.7400 N.3   222  ILE222     -0.1245
    109  CA        22.5630   15.7870    9.6050 C.3   222  ILE222      0.1561
    110  C         22.2060   14.3210    9.3240 C.2   222  ILE222      0.2260
    111  O         23.0840   13.4750    9.2130 O.2   222  ILE222     -0.2867
    112  CB        23.1790   16.4780    8.4020 C.3   222  ILE222      0.0252
    113  CG1       22.9410   17.9940    8.4710 C.3   222  ILE222      0.0019
    114  CG2       22.5930   15.9400    7.1080 C.3   222  ILE222      0.0019
    115  CD1       23.4370   18.7690    7.1900 C.3   222  ILE222      0.0001
    116  N         20.1880   10.1910    5.2820 N.3   225  THR225     -0.1203
    117  CA        19.4550   10.3620    4.0200 C.3   225  THR225      0.1994
    118  C         19.6290   11.7570    3.4370 C.2   225  THR225      0.2617
    119  O         19.6840   11.9190    2.2330 O.2   225  THR225     -0.2717
    120  CB        17.9320   10.0570    4.1170 C.3   225  THR225      0.1784
    121  OG1       17.4280   10.7080    5.2510 O.3   225  THR225     -0.2211
    122  CG2       17.6390    8.5890    4.3100 C.3   225  THR225      0.0376
    123  N         19.6950   12.7760    4.2790 N.am  226  LEU226     -0.1979
    124  CA        19.9140   14.1250    3.7740 C.3   226  LEU226      0.1596
    125  C         21.3450   14.2870    3.3300 C.2   226  LEU226      0.2287
    126  O         21.6100   14.9980    2.3740 O.2   226  LEU226     -0.2864
    127  CB        19.5610   15.1980    4.7860 C.3   226  LEU226      0.0297
    128  CG        18.1380   15.2390    5.3590 C.3   226  LEU226      0.0022
    129  CD1       18.1050   16.2350    6.5130 C.3   226  LEU226      0.0001
    130  CD2       17.0300   15.5630    4.3530 C.3   226  LEU226      0.0001
    131  N         22.0910   13.3450   -0.3950 N.3   229  HIS229     -0.1226
    132  CA        21.7060   14.3130   -1.4020 C.3   229  HIS229      0.1752
    133  C         22.3700   15.6910   -1.2400 C.2   229  HIS229      0.2596
    134  O         22.0910   16.6000   -2.0050 O.2   229  HIS229     -0.2718
    135  CB        20.1860   14.4260   -1.4910 C.3   229  HIS229      0.0759
    136  CG        19.4980   13.1180   -1.7610 C.ar  229  HIS229      0.0818
    137  ND1       19.5590   12.4800   -2.9860 N.ar  229  HIS229     -0.2268
    138  CD2       18.7340   12.3290   -0.9630 C.ar  229  HIS229      0.1154
    139  CE1       18.8720   11.3520   -2.9240 C.ar  229  HIS229      0.1986
    140  NE2       18.3530   11.2440   -1.7120 N.ar  229  HIS229     -0.2212
    141  N         23.2490   15.8690   -0.2620 N.am  230  SER230     -0.1952
    142  CA        23.9290   17.1610   -0.1660 C.3   230  SER230      0.1924
    143  C         25.4290   17.0800   -0.2600 C.2   230  SER230      0.2314
    144  O         26.0750   18.0480   -0.6850 O.2   230  SER230     -0.2863
    145  CB        23.5640   17.8700    1.1050 C.3   230  SER230      0.2116
    146  OG        23.8400   17.0130    2.1800 O.3   230  SER230     -0.2180
    147  N         28.7310   20.2280    3.2460 N.3   234  ALA234     -0.1245
    148  CA        27.4720   20.9630    3.4810 C.3   234  ALA234      0.1562
    149  C         27.3180   21.3690    4.9580 C.2   234  ALA234      0.2260
    150  O         27.7520   20.6570    5.8650 O.2   234  ALA234     -0.2867
    151  CB        26.2410   20.1750    3.0080 C.3   234  ALA234      0.0290
    152  N         24.1900   23.2520    7.3960 N.3   236  SER236     -0.1217
    153  CA        22.8430   23.7880    7.4320 C.3   236  SER236      0.1889
    154  C         22.6560   24.6970    8.6320 C.2   236  SER236      0.2288
    155  O         23.2670   24.5040    9.6740 O.2   236  SER236     -0.2866
    156  CB        21.7940   22.6780    7.4750 C.3   236  SER236      0.2089
    157  OG        22.1680   21.6790    8.4020 O.3   236  SER236     -0.2183
@<TRIPOS>BOND
     1    81    80    2
     2    80    79    1
     3    86    87    1
     4    88    87    1
     5    88    89    2
     6    84    82    1
     7    87    90    1
     8    79    78    1
     9    79    82    1
    10    82    83    1
    11    83    85    1
    12    92    91    1
    13    92    93    1
    14    90    91    1
    15    95    94    1
    16    93    94    2
    17    94    96    1
    18   137   139   ar
    19   137   136   ar
    20   139   140   ar
    21    76    75    1
    22    12    11    2
    23   134   133    2
    24    52    53    1
    25    52    49    1
    26   136   135    1
    27   136   138   ar
    28   140   138   ar
    29     9    10    1
    30    73    72    2
    31    74    75    1
    32    74    71    1
    33   135   132    1
    34    41    39    1
    35   132   133    1
    36   132   131    1
    37    34    35    1
    38    35    36    1
    39    35    38    1
    40   133   141   am
    41    75    77    1
    42    37    36    2
    43    36    42   am
    44    49    48    1
    45    49    50    1
    46    72    71    1
    47    48    44   am
    48    11    10    1
    49    11    16   am
    50    42    43    1
    51    14    13    1
    52   144   143    2
    53    44    43    1
    54    44    45    2
    55    10    13    1
    56    43    46    1
    57    71    70    1
    58    21    20    1
    59   141   142    1
    60   143   142    1
    61    39    38    1
    62    39    40    1
    63    20    17    1
    64   142   145    1
    65    17    16    1
    66    17    18    1
    67    13    15    1
    68    50    51    2
    69    22    18   am
    70    22    23    1
    71    46    47    1
    72    99    98    1
    73    99   100    2
    74   105   103   ar
    75   105   107   ar
    76   103   102   ar
    77    18    19    2
    78   145   146    1
    79    98    97    1
    80    98   101    1
    81    65    64    2
    82    23    24    1
    83   107   106   ar
    84   102   101    1
    85   102   104   ar
    86    25    24    2
    87   119   118    2
    88   126   125    2
    89    64    63    1
    90    66    68    1
    91    66    67    1
    92    66    63    1
    93   151   148    1
    94    67    69    1
    95   147   148    1
    96   106   104   ar
    97   125   124    1
    98    63    62    1
    99   118   117    1
   100   118   123   am
   101   148   149    1
   102    33    31    1
   103   124   123    1
   104   124   127    1
   105    61    59    1
   106    31    30    1
   107   117   120    1
   108   117   116    1
   109   120   122    1
   110   120   121    1
   111    29    28    2
   112   130   128    1
   113    28    27    1
   114    32    30    1
   115   127   128    1
   116    59    60    1
   117    59    58    1
   118   149   150    2
   119    30    27    1
   120   128   129    1
   121     7     6    1
   122    27    26    1
   123     8     6    1
   124     5     6    1
   125     5     2    1
   126    58    55    1
   127     3     2    1
   128     3     4    2
   129     2     1    1
   130    54    55    1
   131    55    56    1
   132   114   112    1
   133   115   113    1
   134   152   153    1
   135   153   156    1
   136   153   154    1
   137   156   157    1
   138    56    57    2
   139   112   113    1
   140   112   109    1
   141   154   155    2
   142   111   110    2
   143   110   109    1
   144   109   108    1
