@<TRIPOS>MOLECULE
tmp/3egqA00.pdb
 125 118 0 0 0
SMALL
GASTEIGER

@<TRIPOS>ATOM
      1  N         52.0720   29.7430   56.8300 N.3    56  PHE56      -0.1241
      2  CA        50.5980   29.6880   56.8150 C.3    56  PHE56       0.1605
      3  C         49.8990   30.1810   58.0840 C.2    56  PHE56       0.2264
      4  O         48.8510   30.7940   57.9590 O.2    56  PHE56      -0.2867
      5  CB        50.0490   28.2920   56.5030 C.3    56  PHE56       0.0534
      6  CG        50.3030   27.8410   55.1110 C.ar   56  PHE56      -0.0203
      7  CD1       49.8060   28.6070   54.0150 C.ar   56  PHE56      -0.0042
      8  CD2       50.8620   26.5790   54.8410 C.ar   56  PHE56      -0.0042
      9  CE1       49.9740   28.1790   52.6660 C.ar   56  PHE56      -0.0003
     10  CE2       51.0340   26.1420   53.4780 C.ar   56  PHE56      -0.0003
     11  CZ        50.5880   26.9380   52.4030 C.ar   56  PHE56      -0.0000
     12  N         45.1170   37.8800   57.8730 N.3    61  PHE61      -0.1241
     13  CA        44.0900   37.9930   56.8020 C.3    61  PHE61       0.1605
     14  C         42.7490   38.2900   57.4860 C.2    61  PHE61       0.2264
     15  O         42.0090   37.3600   57.8490 O.2    61  PHE61      -0.2867
     16  CB        44.0220   36.7500   55.8780 C.3    61  PHE61       0.0534
     17  CG        42.9370   36.8550   54.8180 C.ar   61  PHE61      -0.0203
     18  CD1       43.1110   37.7120   53.7010 C.ar   61  PHE61      -0.0042
     19  CD2       41.7140   36.1510   54.9610 C.ar   61  PHE61      -0.0042
     20  CE1       42.0760   37.8620   52.7060 C.ar   61  PHE61      -0.0003
     21  CE2       40.6680   36.2700   53.9780 C.ar   61  PHE61      -0.0003
     22  CZ        40.8480   37.1260   52.8390 C.ar   61  PHE61      -0.0000
     23  N         39.7730   42.6250   50.1110 N.3    69  VAL69      -0.1245
     24  CA        39.9160   41.2320   49.6610 C.3    69  VAL69       0.1561
     25  C         40.5230   41.2940   48.2530 C.2    69  VAL69       0.2260
     26  O         41.4690   40.5540   47.9890 O.2    69  VAL69      -0.2867
     27  CB        38.5790   40.4170   49.7230 C.3    69  VAL69       0.0252
     28  CG1       38.7560   38.9860   49.1870 C.3    69  VAL69       0.0019
     29  CG2       38.0370   40.4050   51.1560 C.3    69  VAL69       0.0019
     30  N         44.1990   42.4560   48.5280 N.3    72  TYR72      -0.1227
     31  CA        45.0170   41.3490   49.0480 C.3    72  TYR72       0.1736
     32  C         45.3850   40.3770   47.9010 C.2    72  TYR72       0.2596
     33  O         46.5410   40.0060   47.7790 O.2    72  TYR72      -0.2718
     34  CB        44.3050   40.6210   50.1980 C.3    72  TYR72       0.0548
     35  CG        45.1210   39.5410   50.8720 C.ar   72  TYR72      -0.0200
     36  CD1       45.9730   39.8520   51.9690 C.ar   72  TYR72      -0.0009
     37  CD2       45.0550   38.1880   50.4280 C.ar   72  TYR72      -0.0009
     38  CE1       46.7680   38.8090   52.6260 C.ar   72  TYR72       0.0417
     39  CE2       45.8390   37.1370   51.0650 C.ar   72  TYR72       0.0417
     40  CZ        46.6890   37.4590   52.1580 C.ar   72  TYR72       0.1957
     41  OH        47.4290   36.4760   52.7630 O.3    72  TYR72      -0.2866
     42  N         44.4030   40.0020   47.0800 N.am   73  GLY73      -0.1957
     43  CA        44.5810   39.0980   45.9260 C.3    73  GLY73       0.1869
     44  C         45.5200   39.6750   44.8780 C.2    73  GLY73       0.2309
     45  O         46.4380   38.9840   44.4520 O.2    73  GLY73      -0.2863
     46  N         49.1570   39.7940   46.1320 N.3    76  PHE76      -0.1241
     47  CA        49.8350   38.4890   45.9970 C.3    76  PHE76       0.1605
     48  C         50.3440   38.2580   44.5600 C.2    76  PHE76       0.2264
     49  O         51.4650   37.8140   44.3960 O.2    76  PHE76      -0.2867
     50  CB        48.9390   37.3420   46.4510 C.3    76  PHE76       0.0534
     51  CG        49.5630   35.9860   46.3140 C.ar   76  PHE76      -0.0203
     52  CD1       50.5520   35.5670   47.2240 C.ar   76  PHE76      -0.0042
     53  CD2       49.1420   35.1010   45.2900 C.ar   76  PHE76      -0.0042
     54  CE1       51.1370   34.2640   47.1250 C.ar   76  PHE76      -0.0003
     55  CE2       49.7040   33.7790   45.1730 C.ar   76  PHE76      -0.0003
     56  CZ        50.7170   33.3630   46.0820 C.ar   76  PHE76      -0.0000
     57  N         51.3710   24.6980   49.7920 N.3    89  LEU89      -0.1245
     58  CA        50.0170   24.0770   49.7600 C.3    89  LEU89       0.1561
     59  C         50.0870   22.5580   49.5220 C.2    89  LEU89       0.2260
     60  O         49.2410   21.8520   50.0570 O.2    89  LEU89      -0.2867
     61  CB        49.0890   24.7000   48.7120 C.3    89  LEU89       0.0270
     62  CG        48.7470   26.1930   48.8290 C.3    89  LEU89       0.0019
     63  CD1       48.0820   26.6810   47.5570 C.3    89  LEU89       0.0001
     64  CD2       47.9090   26.5000   50.0400 C.3    89  LEU89       0.0001
     65  N         44.3910   22.2210   55.0310 N.3    97  LEU97      -0.1245
     66  CA        44.0910   23.0690   53.8390 C.3    97  LEU97       0.1561
     67  C         42.5820   23.4250   53.8010 C.2    97  LEU97       0.2260
     68  O         42.2320   24.5790   53.5510 O.2    97  LEU97      -0.2867
     69  CB        44.5130   22.3830   52.5340 C.3    97  LEU97       0.0270
     70  CG        44.2720   23.0200   51.1700 C.3    97  LEU97       0.0019
     71  CD1       44.7810   24.4610   51.1020 C.3    97  LEU97       0.0001
     72  CD2       44.9230   22.1460   50.0830 C.3    97  LEU97       0.0001
     73  N         40.9080   27.3270   54.2390 N.3   100  PHE100     -0.1241
     74  CA        39.9630   27.8250   53.2010 C.3   100  PHE100      0.1605
     75  C         38.5920   28.2040   53.8150 C.2   100  PHE100      0.2264
     76  O         38.0030   29.2060   53.4020 O.2   100  PHE100     -0.2867
     77  CB        39.7560   26.8460   52.0410 C.3   100  PHE100      0.0534
     78  CG        38.9740   27.4380   50.8960 C.ar  100  PHE100     -0.0203
     79  CD1       39.6470   28.2070   49.9100 C.ar  100  PHE100     -0.0042
     80  CD2       37.5570   27.2580   50.7990 C.ar  100  PHE100     -0.0042
     81  CE1       38.9190   28.8010   48.8030 C.ar  100  PHE100     -0.0003
     82  CE2       36.8030   27.8510   49.7220 C.ar  100  PHE100     -0.0003
     83  CZ        37.4920   28.6280   48.7110 C.ar  100  PHE100     -0.0000
     84  N         38.9880   31.4500   55.7910 N.3   103  ALA103     -0.1245
     85  CA        39.1460   32.5730   54.8130 C.3   103  ALA103      0.1562
     86  C         37.7560   32.8930   54.1750 C.2   103  ALA103      0.2260
     87  O         37.3260   34.0770   54.1690 O.2   103  ALA103     -0.2867
     88  CB        40.2210   32.2850   53.7360 C.3   103  ALA103      0.0290
     89  N         35.3430   36.2390   54.0330 N.3   107  VAL107     -0.1245
     90  CA        34.9680   36.8530   52.7250 C.3   107  VAL107      0.1561
     91  C         33.4310   36.8450   52.5420 C.2   107  VAL107      0.2260
     92  O         32.8650   37.9140   52.2070 O.2   107  VAL107     -0.2867
     93  CB        35.7390   36.2820   51.5040 C.3   107  VAL107      0.0252
     94  CG1       35.2820   36.9580   50.1840 C.3   107  VAL107      0.0019
     95  CG2       37.2410   36.4830   51.6870 C.3   107  VAL107      0.0019
     96  N         40.7580   35.3860   41.7510 N.3   126  LEU126     -0.1231
     97  CA        42.0630   35.8620   42.3130 C.3   126  LEU126      0.1693
     98  C         43.1540   34.7680   42.2670 C.2   126  LEU126      0.2592
     99  O         44.2510   35.0310   41.7650 O.2   126  LEU126     -0.2718
    100  CB        41.8990   36.4850   43.7220 C.3   126  LEU126      0.0284
    101  CG        41.0420   37.7580   43.7940 C.3   126  LEU126      0.0019
    102  CD1       40.7450   38.1820   45.2430 C.3   126  LEU126      0.0001
    103  CD2       41.6690   38.9020   43.0100 C.3   126  LEU126      0.0001
    104  N         42.7960   33.5560   42.6960 N.am  127  ASP127     -0.1974
    105  CA        43.6690   32.3490   42.6630 C.3   127  ASP127      0.1709
    106  C         44.0150   31.9000   41.2590 C.2   127  ASP127      0.2293
    107  O         45.1670   31.5150   41.0000 O.2   127  ASP127     -0.2864
    108  CB        43.0370   31.1680   43.4420 C.3   127  ASP127      0.1436
    109  CG        42.9670   31.4200   44.9810 C.2   127  ASP127      0.3671
    110  OD1       43.5760   32.3910   45.5110 O.co2 127  ASP127     -0.2456
    111  OD2       42.3120   30.6170   45.6830 O.co2 127  ASP127     -0.2456
    112  N         46.5250   34.2670   39.8140 N.3   130  SER130     -0.1202
    113  CA        47.8840   34.0260   40.3770 C.3   130  SER130      0.2020
    114  C         48.5740   32.8170   39.7010 C.2   130  SER130      0.2618
    115  O         49.7890   32.8890   39.4510 O.2   130  SER130     -0.2717
    116  CB        47.8800   33.9280   41.9020 C.3   130  SER130      0.2103
    117  OG        47.1660   32.8090   42.3850 O.3   130  SER130     -0.2182
    118  N         47.8170   31.7490   39.3770 N.am  131  ILE131     -0.1979
    119  CA        48.3510   30.5470   38.6650 C.3   131  ILE131      0.1595
    120  C         48.7320   31.0160   37.2560 C.2   131  ILE131      0.2287
    121  O         49.8420   30.7810   36.8530 O.2   131  ILE131     -0.2864
    122  CB        47.3680   29.3390   38.6300 C.3   131  ILE131      0.0276
    123  CG1       47.0640   28.8180   40.0410 C.3   131  ILE131      0.0022
    124  CG2       47.9240   28.1490   37.8140 C.3   131  ILE131      0.0022
    125  CD1       45.7820   27.9210   40.0650 C.3   131  ILE131      0.0001
@<TRIPOS>BOND
     1   121   120    2
     2   120   119    1
     3   124   122    1
     4   122   119    1
     5   122   123    1
     6   119   118    1
     7   118   114   am
     8   115   114    2
     9   114   113    1
    10   112   113    1
    11   123   125    1
    12   113   116    1
    13   107   106    2
    14   106   105    1
    15    96    97    1
    16    99    98    2
    17   116   117    1
    18    98    97    1
    19    98   104   am
    20    97   100    1
    21   105   104    1
    22   105   108    1
    23   103   101    1
    24   108   109    1
    25   100   101    1
    26   101   102    1
    27    49    48    2
    28    45    44    2
    29    48    47    1
    30    44    43    1
    31   109   110   ar
    32   109   111   ar
    33    55    53   ar
    34    55    56   ar
    35    53    51   ar
    36    43    42    1
    37    47    46    1
    38    47    50    1
    39    56    54   ar
    40    51    50    1
    41    51    52   ar
    42    42    32   am
    43    54    52   ar
    44    63    62    1
    45    33    32    2
    46    32    31    1
    47    26    25    2
    48    25    24    1
    49    30    31    1
    50    83    81   ar
    51    83    82   ar
    52    61    62    1
    53    61    58    1
    54    81    79   ar
    55    62    64    1
    56    31    34    1
    57    28    27    1
    58    59    58    1
    59    59    60    2
    60    24    27    1
    61    24    23    1
    62    82    80   ar
    63    27    29    1
    64    58    57    1
    65    79    78   ar
    66    72    70    1
    67    94    93    1
    68    34    35    1
    69    37    35   ar
    70    37    39   ar
    71    80    78   ar
    72    35    36   ar
    73    78    77    1
    74    39    40   ar
    75    71    70    1
    76    70    69    1
    77    93    95    1
    78    93    90    1
    79    36    38   ar
    80    77    74    1
    81    40    38   ar
    82    40    41    1
    83    92    91    2
    84    11     9   ar
    85    11    10   ar
    86    69    66    1
    87    91    90    1
    88     9     7   ar
    89    20    22   ar
    90    20    18   ar
    91    90    89    1
    92    22    21   ar
    93    74    75    1
    94    74    73    1
    95    76    75    2
    96    10     8   ar
    97    68    67    2
    98    18    17   ar
    99    88    85    1
   100    67    66    1
   101    66    65    1
   102    21    19   ar
   103     7     6   ar
   104    87    86    2
   105    86    85    1
   106    85    84    1
   107    17    19   ar
   108    17    16    1
   109     8     6   ar
   110     6     5    1
   111    16    13    1
   112     5     2    1
   113    13    14    1
   114    13    12    1
   115     2     1    1
   116     2     3    1
   117    14    15    2
   118     4     3    2
