@<TRIPOS>MOLECULE
tmp/3egxB00.pdb
 133 123 0 0 0
SMALL
GASTEIGER

@<TRIPOS>ATOM
      1  N         36.7230   61.8320   59.4830 N.3    85  ARG85      -0.1245
      2  CA        37.0990   61.2650   58.1800 C.3    85  ARG85       0.1563
      3  C         38.5650   61.4950   57.7690 C.2    85  ARG85       0.2260
      4  O         39.1020   62.5820   57.9650 O.2    85  ARG85      -0.2867
      5  CB        36.1690   61.8450   57.1180 C.3    85  ARG85       0.0307
      6  CG        34.6950   61.6090   57.4110 C.3    85  ARG85       0.0489
      7  CD        33.8450   62.2290   56.3420 C.3    85  ARG85       0.2205
      8  NE        34.4200   61.9940   55.0260 N.pl3  85  ARG85      -0.0865
      9  CZ        33.7510   62.1360   53.8960 C.cat  85  ARG85       0.5346
     10  NH1       32.4790   62.5090   53.9300 N.pl3  85  ARG85       0.1354
     11  NH2       34.3570   61.9230   52.7390 N.pl3  85  ARG85       0.1354
     12  N         43.0180   62.3150   53.6970 N.3    88  SER88      -0.1202
     13  CA        43.6030   62.0240   52.3970 C.3    88  SER88       0.2020
     14  C         42.6130   61.4700   51.3870 C.2    88  SER88       0.2619
     15  O         42.4990   61.9980   50.2880 O.2    88  SER88      -0.2717
     16  CB        44.7830   61.0450   52.5430 C.3    88  SER88       0.2103
     17  OG        46.0150   61.7130   52.7800 O.3    88  SER88      -0.2182
     18  N         41.9000   60.4100   51.7560 N.am   89  CYS89      -0.1955
     19  CA        40.9440   59.7780   50.8500 C.3    89  CYS89       0.1843
     20  C         39.4970   59.9570   51.3010 C.2    89  CYS89       0.2625
     21  O         38.5730   59.4360   50.6850 O.2    89  CYS89      -0.2714
     22  CB        41.2470   58.2930   50.7370 C.3    89  CYS89       0.0997
     23  SG        40.7130   57.3780   52.1840 S.3    89  CYS89      -0.0797
     24  N         39.3150   60.6730   52.3990 N.am   90  ARG90      -0.1977
     25  CA        37.9900   60.9610   52.9290 C.3    90  ARG90       0.1597
     26  C         37.1050   59.7590   53.2660 C.2    90  ARG90       0.2287
     27  O         35.9000   59.7810   53.0410 O.2    90  ARG90      -0.2864
     28  CB        37.2650   61.9030   51.9660 C.3    90  ARG90       0.0334
     29  CG        38.0560   63.1760   51.6490 C.3    90  ARG90       0.0492
     30  CD        38.3690   64.0020   52.9120 C.3    90  ARG90       0.2205
     31  NE        37.2100   64.7220   53.4570 N.pl3  90  ARG90      -0.0865
     32  CZ        37.0640   65.0460   54.7430 C.cat  90  ARG90       0.5346
     33  NH1       38.0010   64.7110   55.6240 N.pl3  90  ARG90       0.1354
     34  NH2       35.9910   65.7130   55.1560 N.pl3  90  ARG90       0.1354
     35  N         35.1740   57.2120   55.8140 N.3    92  TYR92      -0.1241
     36  CA        34.5150   57.3740   57.0940 C.3    92  TYR92       0.1605
     37  C         35.1250   56.4560   58.1290 C.2    92  TYR92       0.2264
     38  O         35.1140   55.2360   57.9720 O.2    92  TYR92      -0.2867
     39  CB        33.0260   57.1050   56.9400 C.3    92  TYR92       0.0534
     40  CG        32.3360   58.2050   56.1850 C.ar   92  TYR92      -0.0201
     41  CD1       31.7920   59.2940   56.8590 C.ar   92  TYR92      -0.0009
     42  CD2       32.2410   58.1780   54.8010 C.ar   92  TYR92      -0.0009
     43  CE1       31.1650   60.3250   56.1770 C.ar   92  TYR92       0.0417
     44  CE2       31.6140   59.2050   54.1120 C.ar   92  TYR92       0.0417
     45  CZ        31.0750   60.2760   54.8010 C.ar   92  TYR92       0.1957
     46  OH        30.4220   61.2910   54.1240 O.3    92  TYR92      -0.2866
     47  N         27.9400   71.8350   55.0420 N.3   139  GLU139     -0.1231
     48  CA        28.8110   71.8020   53.8550 C.3   139  GLU139      0.1699
     49  C         28.3770   70.7230   52.8730 C.2   139  GLU139      0.2592
     50  O         28.6120   70.8200   51.6700 O.2   139  GLU139     -0.2718
     51  CB        30.2760   71.5190   54.2340 C.3   139  GLU139      0.0402
     52  CG        30.9610   72.5780   55.0710 C.3   139  GLU139      0.1161
     53  CD        30.2570   72.7960   56.3890 C.2   139  GLU139      0.3649
     54  OE1       29.9530   71.7830   57.0620 O.co2 139  GLU139     -0.2457
     55  OE2       30.0120   73.9730   56.7480 O.co2 139  GLU139     -0.2457
     56  N         27.7400   69.6920   53.4110 N.am  140  TYR140     -0.1976
     57  CA        27.2910   68.5490   52.6300 C.3   140  TYR140      0.1639
     58  C         26.0080   68.7330   51.8240 C.2   140  TYR140      0.2290
     59  O         25.3210   67.7630   51.5170 O.2   140  TYR140     -0.2864
     60  CB        27.1520   67.3350   53.5550 C.3   140  TYR140      0.0560
     61  CG        28.4760   66.8540   54.1200 C.ar  140  TYR140     -0.0198
     62  CD1       28.6970   65.5000   54.3590 C.ar  140  TYR140     -0.0009
     63  CD2       29.5260   67.7430   54.3660 C.ar  140  TYR140     -0.0009
     64  CE1       29.9240   65.0400   54.8120 C.ar  140  TYR140      0.0417
     65  CE2       30.7580   67.2910   54.8230 C.ar  140  TYR140      0.0417
     66  CZ        30.9460   65.9380   55.0370 C.ar  140  TYR140      0.1957
     67  OH        32.1650   65.4730   55.4430 O.3   140  TYR140     -0.2866
     68  N         24.2180   71.3180   48.5890 N.3   142  LEU142     -0.1245
     69  CA        24.3830   72.3780   47.6200 C.3   142  LEU142      0.1561
     70  C         23.1630   73.2720   47.6000 C.2   142  LEU142      0.2260
     71  O         23.1020   74.2060   46.8140 O.2   142  LEU142     -0.2867
     72  CB        24.5880   71.7840   46.2300 C.3   142  LEU142      0.0270
     73  CG        25.6930   70.7510   45.9840 C.3   142  LEU142      0.0019
     74  CD1       25.5900   69.5730   46.9620 C.3   142  LEU142      0.0001
     75  CD2       25.5750   70.2620   44.5380 C.3   142  LEU142      0.0001
     76  N         23.3680   60.8660   46.4270 N.3   389  VAL389     -0.1245
     77  CA        24.4840   60.3900   45.6310 C.3   389  VAL389      0.1561
     78  C         25.2110   59.3440   46.4560 C.2   389  VAL389      0.2260
     79  O         25.1130   59.2970   47.6820 O.2   389  VAL389     -0.2867
     80  CB        25.5330   61.4820   45.2540 C.3   389  VAL389      0.0252
     81  CG1       24.9050   62.5480   44.4430 C.3   389  VAL389      0.0019
     82  CG2       26.1770   62.0690   46.4960 C.3   389  VAL389      0.0019
     83  N         29.0280   57.0230   46.7120 N.3   391  ARG391     -0.1245
     84  CA        30.4040   56.8100   46.3220 C.3   391  ARG391      0.1563
     85  C         30.7500   55.4880   47.0010 C.2   391  ARG391      0.2260
     86  O         30.2270   55.1760   48.0720 O.2   391  ARG391     -0.2867
     87  CB        31.3270   57.9390   46.8160 C.3   391  ARG391      0.0307
     88  CG        32.8490   57.6410   46.6530 C.3   391  ARG391      0.0489
     89  CD        33.4760   58.1850   45.3690 C.3   391  ARG391      0.2205
     90  NE        33.6500   59.6290   45.4620 N.pl3 391  ARG391     -0.0865
     91  CZ        33.8200   60.4440   44.4300 C.cat 391  ARG391      0.5346
     92  NH1       33.8500   59.9570   43.1980 N.pl3 391  ARG391      0.1354
     93  NH2       33.9140   61.7500   44.6390 N.pl3 391  ARG391      0.1354
     94  N         34.1970   53.2220   48.0020 N.3   393  ARG393     -0.1245
     95  CA        35.6510   53.2600   48.0710 C.3   393  ARG393      0.1563
     96  C         36.1750   51.8960   48.4230 C.2   393  ARG393      0.2260
     97  O         35.4860   51.0980   49.0640 O.2   393  ARG393     -0.2867
     98  CB        36.1450   54.2000   49.1590 C.3   393  ARG393      0.0307
     99  CG        35.8650   55.6460   48.9680 C.3   393  ARG393      0.0489
    100  CD        36.6480   56.4390   49.9910 C.3   393  ARG393      0.2205
    101  NE        36.3890   57.8480   49.7940 N.pl3 393  ARG393     -0.0865
    102  CZ        35.1790   58.3690   49.9100 C.cat 393  ARG393      0.5346
    103  NH1       34.1660   57.5710   50.2330 N.pl3 393  ARG393      0.1354
    104  NH2       34.9780   59.6630   49.6760 N.pl3 393  ARG393      0.1354
    105  N         30.7810   58.7180   41.4420 N.3   414  LEU414     -0.1245
    106  CA        29.9310   59.6750   42.0640 C.3   414  LEU414      0.1561
    107  C         28.7470   59.3170   41.3360 C.2   414  LEU414      0.2260
    108  O         28.4280   59.9060   40.3290 O.2   414  LEU414     -0.2867
    109  CB        30.3710   61.0680   41.7200 C.3   414  LEU414      0.0270
    110  CG        29.5460   61.8980   42.6440 C.3   414  LEU414      0.0019
    111  CD1       30.1740   61.5350   43.9760 C.3   414  LEU414      0.0001
    112  CD2       29.6340   63.3820   42.3610 C.3   414  LEU414      0.0001
    113  N         29.1670   55.2240   50.9000 N.3   447  ALA447     -0.1245
    114  CA        28.4280   56.2280   51.6380 C.3   447  ALA447      0.1562
    115  C         27.2500   56.7060   50.7920 C.2   447  ALA447      0.2260
    116  O         27.3870   56.9810   49.5980 O.2   447  ALA447     -0.2867
    117  CB        29.3350   57.3910   51.9890 C.3   447  ALA447      0.0290
    118  N         24.8390   59.6240   50.4430 N.3   449  LEU449     -0.1245
    119  CA        24.5330   60.9850   50.8290 C.3   449  LEU449      0.1561
    120  C         23.1570   61.3770   50.3190 C.2   449  LEU449      0.2260
    121  O         22.9320   61.3960   49.1160 O.2   449  LEU449     -0.2867
    122  CB        25.5700   61.9070   50.2300 C.3   449  LEU449      0.0270
    123  CG        25.0420   63.3210   50.2400 C.3   449  LEU449      0.0019
    124  CD1       25.1710   63.8990   51.6560 C.3   449  LEU449      0.0001
    125  CD2       25.7810   64.1010   49.1500 C.3   449  LEU449      0.0001
    126  N         23.9110   60.8510   55.6210 N.3   459  ILE459     -0.1245
    127  CA        24.8220   59.9400   54.9570 C.3   459  ILE459      0.1561
    128  C         24.6110   58.5340   55.5370 C.2   459  ILE459      0.2260
    129  O         24.4010   58.3780   56.7470 O.2   459  ILE459     -0.2867
    130  CB        26.2630   60.3490   55.2170 C.3   459  ILE459      0.0252
    131  CG1       26.4670   61.8060   54.8240 C.3   459  ILE459      0.0019
    132  CG2       27.1970   59.4640   54.4320 C.3   459  ILE459      0.0019
    133  CD1       27.8810   62.2910   55.0660 C.3   459  ILE459      0.0001
@<TRIPOS>BOND
     1   108   107    2
     2   107   106    1
     3   105   106    1
     4   109   106    1
     5   109   110    1
     6   112   110    1
     7   110   111    1
     8    92    91    1
     9    91    93    1
    10    91    90    2
    11    81    80    1
    12    75    73    1
    13    80    77    1
    14    80    82    1
    15    89    90    1
    16    89    88    1
    17    77    76    1
    18    77    78    1
    19    73    72    1
    20    73    74    1
    21    72    69    1
    22    84    83    1
    23    84    87    1
    24    84    85    1
    25    78    79    2
    26    88    87    1
    27    71    70    2
    28    85    86    2
    29    70    69    1
    30    69    68    1
    31    94    95    1
    32    95    96    1
    33    95    98    1
    34    96    97    2
    35    99    98    1
    36    99   100    1
    37   121   120    2
    38   125   123    1
    39   116   115    2
    40   104   102    1
    41   101   102    2
    42   101   100    1
    43   102   103    1
    44   122   123    1
    45   122   119    1
    46   123   124    1
    47    15    14    2
    48   120   119    1
    49   118   119    1
    50    21    20    2
    51    22    19    1
    52    22    23    1
    53   115   114    1
    54    19    20    1
    55    19    18    1
    56   113   114    1
    57    20    24   am
    58    14    18   am
    59    14    13    1
    60    59    58    2
    61   114   117    1
    62    29    28    1
    63    29    30    1
    64    50    49    2
    65    58    57    1
    66    28    25    1
    67    13    16    1
    68    13    12    1
    69    24    25    1
    70    16    17    1
    71    57    56    1
    72    57    60    1
    73    11     9    1
    74    49    56   am
    75    49    48    1
    76    30    31    1
    77    25    26    1
    78    27    26    2
    79    31    32    2
    80    60    61    1
    81    48    51    1
    82    48    47    1
    83     9    10    1
    84     9     8    2
    85    44    45   ar
    86    44    42   ar
    87    61    62   ar
    88    61    63   ar
    89    46    45    1
    90    51    52    1
    91    62    64   ar
    92    63    65   ar
    93   132   130    1
    94    32    34    1
    95    32    33    1
    96    45    43   ar
    97    42    40   ar
    98    64    66   ar
    99    65    66   ar
   100   131   133    1
   101   131   130    1
   102   127   130    1
   103   127   128    1
   104   127   126    1
   105     8     7    1
   106    66    67    1
   107    52    53    1
   108   128   129    2
   109    35    36    1
   110    43    41   ar
   111    40    41   ar
   112    40    39    1
   113     7     6    1
   114    53    55   ar
   115    53    54   ar
   116    39    36    1
   117    36    37    1
   118     5     6    1
   119     5     2    1
   120     3     4    2
   121     3     2    1
   122    38    37    2
   123     2     1    1
