@<TRIPOS>MOLECULE
tmp/3eh9A00.pdb
 138 127 0 0 0
SMALL
GASTEIGER

@<TRIPOS>ATOM
      1  N        -29.6590   -1.0230  -13.2540 N.3    18  LEU18      -0.1231
      2  CA       -29.0870    0.1850  -13.8450 C.3    18  LEU18       0.1693
      3  C        -27.7670   -0.0780  -14.5240 C.2    18  LEU18       0.2593
      4  O        -27.3460    0.6620  -15.4270 O.2    18  LEU18      -0.2718
      5  CB       -28.8700    1.2380  -12.7520 C.3    18  LEU18       0.0284
      6  CG       -30.1340    1.7850  -12.0870 C.3    18  LEU18       0.0019
      7  CD1      -29.8360    2.5050  -10.7700 C.3    18  LEU18       0.0001
      8  CD2      -30.8500    2.7260  -13.0310 C.3    18  LEU18       0.0001
      9  N        -27.0750   -1.1100  -14.0640 N.am   19  GLY19      -0.1942
     10  CA       -25.7860   -1.4230  -14.6130 C.3    19  GLY19       0.2014
     11  C        -25.1170   -2.5780  -13.9110 C.2    19  GLY19       0.2640
     12  O        -25.5890   -3.0740  -12.8890 O.2    19  GLY19      -0.2714
     13  N        -24.0060   -2.9880  -14.4980 N.am   20  SER20      -0.1935
     14  CA       -23.2900   -4.1820  -14.1210 C.3    20  SER20       0.2055
     15  C        -21.8170   -3.8720  -14.1180 C.2    20  SER20       0.2643
     16  O        -21.3470   -2.8980  -14.7270 O.2    20  SER20      -0.2714
     17  CB       -23.5230   -5.2790  -15.1660 C.3    20  SER20       0.2130
     18  OG       -24.5900   -6.1380  -14.8110 O.3    20  SER20      -0.2179
     19  N        -21.0730   -4.7320  -13.4470 N.am   21  GLY21      -0.1954
     20  CA       -19.6350   -4.7210  -13.5850 C.3    21  GLY21       0.1869
     21  C        -19.1010   -6.0700  -13.2010 C.2    21  GLY21       0.2309
     22  O        -19.8700   -7.0040  -12.9190 O.2    21  GLY21      -0.2863
     23  N        -20.0480   -6.5320   -9.4650 N.3    24  ALA24      -0.1245
     24  CA       -21.1080   -5.6700   -8.9190 C.3    24  ALA24       0.1562
     25  C        -22.3030   -5.5860   -9.8520 C.2    24  ALA24       0.2260
     26  O        -22.1520   -5.6660  -11.0710 O.2    24  ALA24      -0.2867
     27  CB       -20.5720   -4.2820   -8.6550 C.3    24  ALA24       0.0290
     28  N        -25.8590   -3.0360  -10.0880 N.3    26  VAL26      -0.1245
     29  CA       -26.4760   -1.8010   -9.5600 C.3    26  VAL26       0.1561
     30  C        -27.9440   -1.7680   -9.9510 C.2    26  VAL26       0.2260
     31  O        -28.2620   -1.8830  -11.1240 O.2    26  VAL26      -0.2867
     32  CB       -25.7700   -0.5250  -10.0890 C.3    26  VAL26       0.0252
     33  CG1      -26.3440    0.7210   -9.4030 C.3    26  VAL26       0.0019
     34  CG2      -24.2630   -0.5960   -9.8540 C.3    26  VAL26       0.0019
     35  N        -29.5240    4.2890   -5.8600 N.3    39  ALA39      -0.1245
     36  CA       -28.9540    3.1960   -6.6380 C.3    39  ALA39       0.1562
     37  C        -28.2380    2.2600   -5.6800 C.2    39  ALA39       0.2260
     38  O        -27.2880    2.6740   -4.9730 O.2    39  ALA39      -0.2867
     39  CB       -27.9910    3.7160   -7.6990 C.3    39  ALA39       0.0290
     40  N        -25.7800   -0.6260   -5.0580 N.3    41  LYS41      -0.1245
     41  CA       -24.6610   -1.3300   -5.6910 C.3    41  LYS41       0.1561
     42  C        -24.2930   -2.5410   -4.8390 C.2    41  LYS41       0.2260
     43  O        -23.7770   -2.3820   -3.7310 O.2    41  LYS41      -0.2867
     44  CB       -23.4630   -0.3810   -5.8370 C.3    41  LYS41       0.0271
     45  CG       -22.2340   -1.0300   -6.4240 C.3    41  LYS41       0.0035
     46  CD       -21.2220    0.0660   -6.7910 C.3    41  LYS41       0.0206
     47  CE       -19.8440   -0.5660   -7.0830 C.3    41  LYS41       0.1093
     48  NZ       -18.8080    0.4390   -7.5680 N.3    41  LYS41      -0.1314
     49  N        -20.7730   11.4780   -6.9010 N.3    75  ILE75      -0.1245
     50  CA       -21.7900   10.6770   -6.2350 C.3    75  ILE75       0.1561
     51  C        -21.6400   10.7200   -4.7140 C.2    75  ILE75       0.2260
     52  O        -20.5290   10.8730   -4.1970 O.2    75  ILE75      -0.2867
     53  CB       -21.7200    9.2140   -6.7760 C.3    75  ILE75       0.0252
     54  CG1      -23.0850    8.5680   -6.7120 C.3    75  ILE75       0.0019
     55  CG2      -20.6150    8.4170   -6.1770 C.3    75  ILE75       0.0019
     56  CD1      -23.9840    9.2240   -7.7070 C.3    75  ILE75       0.0001
     57  N        -26.3350    4.2350   -2.9490 N.3    91  LEU91      -0.1231
     58  CA       -25.7330    5.4330   -3.5040 C.3    91  LEU91       0.1693
     59  C        -26.7690    6.3990   -4.0020 C.2    91  LEU91       0.2592
     60  O        -27.8840    6.0280   -4.3130 O.2    91  LEU91      -0.2718
     61  CB       -24.8130    5.0740   -4.7080 C.3    91  LEU91       0.0284
     62  CG       -23.6690    4.0690   -4.4840 C.3    91  LEU91       0.0019
     63  CD1      -23.1400    3.5820   -5.8310 C.3    91  LEU91       0.0001
     64  CD2      -22.5580    4.6890   -3.6520 C.3    91  LEU91       0.0001
     65  N        -26.3930    7.6690   -4.0970 N.am   92  GLU92      -0.1966
     66  CA       -27.2100    8.6510   -4.8070 C.3    92  GLU92       0.1733
     67  C        -27.5530    8.1460   -6.1980 C.2    92  GLU92       0.2616
     68  O        -26.6730    7.6640   -6.9060 O.2    92  GLU92      -0.2715
     69  CB       -26.3960    9.9350   -4.9590 C.3    92  GLU92       0.0429
     70  CG       -27.1280   11.0360   -5.6900 C.3    92  GLU92       0.1163
     71  CD       -26.2920   12.3070   -5.7980 C.2    92  GLU92       0.3649
     72  OE1      -25.0570   12.2630   -5.6140 O.co2  92  GLU92      -0.2457
     73  OE2      -26.8870   13.3570   -6.0700 O.co2  92  GLU92      -0.2457
     74  N        -28.8260    8.2430   -6.5760 N.am   93  LEU93      -0.1963
     75  CA       -29.2850    7.8130   -7.9150 C.3    93  LEU93       0.1728
     76  C        -28.9480    8.8880   -8.9470 C.2    93  LEU93       0.2616
     77  O        -29.3060   10.0580   -8.7700 O.2    93  LEU93      -0.2715
     78  CB       -30.8010    7.5800   -7.9120 C.3    93  LEU93       0.0311
     79  CG       -31.4660    7.2280   -9.2510 C.3    93  LEU93       0.0022
     80  CD1      -30.8740    5.9330   -9.8160 C.3    93  LEU93       0.0001
     81  CD2      -32.9820    7.1130   -9.1080 C.3    93  LEU93       0.0001
     82  N        -28.2990    8.4900  -10.0360 N.am   94  VAL94      -0.1977
     83  CA       -28.0730    9.4050  -11.1540 C.3    94  VAL94       0.1596
     84  C        -28.8570    8.8270  -12.3320 C.2    94  VAL94       0.2287
     85  O        -28.5040    7.7720  -12.8500 O.2    94  VAL94      -0.2864
     86  CB       -26.5780    9.5640  -11.4900 C.3    94  VAL94       0.0276
     87  CG1      -26.3470   10.7950  -12.3630 C.3    94  VAL94       0.0022
     88  CG2      -25.7670    9.7040  -10.1850 C.3    94  VAL94       0.0022
     89  N        -25.1700    7.0670  -18.5580 N.3    98  GLU98      -0.1245
     90  CA       -23.7350    7.3240  -18.7020 C.3    98  GLU98       0.1567
     91  C        -23.4570    8.3400  -19.7900 C.2    98  GLU98       0.2260
     92  O        -24.1280    8.3470  -20.8300 O.2    98  GLU98      -0.2867
     93  CB       -22.9870    6.0370  -19.0660 C.3    98  GLU98       0.0388
     94  CG       -22.9950    4.9560  -17.9960 C.3    98  GLU98       0.1160
     95  CD       -22.5070    3.6350  -18.5470 C.2    98  GLU98       0.3649
     96  OE1      -21.8850    3.6400  -19.6400 O.co2  98  GLU98      -0.2457
     97  OE2      -22.7540    2.5920  -17.9030 O.co2  98  GLU98      -0.2457
     98  N        -17.8960    5.9760  -19.1890 N.3   140  GLU140     -0.1182
     99  CA       -18.7670    5.0250  -18.4570 C.3   140  GLU140      0.1915
    100  C        -19.0070    5.4640  -16.9990 C.2   140  GLU140      0.2634
    101  O        -20.0420    5.1350  -16.3770 O.2   140  GLU140     -0.2714
    102  CB       -18.1630    3.5860  -18.5270 C.2   140  GLU140      0.0085
    103  CG       -18.6980    2.5180  -17.5210 C.2   140  GLU140      0.0835
    104  CD       -18.3760    1.0260  -17.8720 C.2   140  GLU140      0.3877
    105  OE1      -17.1760    0.6480  -17.9890 O.co2 140  GLU140     -0.2406
    106  OE2      -19.3370    0.2460  -17.9950 O.co2 140  GLU140     -0.2406
    107  N        -17.9960    6.1230  -16.4340 N.am  141  ASN141     -0.1972
    108  CA       -18.0140    6.5470  -15.0360 C.3   141  ASN141      0.1688
    109  C        -18.3690    8.0260  -14.7920 C.2   141  ASN141      0.2292
    110  O        -18.1160    8.5770  -13.7080 O.2   141  ASN141     -0.2864
    111  CB       -16.6680    6.1840  -14.3840 C.3   141  ASN141      0.1181
    112  CG       -16.5260    4.6920  -14.1530 C.2   141  ASN141      0.2629
    113  OD1      -15.4120    4.1470  -14.0230 O.2   141  ASN141     -0.2716
    114  ND2      -17.6610    4.0070  -14.1170 N.am  141  ASN141     -0.0877
    115  N        -21.8590   10.1380  -15.0710 N.3   143  MET143     -0.1245
    116  CA       -23.3120    9.9500  -15.2550 C.3   143  MET143      0.1570
    117  C        -23.9810   11.3120  -15.3580 C.2   143  MET143      0.2261
    118  O        -23.5550   12.2620  -14.7170 O.2   143  MET143     -0.2867
    119  CB       -23.9200    9.2490  -14.0350 C.3   143  MET143      0.0387
    120  CG       -23.3760    7.8930  -13.6870 C.3   143  MET143      0.0595
    121  SD       -23.9710    6.6710  -14.8290 S.3   143  MET143     -0.1393
    122  CE       -25.7750    6.8190  -14.7610 C.3   143  MET143      0.0692
    123  N        -18.8550    8.7610  -10.8900 N.3   157  ILE157     -0.1231
    124  CA       -19.2400    7.5480  -10.1380 C.3   157  ILE157      0.1692
    125  C        -18.0870    6.5300  -10.0940 C.2   157  ILE157      0.2592
    126  O        -17.0250    6.7880  -10.6790 O.2   157  ILE157     -0.2718
    127  CB       -20.4950    6.8820  -10.7370 C.3   157  ILE157      0.0266
    128  CG1      -20.2120    6.3490  -12.1450 C.3   157  ILE157      0.0019
    129  CG2      -21.6710    7.8760  -10.7070 C.3   157  ILE157      0.0020
    130  CD1      -21.0060    5.0850  -12.4810 C.3   157  ILE157      0.0001
    131  N        -18.3150    5.4030   -9.4000 N.am  158  ASP158     -0.1974
    132  CA       -17.4070    4.2410   -9.3860 C.3   158  ASP158      0.1709
    133  C        -16.0560    4.5120   -8.7310 C.2   158  ASP158      0.2293
    134  O        -15.0300    4.7550   -9.4070 O.2   158  ASP158     -0.2864
    135  CB       -17.1790    3.6450  -10.7780 C.3   158  ASP158      0.1436
    136  CG       -16.4190    2.3210  -10.7220 C.2   158  ASP158      0.3671
    137  OD1      -16.1490    1.8160   -9.6090 O.co2 158  ASP158     -0.2456
    138  OD2      -16.0570    1.8370  -11.8000 O.co2 158  ASP158     -0.2456
@<TRIPOS>BOND
     1    92    91    2
     2    91    90    1
     3    96    95   ar
     4    98    99    1
     5    93    90    1
     6    93    94    1
     7    90    89    1
     8    95    94    1
     9    95    97   ar
    10   102    99    1
    11   102   103    2
    12    99   100    1
    13   106   104   ar
    14   105   104   ar
    15   104   103    1
    16   100   107   am
    17   100   101    2
    18   107   108    1
    19     4     3    2
    20   117   116    1
    21   117   118    2
    22   116   115    1
    23   116   119    1
    24    17    18    1
    25    17    14    1
    26   108   109    1
    27   108   111    1
    28   121   122    1
    29   121   120    1
    30   109   110    2
    31    16    15    2
    32    10     9    1
    33    10    11    1
    34     3     9   am
    35     3     2    1
    36    13    14    1
    37    13    11   am
    38   111   112    1
    39   112   114   am
    40   112   113    2
    41    14    15    1
    42    15    19   am
    43   119   120    1
    44    11    12    2
    45     2     1    1
    46     2     5    1
    47    20    19    1
    48    20    21    1
    49    21    22    2
    50     8     6    1
    51    85    84    2
    52     5     6    1
    53   130   128    1
    54    87    86    1
    55    84    83    1
    56   128   127    1
    57     6     7    1
    58   138   136   ar
    59    86    83    1
    60    86    88    1
    61    83    82    1
    62    31    30    2
    63    26    25    2
    64   123   124    1
    65   135   136    1
    66   135   132    1
    67   127   129    1
    68   127   124    1
    69   136   137   ar
    70   126   125    2
    71   124   125    1
    72   125   131   am
    73    32    34    1
    74    32    29    1
    75    32    33    1
    76    28    29    1
    77    82    76   am
    78    30    29    1
    79    25    24    1
    80    80    79    1
    81    23    24    1
    82   134   133    2
    83   131   132    1
    84   132   133    1
    85    79    81    1
    86    79    78    1
    87    76    77    2
    88    76    75    1
    89    24    27    1
    90    75    78    1
    91    75    74    1
    92    56    54    1
    93    39    36    1
    94    48    47    1
    95    47    46    1
    96    68    67    2
    97    49    50    1
    98    46    45    1
    99    53    54    1
   100    53    50    1
   101    53    55    1
   102    36    35    1
   103    36    37    1
   104    74    67   am
   105    45    44    1
   106    50    51    1
   107    67    66    1
   108    73    71   ar
   109    44    41    1
   110    63    62    1
   111    71    70    1
   112    71    72   ar
   113    41    40    1
   114    41    42    1
   115    70    69    1
   116    37    38    2
   117    69    66    1
   118    42    43    2
   119    66    65    1
   120    51    52    2
   121    61    62    1
   122    61    58    1
   123    62    64    1
   124    60    59    2
   125    65    59   am
   126    59    58    1
   127    58    57    1
