@<TRIPOS>MOLECULE
tmp/3ehgA00.pdb
 169 161 0 0 0
SMALL
GASTEIGER

@<TRIPOS>ATOM
      1  N         22.0550   41.9800   11.0440 N.3    47  GLU47      -0.1231
      2  CA        21.8770   43.4270   10.7760 C.3    47  GLU47       0.1699
      3  C         20.4730   43.9450   11.1460 C.2    47  GLU47       0.2592
      4  O         20.3300   45.0500   11.7080 O.2    47  GLU47      -0.2718
      5  CB        22.1490   43.7540    9.3170 C.3    47  GLU47       0.0402
      6  CG        21.7850   45.1910    8.8860 C.3    47  GLU47       0.1161
      7  CD        22.4650   46.3350    9.6410 C.2    47  GLU47       0.3649
      8  OE1       23.4440   46.1700   10.4450 O.co2  47  GLU47      -0.2457
      9  OE2       22.0300   47.4720    9.3820 O.co2  47  GLU47      -0.2457
     10  N         19.4440   43.1630   10.8510 N.am   48  ALA48      -0.1980
     11  CA        18.0320   43.5490   11.1860 C.3    48  ALA48       0.1597
     12  C         17.9710   43.7770   12.7000 C.2    48  ALA48       0.2287
     13  O         17.4460   44.7690   13.1480 O.2    48  ALA48      -0.2864
     14  CB        17.0870   42.4830   10.7610 C.3    48  ALA48       0.0319
     15  N         20.6530   44.2680   14.8760 N.3    50  THR50      -0.1203
     16  CA        21.5310   45.4290   15.1880 C.3    50  THR50       0.1994
     17  C         20.6960   46.7040   15.0560 C.2    50  THR50       0.2618
     18  O         20.7770   47.6080   15.8840 O.2    50  THR50      -0.2717
     19  CB        22.7170   45.4890   14.2360 C.3    50  THR50       0.1784
     20  OG1       23.4860   44.2880   14.4390 O.3    50  THR50      -0.2211
     21  CG2       23.5810   46.7080   14.5010 C.3    50  THR50       0.0376
     22  N         19.8820   46.7760   13.9940 N.am   51  ASN51      -0.1960
     23  CA        19.1170   47.9880   13.7630 C.3    51  ASN51       0.1819
     24  C         18.0310   48.1770   14.8460 C.2    51  ASN51       0.2621
     25  O         17.7390   49.2900   15.2650 O.2    51  ASN51      -0.2715
     26  CB        18.4440   47.9800   12.3890 C.3    51  ASN51       0.1195
     27  CG        19.3690   48.3390   11.2510 C.2    51  ASN51       0.2630
     28  OD1       20.4490   48.9010   11.4450 O.2    51  ASN51      -0.2716
     29  ND2       18.9300   47.9880   10.0160 N.am   51  ASN51      -0.0877
     30  N         17.3950   47.0820   15.2390 N.am   52  VAL52      -0.1977
     31  CA        16.4030   47.1330   16.3080 C.3    52  VAL52       0.1596
     32  C         17.0970   47.7140   17.5560 C.2    52  VAL52       0.2287
     33  O         16.5910   48.6350   18.1900 O.2    52  VAL52      -0.2864
     34  CB        15.8110   45.7410   16.6270 C.3    52  VAL52       0.0276
     35  CG1       14.9780   45.7630   17.9300 C.3    52  VAL52       0.0022
     36  CG2       14.9590   45.2620   15.4240 C.3    52  VAL52       0.0022
     37  N         19.9330   49.4600   18.0080 N.3    54  LYS54      -0.1231
     38  CA        20.5980   50.7720   17.8790 C.3    54  LYS54       0.1693
     39  C         19.6080   51.8720   17.6950 C.2    54  LYS54       0.2592
     40  O         19.9020   53.0120   18.0670 O.2    54  LYS54      -0.2718
     41  CB        21.4630   50.8200   16.5870 C.3    54  LYS54       0.0285
     42  CG        22.6860   49.9910   16.5860 C.3    54  LYS54       0.0035
     43  CD        23.7650   50.5270   15.6150 C.3    54  LYS54       0.0206
     44  CE        23.3650   50.7940   14.1800 C.3    54  LYS54       0.1093
     45  NZ        24.7040   51.0570   13.4660 N.3    54  LYS54      -0.1314
     46  N         18.4500   51.5760   17.0630 N.am   55  HIS55      -0.1962
     47  CA        17.5450   52.6540   16.6410 C.3    55  HIS55       0.1787
     48  C         16.1000   52.6350   17.1930 C.2    55  HIS55       0.2620
     49  O         15.5010   53.6800   17.2980 O.2    55  HIS55      -0.2715
     50  CB        17.3820   52.6970   15.1050 C.3    55  HIS55       0.0785
     51  CG        18.6600   52.6500   14.3270 C.ar   55  HIS55       0.0821
     52  ND1       19.5870   53.6780   14.3350 N.ar   55  HIS55      -0.2267
     53  CD2       19.0990   51.7410   13.4040 C.ar   55  HIS55       0.1154
     54  CE1       20.5700   53.3750   13.5000 C.ar   55  HIS55       0.1986
     55  NE2       20.3100   52.2040   12.9360 N.ar   55  HIS55      -0.2212
     56  N         15.5450   51.4820   17.4740 N.am   56  SER56      -0.1950
     57  CA        14.0660   51.3660   17.5310 C.3    56  SER56       0.1924
     58  C         13.4350   51.9480   18.8010 C.2    56  SER56       0.2314
     59  O         12.3400   52.4800   18.7670 O.2    56  SER56      -0.2863
     60  CB        13.6190   49.9130   17.3700 C.3    56  SER56       0.2116
     61  OG        13.9640   49.1100   18.4820 O.3    56  SER56      -0.2180
     62  N          9.6640   44.9280   15.1470 N.3    78  ASP78      -0.1239
     63  CA         9.7630   45.4830   16.4590 C.3    78  ASP78       0.1674
     64  C          8.6900   46.5460   16.6660 C.2    78  ASP78       0.2266
     65  O          8.1120   47.0540   15.7000 O.2    78  ASP78      -0.2867
     66  CB        11.1670   46.0240   16.6700 C.3    78  ASP78       0.1410
     67  CG        11.4180   47.3710   15.9360 C.2    78  ASP78       0.3668
     68  OD1       10.7960   48.3630   16.3210 O.co2  78  ASP78      -0.2456
     69  OD2       12.2730   47.4330   14.9690 O.co2  78  ASP78      -0.2456
     70  N          9.8490   52.8320   17.2230 N.3    81  THR81      -0.1203
     71  CA         9.4780   53.7940   16.1830 C.3    81  THR81       0.1994
     72  C         10.6110   53.9360   15.1770 C.2    81  THR81       0.2618
     73  O         11.8000   53.9970   15.5180 O.2    81  THR81      -0.2717
     74  CB         9.1000   55.1830   16.7310 C.3    81  THR81       0.1784
     75  OG1       10.1680   55.7290   17.5130 O.3    81  THR81      -0.2211
     76  CG2        7.8460   55.1350   17.6640 C.3    81  THR81       0.0376
     77  N         10.2280   53.9420   13.9010 N.am   82  PHE82      -0.1961
     78  CA        11.1950   54.0400   12.8280 C.3    82  PHE82       0.1771
     79  C         11.8140   55.4300   12.7970 C.2    82  PHE82       0.2619
     80  O         11.1190   56.4500   12.9070 O.2    82  PHE82      -0.2715
     81  CB        10.5680   53.6630   11.4670 C.3    82  PHE82       0.0574
     82  CG        11.5740   53.5500   10.3730 C.ar   82  PHE82      -0.0200
     83  CD1       12.4120   52.4670   10.2960 C.ar   82  PHE82      -0.0042
     84  CD2       11.6780   54.5900    9.4030 C.ar   82  PHE82      -0.0042
     85  CE1       13.3740   52.3630    9.2930 C.ar   82  PHE82      -0.0003
     86  CE2       12.6400   54.4910    8.3850 C.ar   82  PHE82      -0.0003
     87  CZ        13.4850   53.3830    8.3600 C.ar   82  PHE82      -0.0000
     88  N         13.1290   55.4770   12.6470 N.am   83  LYS83      -0.1963
     89  CA        13.8560   56.7470   12.7830 C.3    83  LYS83       0.1728
     90  C         14.4100   57.3040   11.4650 C.2    83  LYS83       0.2616
     91  O         15.0190   58.3760   11.4560 O.2    83  LYS83      -0.2715
     92  CB        15.0400   56.5660   13.7490 C.3    83  LYS83       0.0311
     93  CG        14.6470   56.1330   15.1710 C.3    83  LYS83       0.0038
     94  CD        13.6010   56.9960   15.8360 C.3    83  LYS83       0.0206
     95  CE        13.5730   56.7090   17.3620 C.3    83  LYS83       0.1093
     96  NZ        13.2330   55.2450   17.5780 N.3    83  LYS83      -0.1314
     97  N         14.1870   56.6060   10.3750 N.am   84  GLY84      -0.1955
     98  CA        14.8020   56.9470    9.1180 C.3    84  GLY84       0.1869
     99  C         13.9870   57.9260    8.3170 C.2    84  GLY84       0.2309
    100  O         12.8290   58.2260    8.6340 O.2    84  GLY84      -0.2863
    101  N         15.1630   55.5420    3.2720 N.3    88  SER88      -0.1217
    102  CA        16.2090   55.1910    4.2490 C.3    88  SER88       0.1889
    103  C         17.2690   54.2260    3.7150 C.2    88  SER88       0.2288
    104  O         18.0750   53.7450    4.4490 O.2    88  SER88      -0.2866
    105  CB        15.5520   54.5620    5.4620 C.3    88  SER88       0.2089
    106  OG        14.8400   55.5430    6.1300 O.3    88  SER88      -0.2183
    107  N         20.4140   54.0160    1.9470 N.3    90  SER90      -0.1217
    108  CA        21.5490   54.8170    1.4760 C.3    90  SER90       0.1889
    109  C         22.7800   53.9610    1.2980 C.2    90  SER90       0.2288
    110  O         23.0080   52.9860    2.0480 O.2    90  SER90      -0.2866
    111  CB        21.8440   55.9750    2.4390 C.3    90  SER90       0.2089
    112  OG        22.0810   55.4530    3.7150 O.3    90  SER90      -0.2183
    113  N         26.3380   52.6110    1.5960 N.3    92  GLY92      -0.1210
    114  CA        27.2650   52.3970    2.6840 C.3    92  GLY92       0.1956
    115  C         26.6380   51.9150    3.9610 C.2    92  GLY92       0.2612
    116  O         27.3430   51.8140    4.9740 O.2    92  GLY92      -0.2717
    117  N         25.3310   51.6220    3.9380 N.am   93  HIS93      -0.1961
    118  CA        24.5980   51.2750    5.1770 C.3    93  HIS93       0.1787
    119  C         23.7980   50.0190    4.9790 C.2    93  HIS93       0.2621
    120  O         23.7010   49.5190    3.8340 O.2    93  HIS93      -0.2715
    121  CB        23.7770   52.4780    5.6790 C.3    93  HIS93       0.0785
    122  CG        24.6280   53.6530    6.0250 C.ar   93  HIS93       0.0821
    123  ND1       25.4520   53.6870    7.1410 N.ar   93  HIS93      -0.2267
    124  CD2       24.8030   54.8340    5.3950 C.ar   93  HIS93       0.1154
    125  CE1       26.0990   54.8440    7.1700 C.ar   93  HIS93       0.1986
    126  NE2       25.7170   55.5610    6.1310 N.ar   93  HIS93      -0.2212
    127  N         23.2610   49.4800    6.0960 N.am   94  GLY94      -0.1940
    128  CA        22.7640   48.1460    6.1760 C.3    94  GLY94       0.2014
    129  C         21.4790   47.8850    5.4130 C.2    94  GLY94       0.2639
    130  O         21.3440   46.7950    4.8240 O.2    94  GLY94      -0.2714
    131  N         20.5420   48.8400    5.3750 N.am   95  LEU95      -0.1963
    132  CA        19.2640   48.5440    4.6410 C.3    95  LEU95       0.1728
    133  C         19.5230   48.3140    3.1430 C.2    95  LEU95       0.2616
    134  O         19.0940   47.2850    2.5960 O.2    95  LEU95      -0.2715
    135  CB        18.1700   49.5780    4.8530 C.3    95  LEU95       0.0311
    136  CG        17.5360   49.5460    6.2440 C.3    95  LEU95       0.0022
    137  CD1       16.6320   50.8370    6.4040 C.3    95  LEU95       0.0001
    138  CD2       16.7620   48.2420    6.4570 C.3    95  LEU95       0.0001
    139  N         20.2470   49.2200    2.5380 N.am   96  LEU96      -0.1977
    140  CA        20.5590   49.0970    1.1150 C.3    96  LEU96       0.1596
    141  C         21.5500   47.9330    0.9040 C.2    96  LEU96       0.2287
    142  O         21.4680   47.2350   -0.1090 O.2    96  LEU96      -0.2864
    143  CB        21.0740   50.3560    0.5640 C.3    96  LEU96       0.0297
    144  CG        21.2970   50.3470   -0.9530 C.3    96  LEU96       0.0022
    145  CD1       20.0170   49.8890   -1.7160 C.3    96  LEU96       0.0001
    146  CD2       21.8290   51.6600   -1.4230 C.3    96  LEU96       0.0001
    147  N         10.2600   46.4920    3.5150 N.3   111  ILE111     -0.1245
    148  CA        10.1690   47.1660    4.8020 C.3   111  ILE111      0.1561
    149  C          8.8130   47.8020    4.9650 C.2   111  ILE111      0.2260
    150  O          8.2530   48.4460    4.0580 O.2   111  ILE111     -0.2867
    151  CB        11.3750   48.1950    4.9930 C.3   111  ILE111      0.0252
    152  CG1       11.4150   48.7200    6.4410 C.3   111  ILE111      0.0019
    153  CG2       11.3000   49.3050    4.0200 C.3   111  ILE111      0.0019
    154  CD1       12.7380   49.4460    6.8010 C.3   111  ILE111      0.0001
    155  N          8.7940   48.8450   13.0490 N.3   117  THR117     -0.1218
    156  CA         9.5400   48.5520   11.8260 C.3   117  THR117      0.1862
    157  C          9.4720   47.0590   11.6170 C.2   117  THR117      0.2287
    158  O          9.7860   46.2860   12.5340 O.2   117  THR117     -0.2866
    159  CB        11.0080   48.9490   11.9650 C.3   117  THR117      0.1770
    160  OG1       11.0420   50.3480   12.3450 O.3   117  THR117     -0.2211
    161  CG2       11.8310   48.6480   10.6690 C.3   117  THR117      0.0375
    162  N         10.8350   44.1830    8.7430 N.3   119  LEU119     -0.1245
    163  CA        11.6650   43.8230    7.5950 C.3   119  LEU119      0.1561
    164  C         11.2780   42.4090    7.1670 C.2   119  LEU119      0.2260
    165  O         11.2110   41.4780    8.0060 O.2   119  LEU119     -0.2867
    166  CB        13.1410   43.7890    7.9660 C.3   119  LEU119      0.0270
    167  CG        13.9670   45.0500    7.8930 C.3   119  LEU119      0.0019
    168  CD1       15.3660   44.7270    8.3050 C.3   119  LEU119      0.0001
    169  CD2       13.9600   45.6070    6.4390 C.3   119  LEU119      0.0001
@<TRIPOS>BOND
     1   145   144    1
     2   146   144    1
     3   144   143    1
     4   142   141    2
     5   143   140    1
     6   141   140    1
     7   140   139    1
     8   109   108    1
     9   109   110    2
    10   108   107    1
    11   108   111    1
    12   113   114    1
    13   111   112    1
    14   139   133   am
    15   134   133    2
    16   114   115    1
    17   133   132    1
    18   101   102    1
    19   147   148    1
    20   103   102    1
    21   103   104    2
    22   120   119    2
    23   117   115   am
    24   117   118    1
    25   115   116    2
    26   153   151    1
    27   150   149    2
    28   102   105    1
    29   132   135    1
    30   132   131    1
    31   148   149    1
    32   148   151    1
    33   130   129    2
    34   135   136    1
    35   119   118    1
    36   119   127   am
    37   151   152    1
    38   118   121    1
    39   131   129   am
    40   124   122   ar
    41   124   126   ar
    42   129   128    1
    43   105   106    1
    44   121   122    1
    45   122   123   ar
    46   127   128    1
    47   126   125   ar
    48   136   137    1
    49   136   138    1
    50   169   167    1
    51   152   154    1
    52   123   125   ar
    53   164   163    1
    54   164   165    2
    55   163   166    1
    56   163   162    1
    57   167   166    1
    58   167   168    1
    59    99   100    2
    60    99    98    1
    61    87    86   ar
    62    87    85   ar
    63    86    84   ar
    64     6     5    1
    65     6     7    1
    66    98    97    1
    67    85    83   ar
    68     5     2    1
    69     9     7   ar
    70    84    82   ar
    71     7     8   ar
    72    29    27   am
    73    83    82   ar
    74    82    81    1
    75    97    90   am
    76   161   159    1
    77    14    11    1
    78     2     1    1
    79     2     3    1
    80    10     3   am
    81    10    11    1
    82     3     4    2
    83    11    12    1
    84    27    28    2
    85    27    26    1
    86    91    90    2
    87    90    89    1
    88    81    78    1
    89   157   156    1
    90   157   158    2
    91   156   159    1
    92   156   155    1
    93   159   160    1
    94    26    23    1
    95    88    89    1
    96    88    79   am
    97    12    13    2
    98    89    92    1
    99    79    78    1
   100    79    80    2
   101    78    77    1
   102    55    53   ar
   103    55    54   ar
   104    53    51   ar
   105    45    44    1
   106    54    52   ar
   107    92    93    1
   108    23    22    1
   109    23    24    1
   110    77    72   am
   111    22    17   am
   112    44    43    1
   113    19    20    1
   114    19    21    1
   115    19    16    1
   116    51    52   ar
   117    51    50    1
   118    24    30   am
   119    24    25    2
   120    15    16    1
   121    69    67   ar
   122    17    16    1
   123    17    18    2
   124    50    47    1
   125    62    63    1
   126    93    94    1
   127    72    73    2
   128    72    71    1
   129    30    31    1
   130    36    34    1
   131    43    42    1
   132    65    64    2
   133    94    95    1
   134    67    68   ar
   135    67    66    1
   136    71    74    1
   137    71    70    1
   138    31    34    1
   139    31    32    1
   140    63    64    1
   141    63    66    1
   142    42    41    1
   143    41    38    1
   144    34    35    1
   145    47    46    1
   146    47    48    1
   147    74    75    1
   148    74    76    1
   149    46    39   am
   150    48    49    2
   151    48    56   am
   152    95    96    1
   153    60    57    1
   154    60    61    1
   155    56    57    1
   156    57    58    1
   157    32    33    2
   158    39    38    1
   159    39    40    2
   160    38    37    1
   161    59    58    2
