@<TRIPOS>MOLECULE
tmp/3ehhA00.pdb
 138 133 0 0 0
SMALL
GASTEIGER

@<TRIPOS>ATOM
      1  N          9.2270   58.1090   23.1040 N.3   117  GLU117     -0.1231
      2  CA         9.4950   56.9700   22.2270 C.3   117  GLU117      0.1699
      3  C          8.2790   56.6570   21.3360 C.2   117  GLU117      0.2592
      4  O          8.4650   56.3410   20.1780 O.2   117  GLU117     -0.2718
      5  CB         9.8740   55.7370   23.0410 C.3   117  GLU117      0.0402
      6  CG        10.1120   54.4990   22.2050 C.3   117  GLU117      0.1161
      7  CD        11.2680   54.6490   21.1600 C.2   117  GLU117      0.3649
      8  OE1       12.1500   55.5200   21.3270 O.co2 117  GLU117     -0.2457
      9  OE2       11.2880   53.8940   20.1890 O.co2 117  GLU117     -0.2457
     10  N          7.0610   56.7430   21.9040 N.am  118  ALA118     -0.1980
     11  CA         5.8020   56.5040   21.1630 C.3   118  ALA118      0.1597
     12  C          5.6400   57.4230   19.9330 C.2   118  ALA118      0.2287
     13  O          5.2880   56.9700   18.8520 O.2   118  ALA118     -0.2864
     14  CB         4.5310   56.6360   22.1110 C.3   118  ALA118      0.0319
     15  N          8.2740   56.8070   17.2670 N.3   121  ASN121     -0.1225
     16  CA         7.8890   55.6880   16.4590 C.3   121  ASN121      0.1785
     17  C          6.8090   56.1010   15.4460 C.2   121  ASN121      0.2597
     18  O          6.8140   55.6110   14.3360 O.2   121  ASN121     -0.2718
     19  CB         7.3760   54.5380   17.3210 C.3   121  ASN121      0.1169
     20  CG         8.4900   53.6690   17.8620 C.2   121  ASN121      0.2627
     21  OD1        9.6410   53.7750   17.4620 O.2   121  ASN121     -0.2716
     22  ND2        8.1400   52.8220   18.8080 N.am  121  ASN121     -0.0877
     23  N          5.9020   56.9960   15.8470 N.am  122  VAL122     -0.1980
     24  CA         4.8900   57.5250   14.9340 C.3   122  VAL122      0.1595
     25  C          5.5780   58.2050   13.7340 C.2   122  VAL122      0.2287
     26  O          5.1970   57.9960   12.5750 O.2   122  VAL122     -0.2864
     27  CB         3.9010   58.5140   15.6560 C.3   122  VAL122      0.0276
     28  CG1        2.9960   59.2730   14.6300 C.3   122  VAL122      0.0022
     29  CG2        3.0070   57.7860   16.6660 C.3   122  VAL122      0.0022
     30  N          8.8520   57.8580   12.7370 N.3   124  LYS124     -0.1231
     31  CA         9.7180   57.0330   11.9060 C.3   124  LYS124      0.1693
     32  C          8.9890   55.8810   11.1980 C.2   124  LYS124      0.2592
     33  O          9.4390   55.4440   10.1820 O.2   124  LYS124     -0.2718
     34  CB        10.9010   56.5130   12.7320 C.3   124  LYS124      0.0285
     35  CG        11.6690   57.6740   13.4410 C.3   124  LYS124      0.0035
     36  CD        13.0660   57.3010   13.9230 C.3   124  LYS124      0.0206
     37  CE        13.9210   58.5700   14.1670 C.3   124  LYS124      0.1093
     38  NZ        14.7600   58.5450   15.4170 N.3   124  LYS124     -0.1314
     39  N          7.8800   55.3720   11.7350 N.am  125  HIS125     -0.1962
     40  CA         7.3410   54.1020   11.2320 C.3   125  HIS125      0.1787
     41  C          5.9260   54.1370   10.6650 C.2   125  HIS125      0.2620
     42  O          5.6060   53.3240    9.8170 O.2   125  HIS125     -0.2715
     43  CB         7.3830   53.0290   12.3190 C.3   125  HIS125      0.0785
     44  CG         8.7520   52.7760   12.8610 C.ar  125  HIS125      0.0821
     45  ND1        9.8180   52.4570   12.0590 N.ar  125  HIS125     -0.2267
     46  CD2        9.2320   52.8010   14.1260 C.ar  125  HIS125      0.1154
     47  CE1       10.8960   52.2910   12.7980 C.ar  125  HIS125      0.1986
     48  NE2       10.5690   52.4880   14.0580 N.ar  125  HIS125     -0.2212
     49  N          5.0690   55.0150   11.1690 N.am  126  SER126     -0.1950
     50  CA         3.6300   54.8670   10.9330 C.3   126  SER126      0.1924
     51  C          3.1740   55.2770    9.5390 C.2   126  SER126      0.2314
     52  O          2.2360   54.6910    9.0150 O.2   126  SER126     -0.2863
     53  CB         2.8270   55.6670   11.9580 C.3   126  SER126      0.2116
     54  OG         2.9940   57.0510   11.7740 O.3   126  SER126     -0.2180
     55  N         -2.1690   56.8180   16.3450 N.3   148  ASP148     -0.1239
     56  CA        -1.9080   57.3530   15.0420 C.3   148  ASP148      0.1674
     57  C         -2.7650   56.6070   14.0380 C.2   148  ASP148      0.2266
     58  O         -3.2690   55.5080   14.2990 O.2   148  ASP148     -0.2867
     59  CB        -0.4130   57.2980   14.6800 C.3   148  ASP148      0.1410
     60  CG         0.0890   55.8820   14.4260 C.2   148  ASP148      0.3668
     61  OD1       -0.4100   55.2400   13.4710 O.co2 148  ASP148     -0.2456
     62  OD2        0.9890   55.4250   15.1950 O.co2 148  ASP148     -0.2456
     63  N         -0.0940   52.7520    9.6110 N.3   151  THR151     -0.1203
     64  CA        -0.2290   51.2920    9.6560 C.3   151  THR151      0.1994
     65  C          0.9740   50.6750   10.3920 C.2   151  THR151      0.2618
     66  O          2.1190   51.0740   10.1610 O.2   151  THR151     -0.2717
     67  CB        -0.3280   50.7220    8.2540 C.3   151  THR151      0.1784
     68  OG1        0.8130   51.1300    7.4960 O.3   151  THR151     -0.2211
     69  CG2       -1.5780   51.2340    7.5530 C.3   151  THR151      0.0376
     70  N          0.7120   49.7120   11.2720 N.am  152  PHE152     -0.1961
     71  CA         1.7670   49.0900   12.0700 C.3   152  PHE152      0.1771
     72  C          2.6550   48.1830   11.2260 C.2   152  PHE152      0.2619
     73  O          2.1640   47.3460   10.4830 O.2   152  PHE152     -0.2715
     74  CB         1.1760   48.2840   13.2200 C.3   152  PHE152      0.0574
     75  CG         2.1990   47.8080   14.1960 C.ar  152  PHE152     -0.0200
     76  CD1        2.7500   48.6860   15.1280 C.ar  152  PHE152     -0.0042
     77  CD2        2.6230   46.4910   14.1860 C.ar  152  PHE152     -0.0042
     78  CE1        3.7030   48.2620   16.0320 C.ar  152  PHE152     -0.0003
     79  CE2        3.5720   46.0610   15.0980 C.ar  152  PHE152     -0.0003
     80  CZ         4.1160   46.9540   16.0230 C.ar  152  PHE152     -0.0000
     81  N          3.9660   48.3340   11.3830 N.am  153  LYS153     -0.1963
     82  CA         4.9220   47.6790   10.5080 C.3   153  LYS153      0.1728
     83  C          5.5190   46.3860   11.0590 C.2   153  LYS153      0.2616
     84  O          5.9860   45.5560   10.2900 O.2   153  LYS153     -0.2715
     85  CB         6.0200   48.6810   10.1380 C.3   153  LYS153      0.0311
     86  CG         5.4650   49.9660    9.4980 C.3   153  LYS153      0.0038
     87  CD         4.5550   49.6480    8.2800 C.3   153  LYS153      0.0206
     88  CE         4.2680   50.8690    7.4260 C.3   153  LYS153      0.1093
     89  NZ         3.5710   51.9530    8.1780 N.3   153  LYS153     -0.1314
     90  N          5.4800   46.1970   12.3750 N.am  154  GLY154     -0.1955
     91  CA         6.0890   45.0230   13.0170 C.3   154  GLY154      0.1869
     92  C          5.7830   43.7000   12.3330 C.2   154  GLY154      0.2309
     93  O          4.8380   43.0090   12.7010 O.2   154  GLY154     -0.2863
     94  N         14.7000   47.5170   20.8670 N.3   155  HIS155     -0.1226
     95  CA        14.9690   48.8690   21.3360 C.3   155  HIS155      0.1752
     96  C         13.7660   49.4490   22.0600 C.2   155  HIS155      0.2597
     97  O         13.5630   49.2230   23.2610 O.2   155  HIS155     -0.2718
     98  CB        15.3300   49.8430   20.1790 C.3   155  HIS155      0.0759
     99  CG        15.7860   51.2000   20.6950 C.ar  155  HIS155      0.0818
    100  ND1       16.0210   52.2480   19.8400 N.ar  155  HIS155     -0.2268
    101  CD2       16.0690   51.6770   21.9530 C.ar  155  HIS155      0.1154
    102  CE1       16.3910   53.3270   20.5670 C.ar  155  HIS155      0.1986
    103  NE2       16.4190   53.0020   21.8470 N.ar  155  HIS155     -0.2212
    104  N         12.9470   50.1710   21.3030 N.am  156  GLY156     -0.1942
    105  CA        11.9060   51.0150   21.8410 C.3   156  GLY156      0.2014
    106  C         10.7900   50.3580   22.6370 C.2   156  GLY156      0.2639
    107  O         10.5670   50.7290   23.7750 O.2   156  GLY156     -0.2714
    108  N         10.0850   49.4080   22.0310 N.am  157  LEU157     -0.1963
    109  CA         8.8600   48.8720   22.6120 C.3   157  LEU157      0.1728
    110  C          9.0970   48.0590   23.8920 C.2   157  LEU157      0.2616
    111  O          8.3020   48.1460   24.8500 O.2   157  LEU157     -0.2715
    112  CB         8.0870   48.0380   21.5810 C.3   157  LEU157      0.0311
    113  CG         7.3360   48.8550   20.5190 C.3   157  LEU157      0.0022
    114  CD1        6.7860   47.9280   19.4000 C.3   157  LEU157      0.0001
    115  CD2        6.2210   49.7160   21.1490 C.3   157  LEU157      0.0001
    116  N         10.1790   47.2840   23.9140 N.am  158  LEU158     -0.1977
    117  CA        10.5390   46.5300   25.1130 C.3   158  LEU158      0.1596
    118  C         11.1130   47.4920   26.1740 C.2   158  LEU158      0.2287
    119  O         10.7860   47.3700   27.3450 O.2   158  LEU158     -0.2864
    120  CB        11.4850   45.3670   24.7850 C.3   158  LEU158      0.0297
    121  CG        11.2960   43.9980   25.4910 C.3   158  LEU158      0.0022
    122  CD1       12.5690   43.5380   26.2230 C.3   158  LEU158      0.0001
    123  CD2       10.0770   43.9520   26.4450 C.3   158  LEU158      0.0001
    124  N         -2.1510   52.5110   14.9760 N.3   178  THR178     -0.1218
    125  CA        -1.4740   52.0400   16.1930 C.3   178  THR178      0.1862
    126  C         -1.8880   52.8910   17.4040 C.2   178  THR178      0.2287
    127  O         -1.7350   54.1060   17.3830 O.2   178  THR178     -0.2866
    128  CB         0.0590   52.1290   16.0230 C.3   178  THR178      0.1770
    129  OG1        0.4650   51.4220   14.8380 O.3   178  THR178     -0.2211
    130  CG2        0.7930   51.5670   17.2420 C.3   178  THR178      0.0375
    131  N         -1.0600   53.0890   21.4520 N.3   180  LEU180     -0.1245
    132  CA        -0.3250   52.7040   22.6590 C.3   180  LEU180      0.1561
    133  C         -1.0350   53.2840   23.8360 C.2   180  LEU180      0.2260
    134  O         -1.2030   54.4720   23.8990 O.2   180  LEU180     -0.2867
    135  CB         1.1030   53.2820   22.6520 C.3   180  LEU180      0.0270
    136  CG         2.2120   52.3840   22.0990 C.3   180  LEU180      0.0019
    137  CD1        1.8520   51.9050   20.7490 C.3   180  LEU180      0.0001
    138  CD2        3.5760   53.1000   22.1350 C.3   180  LEU180      0.0001
@<TRIPOS>BOND
     1    88    89    1
     2    88    87    1
     3    68    67    1
     4    69    67    1
     5    67    64    1
     6    87    86    1
     7    52    51    2
     8    86    85    1
     9    51    50    1
    10    63    64    1
    11    64    65    1
    12    42    41    2
    13    85    82    1
    14    66    65    2
    15    33    32    2
    16    84    83    2
    17    65    70   am
    18    73    72    2
    19    82    83    1
    20    82    81    1
    21    41    49   am
    22    41    40    1
    23    50    49    1
    24    50    53    1
    25    83    90   am
    26    32    39   am
    27    32    31    1
    28    72    81   am
    29    72    71    1
    30    40    39    1
    31    40    43    1
    32    70    71    1
    33    54    53    1
    34    31    34    1
    35    31    30    1
    36    45    47   ar
    37    45    44   ar
    38    71    74    1
    39    43    44    1
    40    92    93    2
    41    92    91    1
    42    90    91    1
    43    26    25    2
    44    34    35    1
    45    47    48   ar
    46    44    46   ar
    47    74    75    1
    48    35    36    1
    49    61    60   ar
    50    25    24    1
    51    36    37    1
    52    57    58    2
    53    57    56    1
    54    48    46   ar
    55    37    38    1
    56    77    75   ar
    57    77    79   ar
    58    75    76   ar
    59    18    17    2
    60    60    59    1
    61    60    62   ar
    62    28    27    1
    63    59    56    1
    64   129   128    1
    65    24    27    1
    66    24    23    1
    67   124   125    1
    68    56    55    1
    69    79    80   ar
    70    76    78   ar
    71    17    23   am
    72    17    16    1
    73    27    29    1
    74   128   125    1
    75   128   130    1
    76    80    78   ar
    77   125   126    1
    78    16    15    1
    79    16    19    1
    80    19    20    1
    81   127   126    2
    82    21    20    2
    83    20    22   am
    84    13    12    2
    85   114   113    1
    86   100   102   ar
    87   100    99   ar
    88    12    11    1
    89     4     3    2
    90    98    99    1
    91    98    95    1
    92     9     7   ar
    93   113   115    1
    94   113   112    1
    95   102   103   ar
    96    99   101   ar
    97   137   136    1
    98    94    95    1
    99     7     8   ar
   100     7     6    1
   101    11    10    1
   102    11    14    1
   103   104   105    1
   104   104    96   am
   105    95    96    1
   106     3    10   am
   107     3     2    1
   108   131   132    1
   109   112   109    1
   110   105   106    1
   111   103   101   ar
   112   108   109    1
   113   108   106   am
   114    96    97    2
   115   136   138    1
   116   136   135    1
   117     6     5    1
   118     2     5    1
   119     2     1    1
   120   109   110    1
   121   106   107    2
   122   135   132    1
   123   132   133    1
   124   133   134    2
   125   110   116   am
   126   110   111    2
   127   116   117    1
   128   120   117    1
   129   120   121    1
   130   117   118    1
   131   121   122    1
   132   121   123    1
   133   118   119    2
