@<TRIPOS>MOLECULE
tmp/3ehnA00.pdb
 119 111 0 0 0
SMALL
GASTEIGER

@<TRIPOS>ATOM
      1  N        -50.6340  -21.0170   21.9800 N.3    28  THR28      -0.1203
      2  CA       -49.4760  -21.4750   21.2320 C.3    28  THR28       0.1994
      3  C        -49.7700  -21.7960   19.7720 C.2    28  THR28       0.2618
      4  O        -48.9000  -22.2940   19.0560 O.2    28  THR28      -0.2717
      5  CB       -48.9090  -22.7200   21.8810 C.3    28  THR28       0.1784
      6  OG1      -49.9630  -23.6800   22.0330 O.3    28  THR28      -0.2211
      7  CG2      -48.3190  -22.3910   23.2360 C.3    28  THR28       0.0376
      8  N        -50.9940  -21.5190   19.3360 N.am   29  GLY29      -0.1956
      9  CA       -51.3550  -21.7850   17.9600 C.3    29  GLY29       0.1869
     10  C        -50.3090  -21.2280   17.0140 C.2    29  GLY29       0.2309
     11  O        -49.6070  -21.9920   16.3480 O.2    29  GLY29      -0.2863
     12  N        -46.7150  -22.6260   16.9340 N.3    32  ASN32      -0.1240
     13  CA       -46.5930  -23.9110   16.2500 C.3    32  ASN32       0.1653
     14  C        -46.3610  -23.6450   14.7700 C.2    32  ASN32       0.2266
     15  O        -45.7040  -24.4270   14.0880 O.2    32  ASN32      -0.2867
     16  CB       -47.8730  -24.7340   16.4250 C.3    32  ASN32       0.1155
     17  CG       -48.0210  -25.2930   17.8270 C.2    32  ASN32       0.2627
     18  OD1      -49.1180  -25.6520   18.2530 O.2    32  ASN32      -0.2716
     19  ND2      -46.9100  -25.3860   18.5480 N.am   32  ASN32      -0.0877
     20  N        -42.9290  -22.1550   14.2670 N.3    35  GLN35      -0.1245
     21  CA       -42.0040  -23.2440   14.4700 C.3    35  GLN35       0.1566
     22  C        -41.7700  -23.9820   13.1440 C.2    35  GLN35       0.2260
     23  O        -40.6340  -24.3270   12.7990 O.2    35  GLN35      -0.2867
     24  CB       -42.5800  -24.1730   15.5350 C.3    35  GLN35       0.0367
     25  CG       -41.5760  -25.0780   16.1740 C.3    35  GLN35       0.0905
     26  CD       -42.1750  -25.8850   17.2990 C.2    35  GLN35       0.2608
     27  OE1      -43.1940  -26.5590   17.1240 O.2    35  GLN35      -0.2717
     28  NE2      -41.5420  -25.8300   18.4650 N.am   35  GLN35      -0.0878
     29  N        -37.7710  -24.3520   13.7850 N.3    40  ILE40      -0.1245
     30  CA       -37.1260  -25.6460   13.6630 C.3    40  ILE40       0.1561
     31  C        -36.7890  -26.0560   12.2420 C.2    40  ILE40       0.2260
     32  O        -36.1510  -27.0790   12.0110 O.2    40  ILE40      -0.2867
     33  CB       -37.9490  -26.7410   14.3530 C.3    40  ILE40       0.0252
     34  CG1      -39.1540  -27.1480   13.5140 C.3    40  ILE40       0.0019
     35  CG2      -38.3880  -26.2360   15.7100 C.3    40  ILE40       0.0019
     36  CD1      -39.8490  -28.3950   14.0750 C.3    40  ILE40       0.0001
     37  N        -34.2800  -31.1950   20.4080 N.3    53  ASN53      -0.1240
     38  CA       -35.1500  -32.3260   20.1320 C.3    53  ASN53       0.1653
     39  C        -34.8930  -32.7880   18.7090 C.2    53  ASN53       0.2266
     40  O        -34.3610  -32.0300   17.9010 O.2    53  ASN53      -0.2867
     41  CB       -36.6150  -31.9290   20.2930 C.3    53  ASN53       0.1155
     42  CG       -37.5360  -33.1250   20.3340 C.2    53  ASN53       0.2627
     43  OD1      -38.7480  -32.9750   20.4260 O.2    53  ASN53      -0.2716
     44  ND2      -36.9650  -34.3230   20.2720 N.am   53  ASN53      -0.0877
     45  N        -37.4140  -34.9760   17.3650 N.3    55  TRP55      -0.1241
     46  CA       -38.7580  -35.4150   17.0050 C.3    55  TRP55       0.1605
     47  C        -38.8270  -36.8110   16.3950 C.2    55  TRP55       0.2264
     48  O        -39.7490  -37.1180   15.6340 O.2    55  TRP55      -0.2867
     49  CB       -39.3870  -34.4150   16.0340 C.3    55  TRP55       0.0550
     50  CG       -39.7100  -33.0980   16.6580 C.ar   55  TRP55       0.0003
     51  CD1      -40.8780  -32.7470   17.2710 C.ar   55  TRP55       0.0946
     52  CD2      -38.8480  -31.9520   16.7450 C.ar   55  TRP55       0.0152
     53  NE1      -40.8000  -31.4520   17.7340 N.ar   55  TRP55      -0.2442
     54  CE2      -39.5670  -30.9390   17.4260 C.ar   55  TRP55       0.0810
     55  CE3      -37.5420  -31.6820   16.3140 C.ar   55  TRP55       0.0012
     56  CZ2      -39.0210  -29.6680   17.6850 C.ar   55  TRP55       0.0191
     57  CZ3      -36.9970  -30.4160   16.5720 C.ar   55  TRP55       0.0001
     58  CH2      -37.7370  -29.4280   17.2500 C.ar   55  TRP55       0.0015
     59  N        -40.0870  -34.9090   11.1680 N.3    59  ASN59      -0.1240
     60  CA       -40.5830  -33.6830   10.5580 C.3    59  ASN59       0.1653
     61  C        -39.4730  -32.9320    9.8540 C.2    59  ASN59       0.2266
     62  O        -38.3460  -33.4290    9.7360 O.2    59  ASN59      -0.2867
     63  CB       -41.2710  -32.7710   11.5780 C.3    59  ASN59       0.1155
     64  CG       -40.4330  -32.5210   12.7960 C.2    59  ASN59       0.2627
     65  OD1      -39.2050  -32.5600   12.7370 O.2    59  ASN59      -0.2716
     66  ND2      -41.0900  -32.2450   13.9160 N.am   59  ASN59      -0.0877
     67  N        -46.6080  -32.5630    7.3980 N.3    69  ARG69      -0.1245
     68  CA       -45.8080  -31.3910    7.6850 C.3    69  ARG69       0.1563
     69  C        -45.6430  -30.4670    6.4810 C.2    69  ARG69       0.2260
     70  O        -45.5080  -29.2520    6.6300 O.2    69  ARG69      -0.2867
     71  CB       -44.4490  -31.8240    8.2150 C.3    69  ARG69       0.0307
     72  CG       -44.5580  -32.5490    9.5350 C.3    69  ARG69       0.0489
     73  CD       -45.2100  -31.6670   10.5810 C.3    69  ARG69       0.2205
     74  NE       -44.3250  -30.5830   11.0080 N.pl3  69  ARG69      -0.0865
     75  CZ       -44.6160  -29.7230   11.9820 C.cat  69  ARG69       0.5346
     76  NH1      -45.7720  -29.8240   12.6190 N.pl3  69  ARG69       0.1354
     77  NH2      -43.7520  -28.7820   12.3350 N.pl3  69  ARG69       0.1354
     78  N        -48.8270  -28.4630    5.9610 N.3    72  TYR72      -0.1241
     79  CA       -48.8850  -27.4450    6.9890 C.3    72  TYR72       0.1605
     80  C        -48.0140  -26.2630    6.5570 C.2    72  TYR72       0.2264
     81  O        -48.4220  -25.1030    6.6880 O.2    72  TYR72      -0.2867
     82  CB       -48.4260  -28.0900    8.3020 C.3    72  TYR72       0.0534
     83  CG       -48.4440  -27.2430    9.5560 C.ar   72  TYR72      -0.0201
     84  CD1      -49.5230  -26.4180    9.8740 C.ar   72  TYR72      -0.0009
     85  CD2      -47.3860  -27.3250   10.4690 C.ar   72  TYR72      -0.0009
     86  CE1      -49.5410  -25.7010   11.0700 C.ar   72  TYR72       0.0417
     87  CE2      -47.3960  -26.6200   11.6570 C.ar   72  TYR72       0.0417
     88  CZ       -48.4680  -25.8140   11.9540 C.ar   72  TYR72       0.1957
     89  OH       -48.4450  -25.1380   13.1490 O.3    72  TYR72      -0.2866
     90  N        -41.9890  -25.1830   25.2750 N.3   249  TYR249     -0.1241
     91  CA       -41.4960  -26.4790   24.8020 C.3   249  TYR249      0.1605
     92  C        -40.0060  -26.6900   25.0580 C.2   249  TYR249      0.2264
     93  O        -39.5030  -27.8130   24.9460 O.2   249  TYR249     -0.2867
     94  CB       -41.7420  -26.6470   23.3030 C.3   249  TYR249      0.0534
     95  CG       -43.0860  -26.1790   22.8040 C.ar  249  TYR249     -0.0201
     96  CD1      -44.2120  -26.1980   23.6220 C.ar  249  TYR249     -0.0009
     97  CD2      -43.2440  -25.7770   21.4770 C.ar  249  TYR249     -0.0009
     98  CE1      -45.4680  -25.8310   23.1240 C.ar  249  TYR249      0.0417
     99  CE2      -44.4930  -25.4120   20.9730 C.ar  249  TYR249      0.0417
    100  CZ       -45.5980  -25.4440   21.8000 C.ar  249  TYR249      0.1957
    101  OH       -46.8270  -25.1050   21.2880 O.3   249  TYR249     -0.2866
    102  N        -37.5290  -26.0640   23.2440 N.3   251  GLU251     -0.1245
    103  CA       -36.9240  -26.7010   22.0800 C.3   251  GLU251      0.1567
    104  C        -36.0510  -25.7830   21.2080 C.2   251  GLU251      0.2260
    105  O        -35.1500  -26.2570   20.5220 O.2   251  GLU251     -0.2867
    106  CB       -38.0080  -27.3270   21.2100 C.3   251  GLU251      0.0388
    107  CG       -39.0290  -28.1550   21.9600 C.3   251  GLU251      0.1160
    108  CD       -39.9970  -28.8430   21.0170 C.2   251  GLU251      0.3649
    109  OE1      -40.6200  -28.1470   20.1850 O.co2 251  GLU251     -0.2457
    110  OE2      -40.1340  -30.0850   21.1020 O.co2 251  GLU251     -0.2457
    111  N        -34.8060  -34.8220   22.9130 N.3   300  LYS300     -0.1245
    112  CA       -35.0100  -33.7500   23.8670 C.3   300  LYS300      0.1561
    113  C        -34.6030  -34.1910   25.2580 C.2   300  LYS300      0.2260
    114  O        -34.9470  -35.2790   25.7080 O.2   300  LYS300     -0.2867
    115  CB       -36.4710  -33.2940   23.8850 C.3   300  LYS300      0.0271
    116  CG       -36.6820  -32.0840   24.7760 C.3   300  LYS300      0.0035
    117  CD       -38.1310  -31.6680   24.8730 C.3   300  LYS300      0.0206
    118  CE       -38.2960  -30.5960   25.9390 C.3   300  LYS300      0.1093
    119  NZ       -39.7090  -30.4810   26.3710 N.3   300  LYS300     -0.1314
@<TRIPOS>BOND
     1    78    79    1
     2    69    70    2
     3    69    68    1
     4    80    81    2
     5    80    79    1
     6    79    82    1
     7    67    68    1
     8    68    71    1
     9    71    72    1
    10    82    83    1
    11    72    73    1
    12    83    84   ar
    13    83    85   ar
    14    62    61    2
    15    61    60    1
    16    84    86   ar
    17    85    87   ar
    18    60    59    1
    19    60    63    1
    20    73    74    1
    21    74    75    2
    22    86    88   ar
    23    63    64    1
    24    87    88   ar
    25    88    89    1
    26    75    77    1
    27    75    76    1
    28    32    31    2
    29    31    30    1
    30    65    64    2
    31    64    66   am
    32    23    22    2
    33    22    21    1
    34    34    36    1
    35    34    33    1
    36    30    29    1
    37    30    33    1
    38    15    14    2
    39    20    21    1
    40    33    35    1
    41    21    24    1
    42    14    13    1
    43    24    25    1
    44    48    47    2
    45    49    50    1
    46    49    46    1
    47    25    26    1
    48    13    16    1
    49    13    12    1
    50    55    57   ar
    51    55    52   ar
    52    11    10    2
    53    47    46    1
    54    16    17    1
    55    57    58   ar
    56    50    52   ar
    57    50    51   ar
    58    52    54   ar
    59    46    45    1
    60    10     9    1
    61    27    26    2
    62    58    56   ar
    63    51    53   ar
    64    26    28   am
    65    54    56   ar
    66    54    53   ar
    67    17    18    2
    68    17    19   am
    69    40    39    2
    70     9     8    1
    71    39    38    1
    72     4     3    2
    73     8     3   am
    74     3     2    1
    75    38    41    1
    76    38    37    1
    77   109   108   ar
    78    44    42   am
    79    41    42    1
    80    42    43    2
    81   105   104    2
    82    99    97   ar
    83    99   100   ar
    84   108   110   ar
    85   108   107    1
    86   104   103    1
    87   106   107    1
    88   106   103    1
    89     2     5    1
    90     2     1    1
    91   101   100    1
    92    97    95   ar
    93   100    98   ar
    94     5     6    1
    95     5     7    1
    96   103   102    1
    97    95    94    1
    98    95    96   ar
    99   111   112    1
   100    98    96   ar
   101    94    91    1
   102   112   115    1
   103   112   113    1
   104   115   116    1
   105   116   117    1
   106    91    92    1
   107    91    90    1
   108   117   118    1
   109    93    92    2
   110   113   114    2
   111   118   119    1
