@<TRIPOS>MOLECULE
tmp/3ehtA00.pdb
 104 101 0 0 0
SMALL
GASTEIGER

@<TRIPOS>ATOM
      1  N         20.6310  -27.7750   35.2160 N.3   398  ASP398     -0.1225
      2  CA        21.8510  -28.0380   35.9750 C.3   398  ASP398      0.1805
      3  C         22.8870  -28.7000   35.0960 C.2   398  ASP398      0.2598
      4  O         22.6690  -28.8690   33.9020 O.2   398  ASP398     -0.2718
      5  CB        21.5880  -28.8510   37.2500 C.3   398  ASP398      0.1424
      6  CG        21.0180  -30.2350   36.9730 C.2   398  ASP398      0.3668
      7  OD1       21.4040  -30.8780   35.9710 O.co2 398  ASP398     -0.2456
      8  OD2       20.1850  -30.6940   37.7820 O.co2 398  ASP398     -0.2456
      9  N         24.0040  -29.0920   35.6970 N.am  399  LEU399     -0.1966
     10  CA        25.1750  -29.5280   34.9410 C.3   399  LEU399      0.1728
     11  C         25.0590  -30.9080   34.3090 C.2   399  LEU399      0.2616
     12  O         26.0240  -31.3980   33.7360 O.2   399  LEU399     -0.2715
     13  CB        26.4340  -29.4300   35.8060 C.3   399  LEU399      0.0311
     14  CG        26.9260  -28.0060   36.0570 C.3   399  LEU399      0.0022
     15  CD1       27.8010  -27.9370   37.2880 C.3   399  LEU399      0.0001
     16  CD2       27.6610  -27.4740   34.8440 C.3   399  LEU399      0.0001
     17  N         23.8860  -31.5270   34.4060 N.am  400  ILE400     -0.1977
     18  CA        23.6260  -32.8010   33.7370 C.3   400  ILE400      0.1596
     19  C         22.5490  -32.6380   32.6770 C.2   400  ILE400      0.2287
     20  O         22.3470  -33.5210   31.8440 O.2   400  ILE400     -0.2864
     21  CB        23.2250  -33.9130   34.7250 C.3   400  ILE400      0.0276
     22  CG1       24.4340  -34.3450   35.5400 C.3   400  ILE400      0.0022
     23  CG2       22.6810  -35.1240   33.9920 C.3   400  ILE400      0.0022
     24  CD1       24.5300  -35.8400   35.7490 C.3   400  ILE400      0.0001
     25  N         18.0090  -38.6440   36.2100 N.3   418  PRO418     -0.2116
     26  CA        18.5160  -39.0750   34.9160 C.3   418  PRO418      0.1372
     27  C         19.2540  -40.4020   35.0440 C.2   418  PRO418      0.2244
     28  O         19.7520  -40.7430   36.1200 O.2   418  PRO418     -0.2868
     29  CB        19.4880  -37.9590   34.5290 C.3   418  PRO418      0.0268
     30  CG        19.9240  -37.3740   35.8040 C.3   418  PRO418      0.0207
     31  CD        18.7740  -37.5070   36.7510 C.3   418  PRO418      0.0892
     32  N         21.5630  -43.2560   32.1470 N.3   420  PHE420     -0.1241
     33  CA        22.1890  -43.2280   30.8270 C.3   420  PHE420      0.1605
     34  C         22.6270  -44.5950   30.3130 C.2   420  PHE420      0.2264
     35  O         23.5260  -45.2150   30.8800 O.2   420  PHE420     -0.2867
     36  CB        23.3930  -42.2770   30.8330 C.3   420  PHE420      0.0534
     37  CG        23.0630  -40.8600   31.2320 C.ar  420  PHE420     -0.0203
     38  CD1       23.0450  -40.4830   32.5690 C.ar  420  PHE420     -0.0042
     39  CD2       22.7980  -39.8980   30.2680 C.ar  420  PHE420     -0.0042
     40  CE1       22.7500  -39.1810   32.9360 C.ar  420  PHE420     -0.0003
     41  CE2       22.5070  -38.5900   30.6270 C.ar  420  PHE420     -0.0003
     42  CZ        22.4820  -38.2320   31.9610 C.ar  420  PHE420     -0.0000
     43  N         24.6850  -45.6450   27.7180 N.3   422  TYR422     -0.1241
     44  CA        25.6410  -44.8830   26.9220 C.3   422  TYR422      0.1605
     45  C         25.1640  -43.4290   26.8670 C.2   422  TYR422      0.2264
     46  O         24.7670  -42.8740   27.9050 O.2   422  TYR422     -0.2867
     47  CB        25.8530  -45.5210   25.5440 C.3   422  TYR422      0.0534
     48  CG        26.3200  -46.9600   25.6410 C.ar  422  TYR422     -0.0201
     49  CD1       25.9480  -47.9010   24.6830 C.ar  422  TYR422     -0.0009
     50  CD2       27.1150  -47.3890   26.7160 C.ar  422  TYR422     -0.0009
     51  CE1       26.3660  -49.2220   24.7840 C.ar  422  TYR422      0.0417
     52  CE2       27.5320  -48.7050   26.8270 C.ar  422  TYR422      0.0417
     53  CZ        27.1550  -49.6170   25.8580 C.ar  422  TYR422      0.1957
     54  OH        27.5730  -50.9250   25.9630 O.3   422  TYR422     -0.2866
     55  N         22.6110  -24.2450   45.1130 N.3   444  ALA444     -0.1231
     56  CA        23.7710  -24.5720   44.3000 C.3   444  ALA444      0.1694
     57  C         23.8330  -26.0570   44.0100 C.2   444  ALA444      0.2592
     58  O         24.1720  -26.4660   42.9010 O.2   444  ALA444     -0.2718
     59  CB        25.0390  -24.1160   44.9940 C.3   444  ALA444      0.0304
     60  N         23.4790  -26.8580   45.0080 N.am  445  ARG445     -0.1966
     61  CA        23.6270  -28.2960   44.9200 C.3   445  ARG445      0.1729
     62  C         22.3030  -29.0440   44.7320 C.2   445  ARG445      0.2616
     63  O         21.2940  -28.7360   45.3700 O.2   445  ARG445     -0.2715
     64  CB        24.3510  -28.7920   46.1600 C.3   445  ARG445      0.0348
     65  CG        24.4340  -30.2800   46.2670 C.3   445  ARG445      0.0492
     66  CD        25.1330  -30.6700   47.5330 C.3   445  ARG445      0.2205
     67  NE        25.9510  -31.8450   47.2890 N.pl3 445  ARG445     -0.0865
     68  CZ        27.1690  -31.8060   46.7590 C.cat 445  ARG445      0.5346
     69  NH1       27.7180  -30.6400   46.4260 N.pl3 445  ARG445      0.1354
     70  NH2       27.8410  -32.9350   46.5690 N.pl3 445  ARG445      0.1354
     71  N         22.3250  -30.0280   43.8420 N.am  446  VAL446     -0.1977
     72  CA        21.1910  -30.9130   43.6360 C.3   446  VAL446      0.1596
     73  C         21.4630  -32.2100   44.3750 C.2   446  VAL446      0.2287
     74  O         22.4830  -32.8580   44.1360 O.2   446  VAL446     -0.2864
     75  CB        21.0020  -31.2630   42.1510 C.3   446  VAL446      0.0276
     76  CG1       19.7390  -32.0720   41.9670 C.3   446  VAL446      0.0022
     77  CG2       20.9690  -30.0110   41.2900 C.3   446  VAL446      0.0022
     78  N         21.2690  -35.6810   44.4760 N.3   448  TYR448     -0.1241
     79  CA        21.0070  -36.7710   43.5530 C.3   448  TYR448      0.1605
     80  C         21.2750  -38.1320   44.1870 C.2   448  TYR448      0.2264
     81  O         21.4050  -39.1320   43.4780 O.2   448  TYR448     -0.2867
     82  CB        21.8950  -36.6240   42.3220 C.3   448  TYR448      0.0534
     83  CG        21.3450  -35.7710   41.2000 C.ar  448  TYR448     -0.0201
     84  CD1       22.0590  -34.6720   40.7320 C.ar  448  TYR448     -0.0009
     85  CD2       20.1380  -36.0780   40.5850 C.ar  448  TYR448     -0.0009
     86  CE1       21.5860  -33.9040   39.6920 C.ar  448  TYR448      0.0417
     87  CE2       19.6500  -35.3040   39.5490 C.ar  448  TYR448      0.0417
     88  CZ        20.3820  -34.2200   39.1080 C.ar  448  TYR448      0.1957
     89  OH        19.9150  -33.4460   38.0740 O.3   448  TYR448     -0.2866
     90  N         19.4890  -41.8890   43.1740 N.3   451  CYS451     -0.1221
     91  CA        19.6210  -42.5950   41.8970 C.3   451  CYS451      0.1808
     92  C         20.9420  -43.3540   41.8970 C.2   451  CYS451      0.2601
     93  O         22.0140  -42.7680   41.7020 O.2   451  CYS451     -0.2717
     94  CB        19.5830  -41.6070   40.7360 C.3   451  CYS451      0.0970
     95  SG        19.1600  -39.9080   41.2370 S.3   451  CYS451     -0.0800
     96  N         20.8550  -44.6650   42.1050 N.am  452  GLN452     -0.1979
     97  CA        22.0240  -45.4710   42.4510 C.3   452  GLN452      0.1601
     98  C         22.5650  -46.2840   41.2760 C.2   452  GLN452      0.2287
     99  O         23.4390  -45.8110   40.5350 O.2   452  GLN452     -0.2864
    100  CB        21.6930  -46.3600   43.6570 C.3   452  GLN452      0.0394
    101  CG        21.1390  -45.5320   44.8420 C.3   452  GLN452      0.0908
    102  CD        20.6280  -46.3960   46.0110 C.2   452  GLN452      0.2608
    103  OE1       21.0950  -47.5260   46.2400 O.2   452  GLN452     -0.2717
    104  NE2       19.6620  -45.8530   46.7700 N.am  452  GLN452     -0.0878
@<TRIPOS>BOND
     1    49    51   ar
     2    49    48   ar
     3    51    53   ar
     4    47    48    1
     5    47    44    1
     6    48    50   ar
     7    53    54    1
     8    53    52   ar
     9    50    52   ar
    10    45    44    1
    11    45    46    2
    12    44    43    1
    13    39    41   ar
    14    39    37   ar
    15    34    33    1
    16    34    35    2
    17    41    42   ar
    18    33    36    1
    19    33    32    1
    20    36    37    1
    21    37    38   ar
    22    20    19    2
    23    42    40   ar
    24    38    40   ar
    25    19    18    1
    26    12    11    2
    27    18    17    1
    28    18    21    1
    29     4     3    2
    30    23    21    1
    31    11    17   am
    32    11    10    1
    33    29    26    1
    34    29    30    1
    35    21    22    1
    36    16    14    1
    37    26    27    1
    38    26    25    1
    39    10     9    1
    40    10    13    1
    41    27    28    2
    42     3     9   am
    43     3     2    1
    44     1     2    1
    45    22    24    1
    46    30    31    1
    47    13    14    1
    48     7     6   ar
    49     2     5    1
    50    14    15    1
    51    25    31    1
    52     6     5    1
    53     6     8   ar
    54    89    88    1
    55    88    87   ar
    56    88    86   ar
    57    87    85   ar
    58    86    84   ar
    59    99    98    2
    60    85    83   ar
    61    84    83   ar
    62    94    95    1
    63    94    91    1
    64    83    82    1
    65    98    97    1
    66    77    75    1
    67    93    92    2
    68    92    91    1
    69    92    96   am
    70    91    90    1
    71    76    75    1
    72    96    97    1
    73    75    72    1
    74    82    79    1
    75    97   100    1
    76    58    57    2
    77    81    80    2
    78    79    80    1
    79    79    78    1
    80    72    71    1
    81    72    73    1
    82   100   101    1
    83    71    62   am
    84    57    56    1
    85    57    60   am
    86    74    73    2
    87    56    59    1
    88    56    55    1
    89    62    61    1
    90    62    63    2
    91   101   102    1
    92    61    60    1
    93    61    64    1
    94   102   103    2
    95   102   104   am
    96    64    65    1
    97    65    66    1
    98    69    68    1
    99    70    68    1
   100    68    67    2
   101    67    66    1
