@<TRIPOS>MOLECULE
tmp/3ehuA01.pdb
 78 72 0 0 0
SMALL
GASTEIGER

@<TRIPOS>ATOM
      1  N        -28.3090  -38.9620  133.1080 N.3    22  GLU22      -0.1231
      2  CA       -27.4860  -39.2320  134.3090 C.3    22  GLU22       0.1699
      3  C        -26.0180  -39.1270  134.0010 C.2    22  GLU22       0.2592
      4  O        -25.2590  -38.6430  134.8360 O.2    22  GLU22      -0.2718
      5  CB       -27.7440  -40.5950  134.9190 C.3    22  GLU22       0.0402
      6  CG       -29.1440  -40.7760  135.4360 C.3    22  GLU22       0.1161
      7  CD       -29.3840  -42.1990  135.8310 C.2    22  GLU22       0.3649
      8  OE1      -28.3940  -42.9840  135.7930 O.co2  22  GLU22      -0.2457
      9  OE2      -30.5480  -42.5370  136.1790 O.co2  22  GLU22      -0.2457
     10  N        -25.6190  -39.5550  132.8040 N.am   23  VAL23      -0.1980
     11  CA       -24.2410  -39.3400  132.3510 C.3    23  VAL23       0.1595
     12  C        -24.0160  -37.8300  132.2200 C.2    23  VAL23       0.2287
     13  O        -23.0030  -37.3180  132.6700 O.2    23  VAL23      -0.2864
     14  CB       -23.9240  -40.0810  131.0100 C.3    23  VAL23       0.0276
     15  CG1      -22.4320  -39.9790  130.6700 C.3    23  VAL23       0.0022
     16  CG2      -24.3300  -41.5700  131.1060 C.3    23  VAL23       0.0022
     17  N        -23.4160  -36.2840  135.7020 N.3    26  LYS26      -0.1245
     18  CA       -22.0330  -36.5170  136.1660 C.3    26  LYS26       0.1561
     19  C        -21.0430  -35.5580  135.4750 C.2    26  LYS26       0.2260
     20  O        -20.1640  -35.0120  136.1280 O.2    26  LYS26      -0.2867
     21  CB       -21.5880  -37.9680  135.9450 C.3    26  LYS26       0.0271
     22  CG       -20.2420  -38.2820  136.6310 C.3    26  LYS26       0.0035
     23  CD       -19.7980  -39.7300  136.3730 C.3    26  LYS26       0.0206
     24  CE       -18.5110  -40.0550  137.1200 C.3    26  LYS26       0.1093
     25  NZ       -18.0630  -41.4650  136.9010 N.3    26  LYS26      -0.1314
     26  N        -18.6620  -32.6540  137.3760 N.3    30  ASP30      -0.1239
     27  CA       -17.1830  -32.6720  137.1760 C.3    30  ASP30       0.1674
     28  C        -16.6450  -31.4410  136.4550 C.2    30  ASP30       0.2266
     29  O        -15.4460  -31.1300  136.5580 O.2    30  ASP30      -0.2867
     30  CB       -16.8000  -33.8800  136.3070 C.3    30  ASP30       0.1410
     31  CG       -16.9970  -35.2040  137.0100 C.2    30  ASP30       0.3668
     32  OD1      -17.3000  -35.2170  138.2160 O.co2  30  ASP30      -0.2456
     33  OD2      -16.7860  -36.2560  136.3600 O.co2  30  ASP30      -0.2456
     34  N        -15.0670  -39.5240  126.7760 N.3   282  ASN282     -0.1225
     35  CA       -14.6130  -39.8130  128.1510 C.3   282  ASN282      0.1785
     36  C        -15.7020  -40.0760  129.1800 C.2   282  ASN282      0.2597
     37  O        -15.4000  -40.5370  130.2820 O.2   282  ASN282     -0.2718
     38  CB       -13.6970  -38.7170  128.6700 C.3   282  ASN282      0.1169
     39  CG       -12.4560  -38.5440  127.8310 C.2   282  ASN282      0.2627
     40  OD1      -12.0130  -39.4620  127.1390 O.2   282  ASN282     -0.2716
     41  ND2      -11.8800  -37.3640  127.8970 N.am  282  ASN282     -0.0877
     42  N        -16.9570  -39.7720  128.8420 N.am  283  TYR283     -0.1976
     43  CA       -18.0790  -40.0330  129.7500 C.3   283  TYR283      0.1639
     44  C        -19.0710  -41.0830  129.1920 C.2   283  TYR283      0.2290
     45  O        -19.3190  -42.1010  129.8300 O.2   283  TYR283     -0.2864
     46  CB       -18.7860  -38.7070  130.1350 C.3   283  TYR283      0.0560
     47  CG       -18.0140  -37.9280  131.1840 C.ar  283  TYR283     -0.0198
     48  CD1      -16.8060  -37.2790  130.8590 C.ar  283  TYR283     -0.0009
     49  CD2      -18.4520  -37.8770  132.5170 C.ar  283  TYR283     -0.0009
     50  CE1      -16.0750  -36.5960  131.8150 C.ar  283  TYR283      0.0417
     51  CE2      -17.7290  -37.1900  133.4830 C.ar  283  TYR283      0.0417
     52  CZ       -16.5170  -36.5580  133.1160 C.ar  283  TYR283      0.1957
     53  OH       -15.7690  -35.8350  134.0480 O.3   283  TYR283     -0.2866
     54  N        -17.8310  -45.1730  127.7760 N.3   286  THR286     -0.1218
     55  CA       -17.1220  -45.9160  128.7970 C.3   286  THR286      0.1862
     56  C        -18.0760  -47.0060  129.2540 C.2   286  THR286      0.2287
     57  O        -19.2940  -46.9190  129.0160 O.2   286  THR286     -0.2866
     58  CB       -16.8070  -45.0230  130.0130 C.3   286  THR286      0.1770
     59  OG1      -18.0370  -44.5200  130.5450 O.3   286  THR286     -0.2211
     60  CG2      -15.9100  -43.8290  129.6130 C.3   286  THR286      0.0375
     61  N        -19.1350  -47.4380  132.2000 N.3   288  GLU288     -0.1231
     62  CA       -20.0590  -46.8680  133.1790 C.3   288  GLU288      0.1699
     63  C        -21.1600  -46.0410  132.5250 C.2   288  GLU288      0.2592
     64  O        -22.3030  -46.0510  132.9880 O.2   288  GLU288     -0.2718
     65  CB       -19.3030  -46.0350  134.2300 C.3   288  GLU288      0.0402
     66  CG       -18.3610  -46.8530  135.1510 C.3   288  GLU288      0.1161
     67  CD       -16.9450  -47.0820  134.5800 C.2   288  GLU288      0.3649
     68  OE1      -16.6590  -46.7160  133.4010 O.co2 288  GLU288     -0.2457
     69  OE2      -16.1030  -47.6480  135.3330 O.co2 288  GLU288     -0.2457
     70  N        -20.8100  -45.3410  131.4520 N.am  289  GLY289     -0.1957
     71  CA       -21.7440  -44.4830  130.7400 C.3   289  GLY289      0.1869
     72  C        -22.7420  -45.2700  129.9320 C.2   289  GLY289      0.2309
     73  O        -23.9430  -44.9980  129.9650 O.2   289  GLY289     -0.2863
     74  N        -25.2090  -46.9400  132.1930 N.3   292  ALA292     -0.1245
     75  CA       -26.2300  -45.9750  132.6510 C.3   292  ALA292      0.1562
     76  C        -27.3760  -45.8550  131.6400 C.2   292  ALA292      0.2260
     77  O        -28.5600  -45.8470  132.0090 O.2   292  ALA292     -0.2867
     78  CB       -25.6010  -44.6280  132.8770 C.3   292  ALA292      0.0290
@<TRIPOS>BOND
     1    34    35    1
     2    40    39    2
     3    54    55    1
     4    39    41   am
     5    39    38    1
     6    35    38    1
     7    35    36    1
     8    55    56    1
     9    55    58    1
    10    42    36   am
    11    42    43    1
    12    57    56    2
    13    36    37    2
    14    44    43    1
    15    44    45    2
    16    60    58    1
    17    43    46    1
    18    72    73    2
    19    72    71    1
    20    58    59    1
    21    46    47    1
    22    15    14    1
    23    71    70    1
    24    48    47   ar
    25    48    50   ar
    26    14    16    1
    27    14    11    1
    28    47    49   ar
    29    70    63   am
    30    76    77    2
    31    76    75    1
    32    50    52   ar
    33    74    75    1
    34    61    62    1
    35    12    11    1
    36    12    13    2
    37    11    10    1
    38    49    51   ar
    39    63    64    2
    40    63    62    1
    41    75    78    1
    42    10     3   am
    43     1     2    1
    44    52    51   ar
    45    52    53    1
    46    62    65    1
    47    68    67   ar
    48     3     2    1
    49     3     4    2
    50    65    66    1
    51     2     5    1
    52    67    66    1
    53    67    69   ar
    54     5     6    1
    55     6     7    1
    56    19    20    2
    57    19    18    1
    58    17    18    1
    59     8     7   ar
    60     7     9   ar
    61    21    18    1
    62    21    22    1
    63    30    31    1
    64    30    27    1
    65    33    31   ar
    66    23    22    1
    67    23    24    1
    68    28    29    2
    69    28    27    1
    70    25    24    1
    71    31    32   ar
    72    27    26    1
