@<TRIPOS>MOLECULE
tmp/3ehuA00.pdb
 130 129 0 0 0
SMALL
GASTEIGER

@<TRIPOS>ATOM
      1  N        -33.6950  -39.7300  120.2010 N.3    12  ASN12      -0.1225
      2  CA       -35.1030  -40.1190  120.0550 C.3    12  ASN12       0.1785
      3  C        -35.6990  -40.5870  121.3940 C.2    12  ASN12       0.2598
      4  O        -35.0000  -41.1810  122.2340 O.2    12  ASN12      -0.2718
      5  CB       -35.3040  -41.1470  118.9410 C.3    12  ASN12       0.1169
      6  CG       -36.6520  -40.9970  118.2620 C.2    12  ASN12       0.2627
      7  OD1      -37.1120  -39.8780  117.9580 O.2    12  ASN12      -0.2716
      8  ND2      -37.3050  -42.1220  118.0350 N.am   12  ASN12      -0.0877
      9  N        -36.9760  -40.2680  121.6050 N.am   13  GLY13      -0.1942
     10  CA       -37.6580  -40.5420  122.8720 C.3    13  GLY13       0.2014
     11  C        -37.8430  -42.0280  123.1680 C.2    13  GLY13       0.2638
     12  O        -38.1930  -42.3760  124.2760 O.2    13  GLY13      -0.2714
     13  N        -37.6220  -42.9020  122.1990 N.am   14  ASP14      -0.1971
     14  CA       -37.6710  -44.3380  122.4960 C.3    14  ASP14       0.1709
     15  C        -36.3420  -44.8830  123.0570 C.2    14  ASP14       0.2293
     16  O        -36.2570  -46.0600  123.3830 O.2    14  ASP14      -0.2864
     17  CB       -38.1490  -45.1870  121.2920 C.3    14  ASP14       0.1436
     18  CG       -37.3200  -44.9830  120.0320 C.2    14  ASP14       0.3671
     19  OD1      -36.3630  -44.1750  120.0410 O.co2  14  ASP14      -0.2456
     20  OD2      -37.6550  -45.6230  118.9980 O.co2  14  ASP14      -0.2456
     21  N        -35.6690  -34.6700  123.5410 N.3    39  HIS39      -0.1227
     22  CA       -36.0810  -35.7660  122.6430 C.3    39  HIS39       0.1737
     23  C        -37.3160  -35.4030  121.7950 C.2    39  HIS39       0.2438
     24  O        -38.4080  -35.9940  121.9460 O.2    39  HIS39      -0.2733
     25  CB       -36.3150  -37.0510  123.4500 C.3    39  HIS39       0.0758
     26  CG       -37.0850  -36.8170  124.6990 C.ar   39  HIS39       0.0818
     27  ND1      -38.4530  -36.6440  124.7010 N.ar   39  HIS39      -0.2268
     28  CD2      -36.6780  -36.6550  125.9780 C.ar   39  HIS39       0.1154
     29  CE1      -38.8550  -36.4090  125.9370 C.ar   39  HIS39       0.1986
     30  NE2      -37.8000  -36.4130  126.7280 N.ar   39  HIS39      -0.2212
     31  N        -37.1590  -34.4230  120.8950 N.am   40  PRO40      -0.2718
     32  CA       -38.3030  -34.0040  120.0870 C.3    40  PRO40       0.1535
     33  C        -38.7510  -35.1350  119.1530 C.2    40  PRO40       0.2599
     34  O        -37.9370  -35.9600  118.7130 O.2    40  PRO40      -0.2715
     35  CB       -37.7750  -32.7930  119.2930 C.3    40  PRO40       0.0310
     36  CG       -36.2800  -32.8460  119.3900 C.3    40  PRO40       0.0237
     37  CD       -35.9220  -33.6720  120.5850 C.3    40  PRO40       0.0939
     38  N        -40.0490  -35.1980  118.9070 N.am   41  ASP41      -0.1958
     39  CA       -40.6070  -36.1450  117.9550 C.3    41  ASP41       0.1840
     40  C        -40.0700  -35.7690  116.5810 C.2    41  ASP41       0.2621
     41  O        -39.8400  -34.5840  116.2960 O.2    41  ASP41      -0.2715
     42  CB       -42.1380  -36.0330  117.9460 C.3    41  ASP41       0.1450
     43  CG       -42.8080  -37.1730  117.2070 C.2    41  ASP41       0.3671
     44  OD1      -42.2400  -38.2970  117.1580 O.co2  41  ASP41      -0.2456
     45  OD2      -43.9320  -36.9610  116.6930 O.co2  41  ASP41      -0.2456
     46  N        -39.8720  -36.7830  115.7430 N.am   42  LYS42      -0.1977
     47  CA       -39.4170  -36.5930  114.3700 C.3    42  LYS42       0.1596
     48  C        -38.0570  -35.8820  114.3200 C.2    42  LYS42       0.2287
     49  O        -37.7970  -35.1090  113.4060 O.2    42  LYS42      -0.2864
     50  CB       -40.5140  -35.8530  113.5600 C.3    42  LYS42       0.0298
     51  CG       -41.8100  -36.6800  113.3920 C.3    42  LYS42       0.0038
     52  CD       -43.0120  -35.8700  112.8510 C.3    42  LYS42       0.0206
     53  CE       -44.1510  -36.8360  112.3800 C.3    42  LYS42       0.1093
     54  NZ       -45.3420  -36.1000  111.7940 N.3    42  LYS42      -0.1314
     55  N        -28.8230  -40.3650  116.1850 N.3    62  TRP62      -0.1241
     56  CA       -29.7470  -41.1180  115.3150 C.3    62  TRP62       0.1605
     57  C        -29.0170  -42.3360  114.7650 C.2    62  TRP62       0.2264
     58  O        -27.7950  -42.4080  114.8790 O.2    62  TRP62      -0.2867
     59  CB       -30.2880  -40.2730  114.1490 C.3    62  TRP62       0.0550
     60  CG       -31.4660  -40.9500  113.5340 C.ar   62  TRP62       0.0003
     61  CD1      -31.4840  -41.7690  112.4120 C.ar   62  TRP62       0.0946
     62  CD2      -32.7910  -40.9540  114.0490 C.ar   62  TRP62       0.0152
     63  NE1      -32.7560  -42.2470  112.1980 N.ar   62  TRP62      -0.2442
     64  CE2      -33.5790  -41.7580  113.1810 C.ar   62  TRP62       0.0810
     65  CE3      -33.4040  -40.3340  115.1440 C.ar   62  TRP62       0.0012
     66  CZ2      -34.9480  -41.9630  113.3870 C.ar   62  TRP62       0.0191
     67  CZ3      -34.7830  -40.5280  115.3380 C.ar   62  TRP62       0.0001
     68  CH2      -35.5290  -41.3380  114.4650 C.ar   62  TRP62       0.0015
     69  N        -45.6930  -52.1680  114.2950 N.3   150  ASN150     -0.1240
     70  CA       -45.8360  -50.8710  113.6390 C.3   150  ASN150      0.1653
     71  C        -45.8040  -50.9270  112.0970 C.2   150  ASN150      0.2266
     72  O        -44.7310  -51.0250  111.4920 O.2   150  ASN150     -0.2867
     73  CB       -44.7600  -49.9180  114.1570 C.3   150  ASN150      0.1155
     74  CG       -44.9530  -48.5190  113.6680 C.2   150  ASN150      0.2627
     75  OD1      -45.8850  -48.2300  112.9070 O.2   150  ASN150     -0.2716
     76  ND2      -44.0820  -47.6280  114.1010 N.am  150  ASN150     -0.0877
     77  N        -44.2410  -47.3060  110.0020 N.3   153  GLU153     -0.1245
     78  CA       -42.8190  -47.0210  109.7520 C.3   153  GLU153      0.1567
     79  C        -42.2430  -48.1710  108.9700 C.2   153  GLU153      0.2260
     80  O        -42.2840  -49.3050  109.4400 O.2   153  GLU153     -0.2867
     81  CB       -42.0320  -46.8250  111.0500 C.3   153  GLU153      0.0388
     82  CG       -42.2690  -45.4730  111.7410 C.3   153  GLU153      0.1160
     83  CD       -41.6320  -44.2960  111.0060 C.2   153  GLU153      0.3649
     84  OE1      -40.5690  -44.4710  110.3670 O.co2 153  GLU153     -0.2457
     85  OE2      -42.2140  -43.1840  111.0530 O.co2 153  GLU153     -0.2457
     86  N        -39.9920  -51.4840  110.0750 N.3   156  PHE156     -0.1241
     87  CA       -40.5330  -52.7160  110.6580 C.3   156  PHE156      0.1605
     88  C        -41.0180  -53.7510  109.6370 C.2   156  PHE156      0.2264
     89  O        -41.0670  -54.9580  109.9480 O.2   156  PHE156     -0.2867
     90  CB       -41.6500  -52.3810  111.6260 C.3   156  PHE156      0.0534
     91  CG       -41.2020  -51.5490  112.7840 C.ar  156  PHE156     -0.0203
     92  CD1      -40.7160  -52.1480  113.9460 C.ar  156  PHE156     -0.0042
     93  CD2      -41.2240  -50.1590  112.7070 C.ar  156  PHE156     -0.0042
     94  CE1      -40.2820  -51.3590  115.0320 C.ar  156  PHE156     -0.0003
     95  CE2      -40.7950  -49.3780  113.7850 C.ar  156  PHE156     -0.0003
     96  CZ       -40.3220  -50.0010  114.9430 C.ar  156  PHE156     -0.0000
     97  N        -47.1380  -47.5520  116.3080 N.3   210  TYR210     -0.1241
     98  CA       -46.2090  -47.9470  117.3680 C.3   210  TYR210      0.1605
     99  C        -46.9300  -48.2890  118.6760 C.2   210  TYR210      0.2264
    100  O        -46.5810  -49.2530  119.3850 O.2   210  TYR210     -0.2867
    101  CB       -45.2260  -46.8020  117.6250 C.3   210  TYR210      0.0534
    102  CG       -45.7910  -45.6680  118.4970 C.ar  210  TYR210     -0.0201
    103  CD1      -45.5310  -45.6260  119.8630 C.ar  210  TYR210     -0.0009
    104  CD2      -46.5540  -44.6350  117.9420 C.ar  210  TYR210     -0.0009
    105  CE1      -46.0200  -44.5990  120.6730 C.ar  210  TYR210      0.0417
    106  CE2      -47.0440  -43.5940  118.7430 C.ar  210  TYR210      0.0417
    107  CZ       -46.7740  -43.5800  120.1090 C.ar  210  TYR210      0.1957
    108  OH       -47.2600  -42.5540  120.9080 O.3   210  TYR210     -0.2866
    109  N        -39.7310  -55.5320  117.2460 N.3   227  ASN227     -0.1240
    110  CA       -39.1660  -54.2980  117.7590 C.3   227  ASN227      0.1653
    111  C        -37.6880  -54.4560  118.1270 C.2   227  ASN227      0.2266
    112  O        -37.1380  -55.5620  118.0500 O.2   227  ASN227     -0.2867
    113  CB       -40.0160  -53.7620  118.9420 C.3   227  ASN227      0.1155
    114  CG       -40.0720  -52.2300  118.9830 C.2   227  ASN227      0.2627
    115  OD1      -39.2160  -51.5500  118.4070 O.2   227  ASN227     -0.2716
    116  ND2      -41.0770  -51.6870  119.6690 N.am  227  ASN227     -0.0877
    117  N        -34.5240  -51.4350  122.6720 N.3   230  TRP230     -0.1241
    118  CA       -35.0540  -50.3130  123.4730 C.3   230  TRP230      0.1605
    119  C        -36.4370  -50.6170  124.0350 C.2   230  TRP230      0.2264
    120  O        -36.8180  -50.0760  125.0640 O.2   230  TRP230     -0.2867
    121  CB       -35.1180  -49.0130  122.6580 C.3   230  TRP230      0.0550
    122  CG       -35.8170  -49.1560  121.3390 C.ar  230  TRP230      0.0003
    123  CD1      -37.1480  -49.0160  121.1000 C.ar  230  TRP230      0.0946
    124  CD2      -35.2180  -49.4900  120.0880 C.ar  230  TRP230      0.0152
    125  NE1      -37.4160  -49.2270  119.7780 N.ar  230  TRP230     -0.2442
    126  CE2      -36.2500  -49.5220  119.1310 C.ar  230  TRP230      0.0810
    127  CE3      -33.9090  -49.7670  119.6840 C.ar  230  TRP230      0.0012
    128  CZ2      -36.0170  -49.8250  117.7850 C.ar  230  TRP230      0.0191
    129  CZ3      -33.6720  -50.0710  118.3470 C.ar  230  TRP230      0.0001
    130  CH2      -34.7210  -50.0930  117.4120 C.ar  230  TRP230      0.0015
@<TRIPOS>BOND
     1    79    80    2
     2    79    78    1
     3    88    89    2
     4    88    87    1
     5    78    77    1
     6    78    81    1
     7    86    87    1
     8    84    83   ar
     9    87    90    1
    10    83    85   ar
    11    83    82    1
    12    81    82    1
    13    72    71    2
    14    90    91    1
    15    54    53    1
    16    71    70    1
    17    63    61   ar
    18    63    64   ar
    19    53    52    1
    20    61    60   ar
    21    93    91   ar
    22    93    95   ar
    23    91    92   ar
    24    52    51    1
    25    75    74    2
    26    64    66   ar
    27    64    62   ar
    28    66    68   ar
    29    51    50    1
    30    49    48    2
    31    60    62   ar
    32    60    59    1
    33    50    47    1
    34    70    73    1
    35    70    69    1
    36    74    76   am
    37    74    73    1
    38    95    96   ar
    39    92    94   ar
    40    62    65   ar
    41    59    56    1
    42    48    47    1
    43    47    46    1
    44    68    67   ar
    45    57    58    2
    46    57    56    1
    47    96    94   ar
    48    65    67   ar
    49    56    55    1
    50    46    40   am
    51    41    40    2
    52    97    98    1
    53    40    39    1
    54    45    43   ar
    55    44    43   ar
    56    43    42    1
    57   109   110    1
    58    98   101    1
    59    98    99    1
    60   130   128   ar
    61   130   129   ar
    62   101   102    1
    63   110   111    1
    64   110   113    1
    65   128   126   ar
    66   104   102   ar
    67   104   106   ar
    68    42    39    1
    69    39    38    1
    70     7     6    2
    71     8     6   am
    72   112   111    2
    73     6     5    1
    74   129   127   ar
    75   115   114    2
    76   102   103   ar
    77    99   100    2
    78    34    33    2
    79   106   107   ar
    80    38    33   am
    81     5     2    1
    82   113   114    1
    83   114   116   am
    84    20    18   ar
    85   126   125   ar
    86   126   124   ar
    87    33    32    1
    88    35    36    1
    89    35    32    1
    90    36    37    1
    91   127   124   ar
    92   125   123   ar
    93   103   105   ar
    94    18    19   ar
    95    18    17    1
    96     2     1    1
    97     2     3    1
    98    32    31    1
    99   124   122   ar
   100   107   105   ar
   101   107   108    1
   102    37    31    1
   103    31    23   am
   104   123   122   ar
   105    17    14    1
   106   122   121    1
   107     3     9   am
   108     3     4    2
   109     9    10    1
   110    23    24    2
   111    23    22    1
   112    13    14    1
   113    13    11   am
   114    14    15    1
   115    22    25    1
   116    22    21    1
   117   121   118    1
   118   117   118    1
   119    10    11    1
   120    15    16    2
   121    11    12    2
   122    25    26    1
   123   118   119    1
   124   119   120    2
   125    26    27   ar
   126    26    28   ar
   127    27    29   ar
   128    29    30   ar
   129    28    30   ar
