@<TRIPOS>MOLECULE
tmp/3ehxA00.pdb
 157 157 0 0 0
SMALL
GASTEIGER

@<TRIPOS>ATOM
      1  N          8.8030    2.9340   -2.5120 N.3    67  HIS67      -0.1241
      2  CA         7.9060    1.8190   -2.5550 C.3    67  HIS67       0.1621
      3  C          8.6710    0.6790   -3.2470 C.2    67  HIS67       0.2264
      4  O          8.2340    0.1470   -4.2700 O.2    67  HIS67      -0.2867
      5  CB         6.6350    2.2310   -3.3050 C.3    67  HIS67       0.0745
      6  CG         5.9030    3.3720   -2.6430 C.ar   67  HIS67       0.0817
      7  ND1        4.7690    3.1870   -1.8760 N.ar   67  HIS67      -0.2268
      8  CD2        6.1890    4.6940   -2.5760 C.ar   67  HIS67       0.1154
      9  CE1        4.3700    4.3560   -1.3970 C.ar   67  HIS67       0.1986
     10  NE2        5.2220    5.2830   -1.7970 N.ar   67  HIS67      -0.2212
     11  N          4.1200  -11.4340   -3.2920 N.3    74  GLY74      -0.1210
     12  CA         3.8640  -10.2820   -2.4300 C.3    74  GLY74       0.1956
     13  C          3.3000   -9.1300   -3.2730 C.2    74  GLY74       0.2612
     14  O          2.2580   -9.2830   -3.9360 O.2    74  GLY74      -0.2717
     15  N          3.9880   -7.9930   -3.2460 N.am   75  ILE75      -0.1965
     16  CA         3.5530   -6.7980   -3.9600 C.3    75  ILE75       0.1727
     17  C          3.7940   -7.0070   -5.4400 C.2    75  ILE75       0.2616
     18  O          4.8700   -7.4260   -5.8230 O.2    75  ILE75      -0.2715
     19  CB         4.3700   -5.5510   -3.5480 C.3    75  ILE75       0.0290
     20  CG1        4.2480   -5.3130   -2.0530 C.3    75  ILE75       0.0022
     21  CG2        3.9460   -4.2820   -4.4080 C.3    75  ILE75       0.0023
     22  CD1        2.8610   -5.0620   -1.6230 C.3    75  ILE75       0.0001
     23  N          2.7860   -6.7400   -6.2670 N.am   76  LEU76      -0.1963
     24  CA         2.9040   -6.9810   -7.6990 C.3    76  LEU76       0.1728
     25  C          3.1720   -5.6940   -8.4590 C.2    76  LEU76       0.2616
     26  O          3.7640   -5.7020   -9.5150 O.2    76  LEU76      -0.2715
     27  CB         1.6100   -7.6320   -8.2080 C.3    76  LEU76       0.0311
     28  CG         1.0440   -8.7750   -7.3740 C.3    76  LEU76       0.0022
     29  CD1       -0.3640   -9.1230   -7.8560 C.3    76  LEU76       0.0001
     30  CD2        1.9660  -10.0140   -7.5730 C.3    76  LEU76       0.0001
     31  N          2.6950   -4.5900   -7.8960 N.am   77  ALA77      -0.1963
     32  CA         2.6810   -3.2990   -8.5670 C.3    77  ALA77       0.1728
     33  C          2.2610   -2.2220   -7.5780 C.2    77  ALA77       0.2616
     34  O          1.8080   -2.5230   -6.4740 O.2    77  ALA77      -0.2715
     35  CB         1.6800   -3.3770   -9.7610 C.3    77  ALA77       0.0334
     36  N          2.4800   -0.9670   -7.9260 N.am   78  HIS78      -0.1973
     37  CA         1.9230    0.1250   -7.1100 C.3    78  HIS78       0.1656
     38  C          1.8030    1.3500   -8.0180 C.2    78  HIS78       0.2291
     39  O          2.4630    1.4090   -9.0760 O.2    78  HIS78      -0.2864
     40  CB         2.8010    0.4540   -5.8840 C.3    78  HIS78       0.0771
     41  CG         4.0820    1.1280   -6.2360 C.ar   78  HIS78       0.0820
     42  ND1        4.2470    2.4970   -6.1690 N.ar   78  HIS78      -0.2267
     43  CD2        5.2510    0.6290   -6.6830 C.ar   78  HIS78       0.1154
     44  CE1        5.4680    2.8130   -6.5680 C.ar   78  HIS78       0.1986
     45  NE2        6.0970    1.6960   -6.8770 N.ar   78  HIS78      -0.2212
     46  N         -5.2120   -7.1450  -15.8190 N.3   109  LEU109     -0.1231
     47  CA        -6.0120   -7.0460  -14.5980 C.3   109  LEU109      0.1693
     48  C         -5.3060   -6.2160  -13.5730 C.2   109  LEU109      0.2592
     49  O         -5.9180   -5.3320  -12.9300 O.2   109  LEU109     -0.2718
     50  CB        -6.2600   -8.4240  -14.0030 C.3   109  LEU109      0.0284
     51  CG        -7.2880   -9.3600  -14.6620 C.3   109  LEU109      0.0019
     52  CD1       -7.4070  -10.6280  -13.8060 C.3   109  LEU109      0.0001
     53  CD2       -8.6800   -8.7020  -14.7660 C.3   109  LEU109      0.0001
     54  N         -3.9930   -6.4670  -13.4130 N.am  110  THR110     -0.1953
     55  CA        -3.1950   -5.6390  -12.5210 C.3   110  THR110      0.1897
     56  C         -3.2470   -4.1550  -12.9170 C.2   110  THR110      0.2313
     57  O         -3.3250   -3.2410  -12.0510 O.2   110  THR110     -0.2863
     58  CB        -1.7580   -6.1890  -12.4210 C.3   110  THR110      0.1794
     59  OG1       -1.8230   -7.6020  -12.1800 O.3   110  THR110     -0.2208
     60  CG2       -0.9860   -5.5040  -11.2580 C.3   110  THR110      0.0378
     61  N         -6.4500   -2.3560  -11.9450 N.3   113  HIS113     -0.1226
     62  CA        -6.4060   -2.0080  -10.5150 C.3   113  HIS113      0.1752
     63  C         -5.4690   -0.8110  -10.3050 C.2   113  HIS113      0.2595
     64  O         -5.8230    0.1390   -9.6240 O.2   113  HIS113     -0.2718
     65  CB        -5.8900   -3.1880   -9.6780 C.3   113  HIS113      0.0759
     66  CG        -5.8760   -2.9020   -8.2090 C.ar  113  HIS113      0.0818
     67  ND1       -6.9150   -3.2640   -7.3740 N.ar  113  HIS113     -0.2268
     68  CD2       -4.9890   -2.2350   -7.4330 C.ar  113  HIS113      0.1154
     69  CE1       -6.6440   -2.8830   -6.1300 C.ar  113  HIS113      0.1986
     70  NE2       -5.4800   -2.2600   -6.1340 N.ar  113  HIS113     -0.2212
     71  N         -4.2950   -0.8380  -10.9230 N.am  114  GLU114     -0.1979
     72  CA        -3.2910    0.2120  -10.6500 C.3   114  GLU114      0.1602
     73  C         -3.7300    1.5520  -11.2580 C.2   114  GLU114      0.2287
     74  O         -3.5770    2.6170  -10.6530 O.2   114  GLU114     -0.2864
     75  CB        -1.9170   -0.2100  -11.1690 C.3   114  GLU114      0.0415
     76  CG        -1.2290   -1.3690  -10.3720 C.3   114  GLU114      0.1163
     77  CD        -1.2390   -1.1520   -8.8540 C.2   114  GLU114      0.3649
     78  OE1       -1.3850   -2.1590   -8.0990 O.co2 114  GLU114     -0.2457
     79  OE2       -1.1420    0.0340   -8.3900 O.co2 114  GLU114     -0.2457
     80  N         -5.9010    3.4520   -9.0360 N.3   117  HIS117     -0.1241
     81  CA        -5.0850    4.2720   -8.1270 C.3   117  HIS117      0.1621
     82  C         -4.5520    5.5410   -8.8140 C.2   117  HIS117      0.2264
     83  O         -4.6440    6.6310   -8.2370 O.2   117  HIS117     -0.2867
     84  CB        -3.9130    3.4530   -7.5340 C.3   117  HIS117      0.0745
     85  CG        -4.3430    2.4390   -6.5210 C.ar  117  HIS117      0.0817
     86  ND1       -5.2680    2.7170   -5.5290 N.ar  117  HIS117     -0.2268
     87  CD2       -3.9860    1.1480   -6.3490 C.ar  117  HIS117      0.1154
     88  CE1       -5.5100    1.6210   -4.8330 C.ar  117  HIS117      0.1986
     89  NE2       -4.7070    0.6710   -5.2760 N.ar  117  HIS117     -0.2212
     90  N         -9.3510    1.5750   -2.1340 N.3   123  HIS123     -0.1241
     91  CA        -9.6980    0.1680   -2.1470 C.3   123  HIS123      0.1621
     92  C        -11.1530   -0.0850   -1.7920 C.2   123  HIS123      0.2264
     93  O        -11.7890    0.7230   -1.1400 O.2   123  HIS123     -0.2867
     94  CB        -8.7700   -0.5990   -1.2040 C.3   123  HIS123      0.0745
     95  CG        -7.4320   -0.8770   -1.8000 C.ar  123  HIS123      0.0817
     96  ND1       -6.2920   -1.0020   -1.0430 N.ar  123  HIS123     -0.2268
     97  CD2       -7.0500   -1.0460   -3.0910 C.ar  123  HIS123      0.1154
     98  CE1       -5.2550   -1.2210   -1.8430 C.ar  123  HIS123      0.1986
     99  NE2       -5.6940   -1.2930   -3.0880 N.ar  123  HIS123     -0.2212
    100  N        -14.8240   -6.5990   -6.5220 N.3   129  ALA129     -0.1231
    101  CA       -14.3670   -5.3430   -7.1080 C.3   129  ALA129      0.1694
    102  C        -12.9380   -5.4800   -7.5730 C.2   129  ALA129      0.2591
    103  O        -12.1280   -6.1580   -6.9190 O.2   129  ALA129     -0.2718
    104  CB       -14.4860   -4.2080   -6.0640 C.3   129  ALA129      0.0304
    105  N        -12.6020   -4.8120   -8.6770 N.am  130  VAL130     -0.1980
    106  CA       -11.2320   -4.8400   -9.1820 C.3   130  VAL130      0.1595
    107  C        -10.3030   -4.0720   -8.2170 C.2   130  VAL130      0.2287
    108  O         -9.1140   -4.3190   -8.1740 O.2   130  VAL130     -0.2864
    109  CB       -11.1390   -4.3130  -10.6760 C.3   130  VAL130      0.0276
    110  CG1      -11.1480   -2.7480  -10.7520 C.3   130  VAL130      0.0022
    111  CG2       -9.9180   -4.8790  -11.3710 C.3   130  VAL130      0.0022
    112  N        -10.5580   -4.3080   -4.9740 N.3   132  PHE132     -0.1228
    113  CA       -10.3400   -5.1090   -3.7580 C.3   132  PHE132      0.1721
    114  C         -8.8000   -5.1410   -3.5190 C.2   132  PHE132      0.2442
    115  O         -8.0470   -5.1400   -4.4870 O.2   132  PHE132     -0.2733
    116  CB       -10.9620   -6.4910   -3.9790 C.3   132  PHE132      0.0547
    117  CG       -10.8810   -7.3970   -2.7700 C.ar  132  PHE132     -0.0202
    118  CD1      -11.6000   -7.1120   -1.6270 C.ar  132  PHE132     -0.0042
    119  CD2      -10.1000   -8.5400   -2.7890 C.ar  132  PHE132     -0.0042
    120  CE1      -11.5440   -7.9560   -0.5230 C.ar  132  PHE132     -0.0003
    121  CE2      -10.0520   -9.3800   -1.6700 C.ar  132  PHE132     -0.0003
    122  CZ       -10.7710   -9.0680   -0.5480 C.ar  132  PHE132     -0.0000
    123  N         -8.3160   -5.0850   -2.2450 N.am  133  PRO133     -0.2643
    124  CA        -6.8580   -4.8440   -2.0330 C.3   133  PRO133      0.1762
    125  C         -5.9100   -6.0240   -2.3140 C.2   133  PRO133      0.2642
    126  O         -4.6940   -5.9180   -2.1310 O.2   133  PRO133     -0.2712
    127  CB        -6.7530   -4.3840   -0.5570 C.2   133  PRO133     -0.0003
    128  CG        -8.0610   -4.4240    0.0060 C.2   133  PRO133     -0.0071
    129  CD        -9.0900   -4.9550   -1.0090 C.3   133  PRO133      0.1204
    130  N         -6.4820   -7.1400   -2.7270 N.am  134  THR134     -0.1934
    131  CA        -5.7300   -8.3670   -2.9500 C.3   134  THR134      0.2028
    132  C         -6.0330   -8.9840   -4.2890 C.2   134  THR134      0.2642
    133  O         -7.1900   -9.1860   -4.6320 O.2   134  THR134     -0.2714
    134  CB        -6.0400   -9.4350   -1.8430 C.3   134  THR134      0.1808
    135  OG1       -5.7890   -8.8430   -0.5550 O.3   134  THR134     -0.2208
    136  CG2       -5.1460  -10.6360   -2.0340 C.3   134  THR134      0.0379
    137  N         -4.9740   -9.2480   -5.0600 N.am  135  TYR135     -0.1959
    138  CA        -5.0760   -9.7640   -6.4110 C.3   135  TYR135      0.1771
    139  C         -5.8130  -11.0930   -6.5180 C.2   135  TYR135      0.2619
    140  O         -5.5110  -12.0930   -5.8310 O.2   135  TYR135     -0.2715
    141  CB        -3.6800   -9.8610   -7.0860 C.3   135  TYR135      0.0574
    142  CG        -3.6810  -10.5300   -8.4560 C.ar  135  TYR135     -0.0198
    143  CD1       -3.8050   -9.7860   -9.6310 C.ar  135  TYR135     -0.0009
    144  CD2       -3.5270  -11.9150   -8.5720 C.ar  135  TYR135     -0.0009
    145  CE1       -3.8180  -10.4090  -10.8830 C.ar  135  TYR135      0.0417
    146  CE2       -3.5320  -12.5420   -9.8010 C.ar  135  TYR135      0.0417
    147  CZ        -3.6670  -11.7820  -10.9650 C.ar  135  TYR135      0.1957
    148  OH        -3.6400  -12.4360  -12.1660 O.3   135  TYR135     -0.2866
    149  N         -6.7630  -11.1110   -7.4330 N.am  136  LYS136     -0.1977
    150  CA        -7.4990  -12.2960   -7.7210 C.3   136  LYS136      0.1596
    151  C         -7.8140  -12.3480   -9.2250 C.2   136  LYS136      0.2287
    152  O         -8.4070  -11.4130   -9.8130 O.2   136  LYS136     -0.2864
    153  CB        -8.7350  -12.3520   -6.8040 C.3   136  LYS136      0.0298
    154  CG        -9.9410  -13.1010   -7.3610 C.3   136  LYS136      0.0038
    155  CD        -9.5940  -14.4940   -7.9560 C.3   136  LYS136      0.0206
    156  CE       -10.8100  -15.4610   -7.7300 C.3   136  LYS136      0.1093
    157  NZ       -10.5670  -16.9070   -8.0790 N.3   136  LYS136     -0.1314
@<TRIPOS>BOND
     1    46    47    1
     2    53    51    1
     3    51    50    1
     4    51    52    1
     5    47    50    1
     6    47    48    1
     7    48    54   am
     8    48    49    2
     9    54    55    1
    10    56    55    1
    11    56    57    2
    12    55    58    1
    13    58    59    1
    14    58    60    1
    15   148   147    1
    16    61    62    1
    17   111   109    1
    18    73    74    2
    19    73    72    1
    20    75    72    1
    21    75    76    1
    22   147   145   ar
    23   147   146   ar
    24    71    72    1
    25    71    63   am
    26   145   143   ar
    27   110   109    1
    28   109   106    1
    29    62    63    1
    30    62    65    1
    31    76    77    1
    32    63    64    2
    33   152   151    2
    34   146   144   ar
    35    35    32    1
    36    65    66    1
    37   143   142   ar
    38    26    25    2
    39   151   150    1
    40   106   105    1
    41   106   107    1
    42    39    38    2
    43    80    81    1
    44    77    79   ar
    45    77    78   ar
    46    82    83    2
    47    82    81    1
    48   105   102   am
    49   144   142   ar
    50    32    31    1
    51    32    33    1
    52    25    31   am
    53    25    24    1
    54   142   141    1
    55   107   108    2
    56    66    68   ar
    57    66    67   ar
    58    27    24    1
    59    27    28    1
    60    81    84    1
    61   157   156    1
    62    38    37    1
    63   155   156    1
    64   155   154    1
    65    36    33   am
    66    36    37    1
    67    29    28    1
    68   150   149    1
    69   150   153    1
    70    24    23    1
    71    33    34    2
    72   102   101    1
    73   102   103    2
    74    30    28    1
    75    84    85    1
    76    68    70   ar
    77   149   139   am
    78    67    69   ar
    79   154   153    1
    80    37    40    1
    81   101   100    1
    82   101   104    1
    83   141   138    1
    84    45    43   ar
    85    45    44   ar
    86    43    41   ar
    87    44    42   ar
    88    85    87   ar
    89    85    86   ar
    90   139   138    1
    91   139   140    2
    92   138   137    1
    93    87    89   ar
    94    23    17   am
    95    41    42   ar
    96    41    40    1
    97    70    69   ar
    98    18    17    2
    99    86    88   ar
   100    17    16    1
   101    89    88   ar
   102   137   132   am
   103   112   113    1
   104   133   132    2
   105   115   114    2
   106    21    19    1
   107   132   131    1
   108     4     3    2
   109   116   113    1
   110   116   117    1
   111    16    19    1
   112    16    15    1
   113    14    13    2
   114   113   114    1
   115    19    20    1
   116   114   123   am
   117     5     6    1
   118     5     2    1
   119    11    12    1
   120    13    15   am
   121    13    12    1
   122     3     2    1
   123    97    99   ar
   124    97    95   ar
   125    99    98   ar
   126   131   130    1
   127   131   134    1
   128   119   117   ar
   129   119   121   ar
   130   117   118   ar
   131   130   125   am
   132     6     8   ar
   133     6     7   ar
   134     8    10   ar
   135     2     1    1
   136   125   126    2
   137   125   124    1
   138   123   124    1
   139   123   129    1
   140    91    90    1
   141    91    92    1
   142    91    94    1
   143    20    22    1
   144   136   134    1
   145   124   127    1
   146     7     9   ar
   147    98    96   ar
   148   134   135    1
   149    95    94    1
   150    95    96   ar
   151    10     9   ar
   152    92    93    2
   153   121   122   ar
   154   118   120   ar
   155   129   128    1
   156   127   128    2
   157   122   120   ar
