@<TRIPOS>MOLECULE
tmp/3ehyA00.pdb
 147 147 0 0 0
SMALL
GASTEIGER

@<TRIPOS>ATOM
      1  N          4.0140  -11.5590   -3.4690 N.3    74  GLY74      -0.1210
      2  CA         3.8590  -10.4030   -2.6120 C.3    74  GLY74       0.1956
      3  C          3.2850   -9.2800   -3.4600 C.2    74  GLY74       0.2612
      4  O          2.3300   -9.4850   -4.1970 O.2    74  GLY74      -0.2717
      5  N          3.8950   -8.1050   -3.3630 N.am   75  ILE75      -0.1965
      6  CA         3.4810   -6.9330   -4.1190 C.3    75  ILE75       0.1727
      7  C          3.7500   -7.1050   -5.5870 C.2    75  ILE75       0.2616
      8  O          4.9000   -7.3360   -5.9920 O.2    75  ILE75      -0.2715
      9  CB         4.2840   -5.6810   -3.6970 C.3    75  ILE75       0.0290
     10  CG1        4.1980   -5.4830   -2.1990 C.3    75  ILE75       0.0022
     11  CG2        3.7660   -4.4610   -4.4140 C.3    75  ILE75       0.0023
     12  CD1        2.8570   -5.1290   -1.6980 C.3    75  ILE75       0.0001
     13  N          2.7090   -6.9260   -6.3900 N.am   76  LEU76      -0.1963
     14  CA         2.8160   -7.0520   -7.8550 C.3    76  LEU76       0.1728
     15  C          3.1310   -5.7640   -8.5800 C.2    76  LEU76       0.2616
     16  O          3.8170   -5.7930   -9.6060 O.2    76  LEU76      -0.2715
     17  CB         1.5000   -7.5900   -8.4510 C.3    76  LEU76       0.0311
     18  CG         0.9630   -8.7520   -7.6330 C.3    76  LEU76       0.0022
     19  CD1       -0.4320   -9.1770   -8.1900 C.3    76  LEU76       0.0001
     20  CD2        1.9150   -9.9500   -7.7370 C.3    76  LEU76       0.0001
     21  N          2.6200   -4.6410   -8.0600 N.am   77  ALA77      -0.1963
     22  CA         2.7510   -3.3470   -8.7210 C.3    77  ALA77       0.1728
     23  C          2.3600   -2.2570   -7.7180 C.2    77  ALA77       0.2616
     24  O          1.8890   -2.5950   -6.6550 O.2    77  ALA77      -0.2715
     25  CB         1.8040   -3.3470   -9.9560 C.3    77  ALA77       0.0334
     26  N          2.5970   -0.9800   -7.9900 N.am   78  HIS78      -0.1959
     27  CA         1.9520    0.0600   -7.1680 C.3    78  HIS78       0.1787
     28  C          1.8190    1.3150   -8.0250 C.2    78  HIS78       0.2620
     29  O          2.4740    1.4160   -9.0650 O.2    78  HIS78      -0.2715
     30  CB         2.7680    0.3930   -5.9070 C.3    78  HIS78       0.0785
     31  CG         4.0010    1.2030   -6.2080 C.ar   78  HIS78       0.0821
     32  ND1        4.0770    2.5760   -6.0270 N.ar   78  HIS78      -0.2267
     33  CD2        5.2080    0.8220   -6.6750 C.ar   78  HIS78       0.1154
     34  CE1        5.2610    3.0070   -6.4270 C.ar   78  HIS78       0.1986
     35  NE2        5.9830    1.9530   -6.7800 N.ar   78  HIS78      -0.2212
     36  N          0.9860    2.2670   -7.5870 N.am   79  ALA79      -0.1977
     37  CA         0.7730    3.4790   -8.3690 C.3    79  ALA79       0.1597
     38  C          0.5050    4.6640   -7.4620 C.2    79  ALA79       0.2287
     39  O          0.0020    4.5250   -6.3390 O.2    79  ALA79      -0.2864
     40  CB        -0.3800    3.2950   -9.3820 C.3    79  ALA79       0.0319
     41  N         -5.0990   -7.1240  -15.9410 N.3   109  LEU109     -0.1231
     42  CA        -5.8730   -7.0600  -14.6740 C.3   109  LEU109      0.1693
     43  C         -5.1540   -6.2240  -13.6590 C.2   109  LEU109      0.2592
     44  O         -5.7380   -5.3960  -12.9540 O.2   109  LEU109     -0.2718
     45  CB        -6.0640   -8.4430  -14.0370 C.3   109  LEU109      0.0284
     46  CG        -7.3350   -9.1220  -14.5190 C.3   109  LEU109      0.0019
     47  CD1       -7.4160  -10.4970  -13.8990 C.3   109  LEU109      0.0001
     48  CD2       -8.4830   -8.2220  -14.0150 C.3   109  LEU109      0.0001
     49  N         -3.8540   -6.4620  -13.5690 N.am  110  THR110     -0.1953
     50  CA        -3.0380   -5.6720  -12.6810 C.3   110  THR110      0.1897
     51  C         -3.1170   -4.1740  -13.0560 C.2   110  THR110      0.2313
     52  O         -3.2070   -3.2890  -12.1690 O.2   110  THR110     -0.2863
     53  CB        -1.6000   -6.2290  -12.7030 C.3   110  THR110      0.1794
     54  OG1       -1.6360   -7.6480  -12.4920 O.3   110  THR110     -0.2208
     55  CG2       -0.6950   -5.5420  -11.6850 C.3   110  THR110      0.0378
     56  N         -6.1890   -2.2550  -12.0700 N.3   113  HIS113     -0.1226
     57  CA        -6.2300   -1.9270  -10.6220 C.3   113  HIS113      0.1752
     58  C         -5.2810   -0.7550  -10.4040 C.2   113  HIS113      0.2595
     59  O         -5.6440    0.2310   -9.7590 O.2   113  HIS113     -0.2718
     60  CB        -5.7890   -3.1330   -9.7830 C.3   113  HIS113      0.0759
     61  CG        -5.7150   -2.8610   -8.3070 C.ar  113  HIS113      0.0818
     62  ND1       -6.6470   -3.3430   -7.4060 N.ar  113  HIS113     -0.2268
     63  CD2       -4.8150   -2.1560   -7.5690 C.ar  113  HIS113      0.1154
     64  CE1       -6.3430   -2.9320   -6.1820 C.ar  113  HIS113      0.1986
     65  NE2       -5.2240   -2.2220   -6.2530 N.ar  113  HIS113     -0.2212
     66  N         -4.0800   -0.8240  -10.9910 N.am  114  GLU114     -0.1979
     67  CA        -3.1040    0.2470  -10.7840 C.3   114  GLU114      0.1602
     68  C         -3.6120    1.5620  -11.3650 C.2   114  GLU114      0.2287
     69  O         -3.5180    2.5850  -10.7140 O.2   114  GLU114     -0.2864
     70  CB        -1.7240   -0.1450  -11.3490 C.3   114  GLU114      0.0415
     71  CG        -1.0600   -1.3400  -10.5880 C.3   114  GLU114      0.1163
     72  CD        -1.0760   -1.1100   -9.0800 C.2   114  GLU114      0.3649
     73  OE1       -1.2250   -2.1070   -8.3510 O.co2 114  GLU114     -0.2457
     74  OE2       -0.9670    0.0710   -8.6140 O.co2 114  GLU114     -0.2457
     75  N         -5.8930    3.3790   -9.0420 N.3   117  HIS117     -0.1241
     76  CA        -5.0580    4.2280   -8.1500 C.3   117  HIS117      0.1621
     77  C         -4.5260    5.4750   -8.8080 C.2   117  HIS117      0.2264
     78  O         -4.6320    6.5590   -8.2170 O.2   117  HIS117     -0.2867
     79  CB        -3.8790    3.4350   -7.5810 C.3   117  HIS117      0.0745
     80  CG        -4.3010    2.4030   -6.5840 C.ar  117  HIS117      0.0817
     81  ND1       -5.2300    2.6760   -5.5960 N.ar  117  HIS117     -0.2268
     82  CD2       -3.9190    1.1140   -6.4080 C.ar  117  HIS117      0.1154
     83  CE1       -5.4370    1.5800   -4.8790 C.ar  117  HIS117      0.1986
     84  NE2       -4.6280    0.6310   -5.3270 N.ar  117  HIS117     -0.2212
     85  N         -9.2390    1.3780   -2.2100 N.3   123  HIS123     -0.1241
     86  CA        -9.5490   -0.0250   -2.2590 C.3   123  HIS123      0.1621
     87  C        -10.9860   -0.2740   -1.8940 C.2   123  HIS123      0.2264
     88  O        -11.6080    0.5320   -1.2600 O.2   123  HIS123     -0.2867
     89  CB        -8.6200   -0.7930   -1.3010 C.3   123  HIS123      0.0745
     90  CG        -7.2690   -1.0710   -1.8680 C.ar  123  HIS123      0.0817
     91  ND1       -6.1480   -1.2220   -1.0820 N.ar  123  HIS123     -0.2268
     92  CD2       -6.8660   -1.3010   -3.1470 C.ar  123  HIS123      0.1154
     93  CE1       -5.1030   -1.5020   -1.8510 C.ar  123  HIS123      0.1986
     94  NE2       -5.5160   -1.5870   -3.1000 N.ar  123  HIS123     -0.2212
     95  N        -12.4320   -4.9220   -8.8710 N.3   130  VAL130     -0.1245
     96  CA       -11.0360   -4.9610   -9.2720 C.3   130  VAL130      0.1561
     97  C        -10.1360   -4.1970   -8.2620 C.2   130  VAL130      0.2260
     98  O         -8.9390   -4.4830   -8.1200 O.2   130  VAL130     -0.2867
     99  CB       -10.8310   -4.4810  -10.7280 C.3   130  VAL130      0.0252
    100  CG1      -10.9030   -2.9150  -10.8320 C.3   130  VAL130      0.0019
    101  CG2       -9.4740   -5.0340  -11.2440 C.3   130  VAL130      0.0019
    102  N        -10.4310   -4.4450   -5.0460 N.3   132  PHE132     -0.1228
    103  CA       -10.2010   -5.2680   -3.8300 C.3   132  PHE132      0.1721
    104  C         -8.6680   -5.2840   -3.5860 C.2   132  PHE132      0.2437
    105  O         -7.8920   -5.2730   -4.5600 O.2   132  PHE132     -0.2733
    106  CB       -10.7920   -6.6800   -4.0270 C.3   132  PHE132      0.0547
    107  CG       -10.7450   -7.5590   -2.7870 C.ar  132  PHE132     -0.0202
    108  CD1      -11.6220   -7.3410   -1.7160 C.ar  132  PHE132     -0.0042
    109  CD2       -9.8350   -8.6070   -2.6960 C.ar  132  PHE132     -0.0042
    110  CE1      -11.5990   -8.1480   -0.6030 C.ar  132  PHE132     -0.0003
    111  CE2       -9.8100   -9.4100   -1.5890 C.ar  132  PHE132     -0.0003
    112  CZ       -10.6920   -9.1750   -0.5280 C.ar  132  PHE132     -0.0000
    113  N         -8.2060   -5.2970   -2.3090 N.am  133  PRO133     -0.2718
    114  CA        -6.7740   -5.0220   -2.0100 C.3   133  PRO133      0.1535
    115  C         -5.7710   -6.0560   -2.4690 C.2   133  PRO133      0.2599
    116  O         -4.5840   -5.8130   -2.4000 O.2   133  PRO133     -0.2715
    117  CB        -6.7270   -4.9990   -0.4730 C.3   133  PRO133      0.0310
    118  CG        -8.0980   -4.6900   -0.0680 C.3   133  PRO133      0.0237
    119  CD        -8.9670   -5.4330   -1.0500 C.3   133  PRO133      0.0939
    120  N         -6.2640   -7.2030   -2.8890 N.am  134  THR134     -0.1937
    121  CA        -5.4400   -8.3650   -3.1390 C.3   134  THR134      0.2028
    122  C         -5.8080   -8.9780   -4.4910 C.2   134  THR134      0.2642
    123  O         -6.9800   -8.9720   -4.8690 O.2   134  THR134     -0.2714
    124  CB        -5.6270   -9.2900   -1.9180 C.3   134  THR134      0.1808
    125  OG1       -4.4320   -9.2210   -1.0860 O.3   134  THR134     -0.2208
    126  CG2       -6.0150  -10.6440   -2.2900 C.3   134  THR134      0.0379
    127  N         -4.8050   -9.4170   -5.2610 N.am  135  TYR135     -0.1959
    128  CA        -5.0120   -9.8940   -6.6350 C.3   135  TYR135      0.1771
    129  C         -5.7370  -11.2330   -6.7370 C.2   135  TYR135      0.2619
    130  O         -5.4330  -12.1710   -6.0120 O.2   135  TYR135     -0.2715
    131  CB        -3.6660   -9.9580   -7.4010 C.3   135  TYR135      0.0574
    132  CG        -3.6300  -10.6110   -8.7970 C.ar  135  TYR135     -0.0198
    133  CD1       -3.6430   -9.8340   -9.9520 C.ar  135  TYR135     -0.0009
    134  CD2       -3.4860  -11.9910   -8.9520 C.ar  135  TYR135     -0.0009
    135  CE1       -3.6070  -10.3970  -11.1830 C.ar  135  TYR135      0.0417
    136  CE2       -3.4230  -12.5810  -10.2020 C.ar  135  TYR135      0.0417
    137  CZ        -3.4950  -11.8020  -11.3240 C.ar  135  TYR135      0.1957
    138  OH        -3.3950  -12.3750  -12.5880 O.3   135  TYR135     -0.2866
    139  N         -6.6700  -11.3100   -7.6800 N.am  136  LYS136     -0.1977
    140  CA        -7.3920  -12.5230   -7.9630 C.3   136  LYS136      0.1596
    141  C         -7.7260  -12.5810   -9.4680 C.2   136  LYS136      0.2287
    142  O         -8.4540  -11.7350  -10.0100 O.2   136  LYS136     -0.2864
    143  CB        -8.6800  -12.5620   -7.1330 C.3   136  LYS136      0.0298
    144  CG        -9.4490  -13.8700   -7.3060 C.3   136  LYS136      0.0038
    145  CD        -8.6090  -15.0740   -6.8150 C.3   136  LYS136      0.0206
    146  CE        -9.5180  -16.2070   -6.3100 C.3   136  LYS136      0.1093
    147  NZ       -10.5720  -16.4920   -7.3300 N.3   136  LYS136     -0.1314
@<TRIPOS>BOND
     1    41    42    1
     2    42    45    1
     3    42    43    1
     4    46    45    1
     5    46    48    1
     6    46    47    1
     7    43    49   am
     8    43    44    2
     9    49    50    1
    10    51    50    1
    11    51    52    2
    12    53    50    1
    13    53    54    1
    14    53    55    1
    15   138   137    1
    16    56    57    1
    17    68    67    1
    18    68    69    2
    19    70    67    1
    20    70    71    1
    21   137   135   ar
    22   137   136   ar
    23   101    99    1
    24   135   133   ar
    25    66    67    1
    26    66    58   am
    27   100    99    1
    28    99    96    1
    29    57    58    1
    30    57    60    1
    31    71    72    1
    32    58    59    2
    33   136   134   ar
    34   142   141    2
    35    25    22    1
    36   133   132   ar
    37    60    61    1
    38    16    15    2
    39   141   140    1
    40    40    37    1
    41    96    95    1
    42    96    97    1
    43    72    74   ar
    44    72    73   ar
    45    29    28    2
    46    75    76    1
    47   134   132   ar
    48    77    78    2
    49    77    76    1
    50   132   131    1
    51    22    21    1
    52    22    23    1
    53    15    21   am
    54    15    14    1
    55    17    14    1
    56    17    18    1
    57    37    36    1
    58    37    38    1
    59    61    63   ar
    60    61    62   ar
    61    97    98    2
    62    19    18    1
    63    76    79    1
    64    28    36   am
    65    28    27    1
    66    26    23   am
    67    26    27    1
    68   140   139    1
    69   140   143    1
    70    14    13    1
    71    20    18    1
    72    23    24    2
    73   139   129   am
    74    79    80    1
    75    63    65   ar
    76    38    39    2
    77    62    64   ar
    78   131   128    1
    79   147   146    1
    80   144   143    1
    81   144   145    1
    82    27    30    1
    83   145   146    1
    84    35    33   ar
    85    35    34   ar
    86   129   128    1
    87   129   130    2
    88    33    31   ar
    89   128   127    1
    90    80    82   ar
    91    80    81   ar
    92    34    32   ar
    93    82    84   ar
    94    13     7   am
    95    65    64   ar
    96    31    32   ar
    97    31    30    1
    98     8     7    2
    99    81    83   ar
   100     7     6    1
   101    84    83   ar
   102   127   122   am
   103   102   103    1
   104   123   122    2
   105   105   104    2
   106   122   121    1
   107    11     9    1
   108     4     3    2
   109     6     9    1
   110     6     5    1
   111   106   103    1
   112   106   107    1
   113   103   104    1
   114     9    10    1
   115   104   113   am
   116     1     2    1
   117     3     5   am
   118     3     2    1
   119    92    94   ar
   120    92    90   ar
   121   121   120    1
   122   121   124    1
   123    94    93   ar
   124   120   115   am
   125   107   109   ar
   126   107   108   ar
   127   109   111   ar
   128   115   116    2
   129   115   114    1
   130   113   114    1
   131   113   119    1
   132   126   124    1
   133    86    85    1
   134    86    87    1
   135    86    89    1
   136    10    12    1
   137   114   117    1
   138   124   125    1
   139    87    88    2
   140    90    89    1
   141    90    91   ar
   142    93    91   ar
   143   108   110   ar
   144   111   112   ar
   145   119   118    1
   146   110   112   ar
   147   117   118    1
