@<TRIPOS>MOLECULE
tmp/3ei6A00.pdb
 194 183 0 0 0
SMALL
GASTEIGER

@<TRIPOS>ATOM
      1  N        -17.7210   50.2100   22.7350 N.3    19  TYR19      -0.1241
      2  CA       -17.9890   48.8630   22.1970 C.3    19  TYR19       0.1605
      3  C        -16.6760   48.0620   22.1990 C.2    19  TYR19       0.2264
      4  O        -15.6000   48.6160   21.9070 O.2    19  TYR19      -0.2867
      5  CB       -18.5820   48.9670   20.7890 C.3    19  TYR19       0.0534
      6  CG       -19.0980   47.6580   20.1910 C.ar   19  TYR19      -0.0201
      7  CD1      -20.0260   46.8610   20.8710 C.ar   19  TYR19      -0.0009
      8  CD2      -18.6830   47.2470   18.9290 C.ar   19  TYR19      -0.0009
      9  CE1      -20.4910   45.6560   20.3080 C.ar   19  TYR19       0.0417
     10  CE2      -19.1530   46.0660   18.3580 C.ar   19  TYR19       0.0417
     11  CZ       -20.0430   45.2740   19.0590 C.ar   19  TYR19       0.1957
     12  OH       -20.4870   44.1010   18.4770 O.3    19  TYR19      -0.2866
     13  N        -15.0660   45.7290   20.4110 N.3    21  PHE21      -0.1241
     14  CA       -14.1960   45.4020   19.2890 C.3    21  PHE21       0.1605
     15  C        -13.3250   46.5740   18.7910 C.2    21  PHE21       0.2264
     16  O        -12.1290   46.3760   18.5350 O.2    21  PHE21      -0.2867
     17  CB       -14.9820   44.6770   18.1840 C.3    21  PHE21       0.0534
     18  CG       -15.6010   43.3900   18.6700 C.ar   21  PHE21      -0.0203
     19  CD1      -14.7820   42.3130   19.0630 C.ar   21  PHE21      -0.0042
     20  CD2      -16.9760   43.2770   18.8120 C.ar   21  PHE21      -0.0042
     21  CE1      -15.3400   41.1260   19.5520 C.ar   21  PHE21      -0.0003
     22  CE2      -17.5520   42.0870   19.2940 C.ar   21  PHE21      -0.0003
     23  CZ       -16.7330   41.0230   19.6700 C.ar   21  PHE21      -0.0000
     24  N        -10.4150   40.0580   17.0360 N.3    45  ILE45      -0.1231
     25  CA       -11.6770   40.2740   16.3310 C.3    45  ILE45       0.1692
     26  C        -11.9170   39.1350   15.3320 C.2    45  ILE45       0.2593
     27  O        -11.0220   38.7910   14.5520 O.2    45  ILE45      -0.2718
     28  CB       -11.6710   41.6460   15.5750 C.3    45  ILE45       0.0266
     29  CG1      -11.4300   42.8040   16.5720 C.3    45  ILE45       0.0019
     30  CG2      -12.9420   41.8150   14.7520 C.3    45  ILE45       0.0020
     31  CD1      -11.1710   44.1830   15.9160 C.3    45  ILE45       0.0001
     32  N        -13.1140   38.5510   15.3570 N.am   46  GLY46      -0.1942
     33  CA       -13.4230   37.4050   14.4940 C.3    46  GLY46       0.2014
     34  C        -13.7620   37.8690   13.0940 C.2    46  GLY46       0.2638
     35  O        -14.9420   38.0280   12.7450 O.2    46  GLY46      -0.2714
     36  N        -12.7330   38.0830   12.2870 N.am   47  ASP47      -0.1971
     37  CA       -12.8870   38.6740   10.9640 C.3    47  ASP47       0.1709
     38  C        -12.3450   37.6770    9.9600 C.2    47  ASP47       0.2293
     39  O        -11.2260   37.1680   10.1280 O.2    47  ASP47      -0.2864
     40  CB       -12.1020   39.9940   10.9000 C.3    47  ASP47       0.1436
     41  CG       -12.4300   40.8280    9.6640 C.2    47  ASP47       0.3671
     42  OD1      -13.3560   40.4870    8.9100 O.co2  47  ASP47      -0.2456
     43  OD2      -11.7350   41.8410    9.4600 O.co2  47  ASP47      -0.2456
     44  N        -27.1030   42.1980    7.5390 N.3   109  GLY109     -0.1210
     45  CA       -26.2770   41.4720    8.5130 C.3   109  GLY109      0.1956
     46  C        -26.9290   41.3130    9.8630 C.2   109  GLY109      0.2612
     47  O        -27.8470   42.0620   10.2200 O.2   109  GLY109     -0.2717
     48  N        -26.4630   40.3110   10.6070 N.am  110  ALA110     -0.1965
     49  CA       -27.0970   39.9350   11.8690 C.3   110  ALA110      0.1728
     50  C        -26.9550   41.0330   12.9360 C.2   110  ALA110      0.2616
     51  O        -27.8900   41.2710   13.7060 O.2   110  ALA110     -0.2715
     52  CB       -26.5410   38.6100   12.3750 C.3   110  ALA110      0.0334
     53  N        -25.8180   41.7340   12.9560 N.am  111  LYS111     -0.1977
     54  CA       -25.6470   42.8610   13.9120 C.3   111  LYS111      0.1596
     55  C        -26.7700   43.9110   13.7440 C.2   111  LYS111      0.2287
     56  O        -27.3690   44.3600   14.7210 O.2   111  LYS111     -0.2864
     57  CB       -24.2490   43.4940   13.7760 C.3   111  LYS111      0.0298
     58  CG       -23.8920   44.5480   14.8590 C.3   111  LYS111      0.0038
     59  CD       -22.4850   45.0380   14.5880 C.3   111  LYS111      0.0206
     60  CE       -21.9410   45.9460   15.6430 C.3   111  LYS111      0.1093
     61  NZ       -20.6990   46.5960   15.0950 N.3   111  LYS111     -0.1314
     62  N        -30.2000   42.5170   14.9710 N.3   114  ILE114     -0.1245
     63  CA       -30.3070   42.5580   16.4210 C.3   114  ILE114      0.1561
     64  C        -30.8160   43.9410   16.8760 C.2   114  ILE114      0.2260
     65  O        -31.7610   44.0470   17.6810 O.2   114  ILE114     -0.2867
     66  CB       -28.9610   42.1770   17.1160 C.3   114  ILE114      0.0252
     67  CG1      -28.6890   40.6700   16.9520 C.3   114  ILE114      0.0019
     68  CG2      -29.0120   42.5460   18.6280 C.3   114  ILE114      0.0019
     69  CD1      -27.1820   40.2900   16.8710 C.3   114  ILE114      0.0001
     70  N        -21.8340   37.4210   22.9470 N.3   134  TYR134     -0.1241
     71  CA       -21.5490   38.5430   22.0440 C.3   134  TYR134      0.1605
     72  C        -22.1330   39.8510   22.6230 C.2   134  TYR134      0.2264
     73  O        -23.3330   39.9270   22.9330 O.2   134  TYR134     -0.2867
     74  CB       -22.1280   38.1700   20.6880 C.3   134  TYR134      0.0534
     75  CG       -22.0190   39.1570   19.5480 C.ar  134  TYR134     -0.0201
     76  CD1      -20.7830   39.5070   18.9710 C.ar  134  TYR134     -0.0009
     77  CD2      -23.1740   39.6570   18.9790 C.ar  134  TYR134     -0.0009
     78  CE1      -20.7380   40.4190   17.8600 C.ar  134  TYR134      0.0417
     79  CE2      -23.1440   40.5260   17.8990 C.ar  134  TYR134      0.0417
     80  CZ       -21.9410   40.9060   17.3400 C.ar  134  TYR134      0.1957
     81  OH       -22.0170   41.7900   16.2570 O.3   134  TYR134     -0.2866
     82  N        -25.8360   42.1590   22.1240 N.3   137  TYR137     -0.1241
     83  CA       -27.1510   41.9230   22.7550 C.3   137  TYR137      0.1605
     84  C        -27.3450   42.8390   23.9530 C.2   137  TYR137      0.2264
     85  O        -28.3680   43.5090   24.0520 O.2   137  TYR137     -0.2867
     86  CB       -27.3670   40.4660   23.2230 C.3   137  TYR137      0.0534
     87  CG       -26.9810   39.3730   22.2290 C.ar  137  TYR137     -0.0201
     88  CD1      -27.2320   39.5010   20.8680 C.ar  137  TYR137     -0.0009
     89  CD2      -26.3970   38.1900   22.6780 C.ar  137  TYR137     -0.0009
     90  CE1      -26.8590   38.4890   19.9490 C.ar  137  TYR137      0.0417
     91  CE2      -26.0400   37.1690   21.7800 C.ar  137  TYR137      0.0417
     92  CZ       -26.2720   37.3350   20.4230 C.ar  137  TYR137      0.1957
     93  OH       -25.9030   36.3420   19.5530 O.3   137  TYR137     -0.2866
     94  N        -27.4220   32.2580   21.5530 N.3   187  CYS187     -0.1235
     95  CA       -26.5180   32.0650   20.4150 C.3   187  CYS187      0.1677
     96  C        -25.9590   30.6490   20.4660 C.2   187  CYS187      0.2270
     97  O        -25.4240   30.2360   21.5010 O.2   187  CYS187     -0.2867
     98  CB       -25.3960   33.1100   20.4930 C.3   187  CYS187      0.0956
     99  SG       -24.2070   33.0100   19.1640 S.3   187  CYS187     -0.0801
    100  N        -20.8880   32.3080   20.6200 N.3   191  ASN191     -0.1240
    101  CA       -19.7250   33.1990   20.6640 C.3   191  ASN191      0.1653
    102  C        -19.7660   33.8660   22.0420 C.2   191  ASN191      0.2266
    103  O        -20.7390   34.5500   22.3610 O.2   191  ASN191     -0.2867
    104  CB       -19.8650   34.2100   19.5070 C.3   191  ASN191      0.1155
    105  CG       -18.7680   35.2660   19.4970 C.2   191  ASN191      0.2627
    106  OD1      -17.8150   35.2140   20.2970 O.2   191  ASN191     -0.2716
    107  ND2      -18.9130   36.2520   18.6020 N.am  191  ASN191     -0.0877
    108  N        -29.5820   33.0880   17.6630 N.3   219  ASP219     -0.1239
    109  CA       -28.5290   33.5570   16.7500 C.3   219  ASP219      0.1674
    110  C        -27.7490   32.3430   16.2390 C.2   219  ASP219      0.2266
    111  O        -26.9830   31.7100   16.9790 O.2   219  ASP219     -0.2867
    112  CB       -27.6210   34.5400   17.4870 C.3   219  ASP219      0.1410
    113  CG       -26.5770   35.2170   16.5740 C.2   219  ASP219      0.3668
    114  OD1      -26.2090   34.6440   15.5310 O.co2 219  ASP219     -0.2456
    115  OD2      -26.1040   36.3250   16.9320 O.co2 219  ASP219     -0.2456
    116  N        -25.5510   32.3600   13.6910 N.3   221  ALA221     -0.1231
    117  CA       -24.4420   32.8510   12.8600 C.3   221  ALA221      0.1694
    118  C        -23.3430   31.8040   12.5850 C.2   221  ALA221      0.2592
    119  O        -22.7010   31.8590   11.5220 O.2   221  ALA221     -0.2718
    120  CB       -23.8290   34.1400   13.4550 C.3   221  ALA221      0.0304
    121  N        -23.1310   30.8610   13.5070 N.am  222  TYR222     -0.1976
    122  CA       -22.0620   29.8560   13.3400 C.3   222  TYR222      0.1639
    123  C        -22.5810   28.4260   13.1210 C.2   222  TYR222      0.2290
    124  O        -21.8060   27.4810   13.2180 O.2   222  TYR222     -0.2864
    125  CB       -21.1070   29.8730   14.5540 C.3   222  TYR222      0.0560
    126  CG       -20.4400   31.2150   14.7020 C.ar  222  TYR222     -0.0198
    127  CD1      -19.3110   31.5450   13.9340 C.ar  222  TYR222     -0.0009
    128  CD2      -20.9710   32.1810   15.5500 C.ar  222  TYR222     -0.0009
    129  CE1      -18.7210   32.8060   14.0360 C.ar  222  TYR222      0.0417
    130  CE2      -20.3930   33.4370   15.6460 C.ar  222  TYR222      0.0417
    131  CZ       -19.2740   33.7380   14.9020 C.ar  222  TYR222      0.1957
    132  OH       -18.7140   35.0000   14.9960 O.3   222  TYR222     -0.2866
    133  N        -26.4190   34.9490    9.2080 N.3   249  SER249     -0.1217
    134  CA       -25.6260   35.8190    8.3280 C.3   249  SER249      0.1889
    135  C        -24.8090   34.9890    7.3610 C.2   249  SER249      0.2288
    136  O        -24.4750   33.8400    7.6530 O.2   249  SER249     -0.2866
    137  CB       -24.6920   36.6680    9.2020 C.3   249  SER249      0.2089
    138  OG       -23.8400   37.4890    8.4310 O.3   249  SER249     -0.2183
    139  N        -21.8810   36.2540    6.7140 N.3   251  SER251     -0.1202
    140  CA       -20.5310   36.7830    7.0310 C.3   251  SER251      0.2020
    141  C        -19.4660   35.6900    7.1910 C.2   251  SER251      0.2618
    142  O        -18.4030   35.7530    6.5670 O.2   251  SER251     -0.2717
    143  CB       -20.5470   37.6200    8.3160 C.3   251  SER251      0.2103
    144  OG       -21.1030   38.9020    8.0680 O.3   251  SER251     -0.2182
    145  N        -19.7450   34.7180    8.0580 N.am  252  LYS252     -0.1979
    146  CA       -18.7610   33.6890    8.4390 C.3   252  LYS252      0.1596
    147  C        -18.8230   32.4500    7.5350 C.2   252  LYS252      0.2287
    148  O        -18.0450   31.5070    7.7150 O.2   252  LYS252     -0.2864
    149  CB       -18.9420   33.3100    9.9200 C.3   252  LYS252      0.0298
    150  CG       -18.8170   34.5500   10.8660 C.3   252  LYS252      0.0038
    151  CD       -17.4730   35.2310   10.6140 C.3   252  LYS252      0.0206
    152  CE       -17.4010   36.6040   11.2040 C.3   252  LYS252      0.1093
    153  NZ       -17.3580   36.5560   12.6870 N.3   252  LYS252     -0.1314
    154  N        -18.2740   39.4910    5.5890 N.3   257  THR257     -0.1218
    155  CA       -18.1620   40.4390    6.7180 C.3   257  THR257      0.1862
    156  C        -18.1940   41.9010    6.2290 C.2   257  THR257      0.2287
    157  O        -18.7920   42.7600    6.8740 O.2   257  THR257     -0.2866
    158  CB       -16.8910   40.1660    7.5250 C.3   257  THR257      0.1770
    159  OG1      -15.8140   39.9360    6.5990 O.3   257  THR257     -0.2211
    160  CG2      -17.0520   38.8950    8.3700 C.3   257  THR257      0.0375
    161  N        -21.9130   42.3030    3.4560 N.3   260  ARG260     -0.1245
    162  CA       -23.1160   42.6340    4.2490 C.3   260  ARG260      0.1563
    163  C        -24.4070   41.9460    3.7480 C.2   260  ARG260      0.2260
    164  O        -25.1400   42.4940    2.9150 O.2   260  ARG260     -0.2867
    165  CB       -23.3470   44.1770    4.3720 C.3   260  ARG260      0.0307
    166  CG       -22.1380   45.0190    4.8780 C.3   260  ARG260      0.0489
    167  CD       -21.4490   44.3970    6.1260 C.3   260  ARG260      0.2205
    168  NE       -22.4310   44.2070    7.1880 N.pl3 260  ARG260     -0.0865
    169  CZ       -22.3780   43.2880    8.1520 C.cat 260  ARG260      0.5346
    170  NH1      -21.3390   42.4590    8.2680 N.pl3 260  ARG260      0.1354
    171  NH2      -23.3680   43.2340    9.0410 N.pl3 260  ARG260      0.1354
    172  N        -14.0400   29.3990   17.1990 N.3   346  TYR346     -0.1241
    173  CA       -13.5040   30.0560   18.3910 C.3   346  TYR346      0.1605
    174  C        -13.0650   28.9810   19.3590 C.2   346  TYR346      0.2264
    175  O        -13.7470   27.9520   19.5040 O.2   346  TYR346     -0.2867
    176  CB       -14.5830   30.9130   19.0920 C.3   346  TYR346      0.0534
    177  CG       -15.0380   32.0410   18.2240 C.ar  346  TYR346     -0.0201
    178  CD1      -14.1140   32.9890   17.7580 C.ar  346  TYR346     -0.0009
    179  CD2      -16.3760   32.1590   17.8380 C.ar  346  TYR346     -0.0009
    180  CE1      -14.5190   34.0550   16.9250 C.ar  346  TYR346      0.0417
    181  CE2      -16.7880   33.2170   17.0130 C.ar  346  TYR346      0.0417
    182  CZ       -15.8570   34.1570   16.5630 C.ar  346  TYR346      0.1957
    183  OH       -16.2420   35.1880   15.7220 O.3   346  TYR346     -0.2866
    184  N        -10.7530   34.3310   24.5420 N.3   386  ARG386     -0.1245
    185  CA       -11.2360   33.7500   23.2970 C.3   386  ARG386      0.1563
    186  C        -10.1690   33.8790   22.2140 C.2   386  ARG386      0.2260
    187  O         -9.6150   34.9770   21.9750 O.2   386  ARG386     -0.2867
    188  CB       -12.5640   34.4200   22.8530 C.3   386  ARG386      0.0307
    189  CG       -13.2060   33.7510   21.6290 C.3   386  ARG386      0.0489
    190  CD       -14.2370   34.6630   20.9510 C.3   386  ARG386      0.2205
    191  NE       -13.5850   35.6910   20.1280 N.pl3 386  ARG386     -0.0865
    192  CZ       -14.2340   36.5810   19.3700 C.cat 386  ARG386      0.5346
    193  NH1      -15.5600   36.6100   19.3460 N.pl3 386  ARG386      0.1354
    194  NH2      -13.5550   37.4800   18.6610 N.pl3 386  ARG386      0.1354
@<TRIPOS>BOND
     1   164   163    2
     2   161   162    1
     3   163   162    1
     4   162   165    1
     5   165   166    1
     6   166   167    1
     7   154   155    1
     8   167   168    1
     9   156   155    1
    10   156   157    2
    11   142   141    2
    12   159   158    1
    13   139   140    1
    14   155   158    1
    15   140   141    1
    16   140   143    1
    17   168   169    2
    18   141   145   am
    19   135   136    2
    20   135   134    1
    21   158   160    1
    22   147   148    2
    23   147   146    1
    24    44    45    1
    25   145   146    1
    26   144   143    1
    27   169   170    1
    28   169   171    1
    29   134   137    1
    30   134   133    1
    31   138   137    1
    32   146   149    1
    33    45    46    1
    34    42    41   ar
    35    43    41   ar
    36    41    40    1
    37    46    47    2
    38    46    48   am
    39   149   150    1
    40    38    39    2
    41    38    37    1
    42    48    49    1
    43   151   150    1
    44   151   152    1
    45    40    37    1
    46    37    36    1
    47   152   153    1
    48   119   118    2
    49    49    52    1
    50    49    50    1
    51    36    34   am
    52   118   117    1
    53   118   121   am
    54    35    34    2
    55   117   120    1
    56   117   116    1
    57    50    53   am
    58    50    51    2
    59    53    54    1
    60    34    33    1
    61   123   124    2
    62   123   122    1
    63   122   121    1
    64   122   125    1
    65    55    54    1
    66    55    56    2
    67    57    54    1
    68    57    58    1
    69   127   129   ar
    70   127   126   ar
    71   129   131   ar
    72    33    32    1
    73    27    26    2
    74   125   126    1
    75    59    58    1
    76    59    60    1
    77   126   128   ar
    78    30    28    1
    79   131   132    1
    80   131   130   ar
    81    62    63    1
    82    61    60    1
    83    26    32   am
    84    26    25    1
    85   114   113   ar
    86   128   130   ar
    87    28    25    1
    88    28    29    1
    89   183   182    1
    90    31    29    1
    91   110   109    1
    92   110   111    2
    93    81    80    1
    94    25    24    1
    95    63    64    1
    96    63    66    1
    97   182   180   ar
    98   182   181   ar
    99   113   115   ar
   100   113   112    1
   101   109   112    1
   102   109   108    1
   103    69    67    1
   104    64    65    2
   105   180   178   ar
   106    67    66    1
   107   181   179   ar
   108    66    68    1
   109   172   173    1
   110    80    78   ar
   111    80    79   ar
   112   178   177   ar
   113   179   177   ar
   114    78    76   ar
   115    79    77   ar
   116    17    18    1
   117    17    14    1
   118   177   176    1
   119    10     8   ar
   120    10    11   ar
   121   173   176    1
   122   173   174    1
   123    12    11    1
   124    16    15    2
   125   107   105   am
   126   194   192    1
   127    18    20   ar
   128    18    19   ar
   129    15    14    1
   130    20    22   ar
   131     8     6   ar
   132    76    75   ar
   133    77    75   ar
   134    11     9   ar
   135    19    21   ar
   136    99    98    1
   137    14    13    1
   138    22    23   ar
   139   193   192    1
   140   174   175    2
   141   192   191    2
   142   105   104    1
   143   105   106    2
   144   104   101    1
   145    75    74    1
   146    21    23   ar
   147    93    92    1
   148    90    92   ar
   149    90    88   ar
   150   191   190    1
   151     6     5    1
   152     6     7   ar
   153     9     7   ar
   154    95    96    1
   155    95    98    1
   156    95    94    1
   157    92    91   ar
   158    96    97    2
   159   100   101    1
   160   101   102    1
   161    74    71    1
   162     5     2    1
   163    88    87   ar
   164   190   189    1
   165   189   188    1
   166    91    89   ar
   167     4     3    2
   168   187   186    2
   169   102   103    2
   170    71    72    1
   171    71    70    1
   172    82    83    1
   173     2     3    1
   174     2     1    1
   175   186   185    1
   176    87    89   ar
   177    87    86    1
   178    72    73    2
   179    83    86    1
   180    83    84    1
   181   188   185    1
   182   185   184    1
   183    84    85    2
