@<TRIPOS>MOLECULE
tmp/3eiaA00.pdb
 197 186 0 0 0
SMALL
GASTEIGER

@<TRIPOS>ATOM
      1  N        -17.8620   50.1010   22.8180 N.3    19  TYR19      -0.1241
      2  CA       -17.9030   48.7430   22.2690 C.3    19  TYR19       0.1605
      3  C        -16.5100   48.0800   22.3650 C.2    19  TYR19       0.2264
      4  O        -15.4760   48.7040   21.9860 O.2    19  TYR19      -0.2867
      5  CB       -18.3960   48.8020   20.8140 C.3    19  TYR19       0.0534
      6  CG       -19.0160   47.5230   20.3040 C.ar   19  TYR19      -0.0201
      7  CD1      -20.1470   46.9650   20.9310 C.ar   19  TYR19      -0.0009
      8  CD2      -18.4790   46.8700   19.1890 C.ar   19  TYR19      -0.0009
      9  CE1      -20.7290   45.7750   20.4520 C.ar   19  TYR19       0.0417
     10  CE2      -19.0430   45.6760   18.7000 C.ar   19  TYR19       0.0417
     11  CZ       -20.1610   45.1260   19.3390 C.ar   19  TYR19       0.1957
     12  OH       -20.7060   43.9420   18.8530 O.3    19  TYR19      -0.2866
     13  N        -14.5820   46.0470   20.9240 N.3    21  PHE21      -0.1241
     14  CA       -13.6480   45.7890   19.8500 C.3    21  PHE21       0.1605
     15  C        -12.7910   46.9980   19.4680 C.2    21  PHE21       0.2264
     16  O        -11.5900   46.8560   19.3050 O.2    21  PHE21      -0.2867
     17  CB       -14.3250   45.0550   18.6840 C.3    21  PHE21       0.0534
     18  CG       -14.7260   43.6350   19.0390 C.ar   21  PHE21      -0.0203
     19  CD1      -13.7370   42.6770   19.3340 C.ar   21  PHE21      -0.0042
     20  CD2      -16.0780   43.2760   19.1360 C.ar   21  PHE21      -0.0042
     21  CE1      -14.0800   41.3870   19.6930 C.ar   21  PHE21      -0.0003
     22  CE2      -16.4410   41.9690   19.4980 C.ar   21  PHE21      -0.0003
     23  CZ       -15.4320   41.0240   19.7790 C.ar   21  PHE21      -0.0000
     24  N        -10.9860   40.0370   17.1190 N.3    45  ILE45      -0.1231
     25  CA       -12.2400   40.0720   16.3340 C.3    45  ILE45       0.1692
     26  C        -12.3940   38.9100   15.3410 C.2    45  ILE45       0.2592
     27  O        -11.4270   38.4990   14.6320 O.2    45  ILE45      -0.2718
     28  CB       -12.4260   41.4610   15.6200 C.3    45  ILE45       0.0266
     29  CG1      -13.8840   41.6850   15.1880 C.3    45  ILE45       0.0019
     30  CG2      -11.4320   41.6370   14.4700 C.3    45  ILE45       0.0020
     31  CD1      -14.3690   43.1920   15.2700 C.3    45  ILE45       0.0001
     32  N        -13.6200   38.3770   15.2990 N.am   46  GLY46      -0.1957
     33  CA       -13.9650   37.2200   14.4600 C.3    46  GLY46       0.1869
     34  C        -14.1420   37.6230   13.0030 C.2    46  GLY46       0.2309
     35  O        -15.2530   37.5150   12.4330 O.2    46  GLY46      -0.2863
     36  N        -27.1220   42.3780    7.5600 N.3   109  GLY109     -0.1210
     37  CA       -26.3280   41.5800    8.4460 C.3   109  GLY109      0.1956
     38  C        -26.9350   41.4930    9.8210 C.2   109  GLY109      0.2612
     39  O        -27.8450   42.2650   10.1660 O.2   109  GLY109     -0.2717
     40  N        -26.3990   40.5760   10.6200 N.am  110  ALA110     -0.1965
     41  CA       -27.0410   40.2080   11.8740 C.3   110  ALA110      0.1728
     42  C        -26.9040   41.3130   12.9420 C.2   110  ALA110      0.2616
     43  O        -27.8170   41.5230   13.7500 O.2   110  ALA110     -0.2715
     44  CB       -26.4910   38.8290   12.4030 C.3   110  ALA110      0.0334
     45  N        -25.7850   42.0460   12.9580 N.am  111  LYS111     -0.1977
     46  CA       -25.6500   43.0880   13.9550 C.3   111  LYS111      0.1596
     47  C        -26.7730   44.1390   13.8000 C.2   111  LYS111      0.2287
     48  O        -27.3150   44.6290   14.7870 O.2   111  LYS111     -0.2864
     49  CB       -24.2690   43.7480   13.9190 C.3   111  LYS111      0.0298
     50  CG       -24.1010   44.7880   14.9800 C.3   111  LYS111      0.0038
     51  CD       -22.6470   44.8530   15.4050 C.3   111  LYS111      0.0206
     52  CE       -22.0300   45.9940   14.7360 C.3   111  LYS111      0.1093
     53  NZ       -20.7180   46.4100   15.2910 N.3   111  LYS111     -0.1314
     54  N        -30.2660   42.7410   14.9300 N.3   114  ILE114     -0.1245
     55  CA       -30.4560   42.6770   16.3720 C.3   114  ILE114      0.1561
     56  C        -30.9650   44.0540   16.8470 C.2   114  ILE114      0.2260
     57  O        -31.9510   44.1760   17.6140 O.2   114  ILE114     -0.2867
     58  CB       -29.1290   42.2460   17.1340 C.3   114  ILE114      0.0252
     59  CG1      -28.8880   40.7060   17.0560 C.3   114  ILE114      0.0019
     60  CG2      -29.1430   42.7750   18.6150 C.3   114  ILE114      0.0019
     61  CD1      -27.3750   40.3480   16.8790 C.3   114  ILE114      0.0001
     62  N        -21.9400   37.4870   23.1330 N.3   134  TYR134     -0.1241
     63  CA       -21.7720   38.5820   22.1910 C.3   134  TYR134      0.1605
     64  C        -22.3610   39.8910   22.7260 C.2   134  TYR134      0.2264
     65  O        -23.5660   39.9860   22.9480 O.2   134  TYR134     -0.2867
     66  CB       -22.4160   38.1350   20.9050 C.3   134  TYR134      0.0534
     67  CG       -22.2550   39.0270   19.7180 C.ar  134  TYR134     -0.0201
     68  CD1      -21.0000   39.2640   19.1150 C.ar  134  TYR134     -0.0009
     69  CD2      -23.3930   39.5950   19.1550 C.ar  134  TYR134     -0.0009
     70  CE1      -20.9120   40.0940   17.9660 C.ar  134  TYR134      0.0417
     71  CE2      -23.3310   40.3930   18.0200 C.ar  134  TYR134      0.0417
     72  CZ       -22.1040   40.6450   17.4210 C.ar  134  TYR134      0.1957
     73  OH       -22.1670   41.4730   16.2760 O.3   134  TYR134     -0.2866
     74  N        -26.0540   42.1390   22.1440 N.3   137  TYR137     -0.1241
     75  CA       -27.3810   41.9320   22.7010 C.3   137  TYR137      0.1605
     76  C        -27.5390   42.8640   23.9110 C.2   137  TYR137      0.2264
     77  O        -28.4850   43.6230   23.9230 O.2   137  TYR137     -0.2867
     78  CB       -27.6700   40.4730   23.1320 C.3   137  TYR137      0.0534
     79  CG       -27.3350   39.4090   22.0950 C.ar  137  TYR137     -0.0201
     80  CD1      -27.7180   39.5410   20.7410 C.ar  137  TYR137     -0.0009
     81  CD2      -26.6290   38.2880   22.4670 C.ar  137  TYR137     -0.0009
     82  CE1      -27.3750   38.5050   19.7680 C.ar  137  TYR137      0.0417
     83  CE2      -26.2860   37.2950   21.5410 C.ar  137  TYR137      0.0417
     84  CZ       -26.6350   37.3940   20.2380 C.ar  137  TYR137      0.1957
     85  OH       -26.2210   36.3420   19.4340 O.3   137  TYR137     -0.2866
     86  N        -27.4550   32.2640   21.5600 N.3   187  CYS187     -0.1235
     87  CA       -26.6290   32.1140   20.4090 C.3   187  CYS187      0.1677
     88  C        -26.0340   30.6910   20.4480 C.2   187  CYS187      0.2270
     89  O        -25.4640   30.3000   21.4500 O.2   187  CYS187     -0.2867
     90  CB       -25.5780   33.2400   20.4270 C.3   187  CYS187      0.0956
     91  SG       -24.3250   33.0570   19.2210 S.3   187  CYS187     -0.0801
     92  N        -20.9780   32.4380   20.6210 N.3   191  ASN191     -0.1240
     93  CA       -19.8620   33.3690   20.6810 C.3   191  ASN191      0.1653
     94  C        -19.9590   34.0130   22.0710 C.2   191  ASN191      0.2266
     95  O        -20.9740   34.6690   22.3910 O.2   191  ASN191     -0.2867
     96  CB       -20.0210   34.3960   19.5500 C.3   191  ASN191      0.1155
     97  CG       -18.9250   35.4220   19.5470 C.2   191  ASN191      0.2627
     98  OD1      -17.9400   35.2920   20.3020 O.2   191  ASN191     -0.2716
     99  ND2      -19.0680   36.4550   18.7150 N.am  191  ASN191     -0.0877
    100  N        -29.6400   33.0080   17.6030 N.3   219  ASP219     -0.1239
    101  CA       -28.5970   33.4840   16.6830 C.3   219  ASP219      0.1674
    102  C        -27.8030   32.2580   16.1460 C.2   219  ASP219      0.2266
    103  O        -27.0460   31.6050   16.8500 O.2   219  ASP219     -0.2867
    104  CB       -27.7030   34.5260   17.4100 C.3   219  ASP219      0.1410
    105  CG       -26.6920   35.2190   16.4660 C.2   219  ASP219      0.3668
    106  OD1      -26.2880   34.6080   15.4460 O.co2 219  ASP219     -0.2456
    107  OD2      -26.2230   36.3690   16.8000 O.co2 219  ASP219     -0.2456
    108  N        -25.5930   32.3400   13.6570 N.3   221  ALA221     -0.1231
    109  CA       -24.5080   32.8020   12.7920 C.3   221  ALA221      0.1694
    110  C        -23.3460   31.7800   12.6110 C.2   221  ALA221      0.2592
    111  O        -22.6760   31.7960   11.5670 O.2   221  ALA221     -0.2718
    112  CB       -23.9770   34.1690   13.2320 C.3   221  ALA221      0.0304
    113  N        -23.1190   30.8780   13.5630 N.am  222  TYR222     -0.1976
    114  CA       -22.0090   29.8860   13.3850 C.3   222  TYR222      0.1639
    115  C        -22.5100   28.4650   13.1730 C.2   222  TYR222      0.2290
    116  O        -21.7430   27.5290   13.3320 O.2   222  TYR222     -0.2864
    117  CB       -21.0760   29.9030   14.6180 C.3   222  TYR222      0.0560
    118  CG       -20.4930   31.2730   14.8000 C.ar  222  TYR222     -0.0198
    119  CD1      -19.3620   31.6760   14.0680 C.ar  222  TYR222     -0.0009
    120  CD2      -21.0770   32.1910   15.6810 C.ar  222  TYR222     -0.0009
    121  CE1      -18.8320   32.9460   14.2030 C.ar  222  TYR222      0.0417
    122  CE2      -20.5420   33.4940   15.8260 C.ar  222  TYR222      0.0417
    123  CZ       -19.4170   33.8520   15.0560 C.ar  222  TYR222      0.1957
    124  OH       -18.8840   35.1330   15.1610 O.3   222  TYR222     -0.2866
    125  N        -26.4640   35.0630    9.2000 N.3   249  SER249     -0.1217
    126  CA       -25.6830   36.0040    8.4100 C.3   249  SER249      0.1889
    127  C        -24.8500   35.2000    7.4300 C.2   249  SER249      0.2288
    128  O        -24.4920   34.0850    7.7320 O.2   249  SER249     -0.2866
    129  CB       -24.7770   36.8220    9.3450 C.3   249  SER249      0.2089
    130  OG       -23.8860   37.6490    8.6580 O.3   249  SER249     -0.2183
    131  N        -21.9490   36.4240    6.8890 N.3   251  SER251     -0.1202
    132  CA       -20.5880   36.9090    7.2270 C.3   251  SER251      0.2020
    133  C        -19.5780   35.7820    7.3810 C.2   251  SER251      0.2618
    134  O        -18.5100   35.8290    6.7770 O.2   251  SER251     -0.2717
    135  CB       -20.5570   37.7760    8.5160 C.3   251  SER251      0.2103
    136  OG       -21.0970   39.0560    8.2010 O.3   251  SER251     -0.2182
    137  N        -19.9250   34.7810    8.2000 N.am  252  GLN252     -0.1979
    138  CA       -18.9740   33.7100    8.6070 C.3   252  GLN252      0.1601
    139  C        -18.9770   32.4670    7.7460 C.2   252  GLN252      0.2287
    140  O        -18.0610   31.6470    7.8890 O.2   252  GLN252     -0.2864
    141  CB       -19.1290   33.3140   10.0780 C.3   252  GLN252      0.0394
    142  CG       -19.5960   34.4370   10.9980 C.3   252  GLN252      0.0908
    143  CD       -18.5740   35.5500   11.2210 C.2   252  GLN252      0.2608
    144  OE1      -18.9450   36.7250   11.3710 O.2   252  GLN252     -0.2717
    145  NE2      -17.3100   35.1880   11.2810 N.am  252  GLN252     -0.0878
    146  N        -18.4030   39.5120    5.6250 N.3   257  THR257     -0.1218
    147  CA       -18.2370   40.4900    6.7520 C.3   257  THR257      0.1862
    148  C        -18.2310   41.9500    6.2330 C.2   257  THR257      0.2287
    149  O        -18.8240   42.8460    6.8740 O.2   257  THR257     -0.2866
    150  CB       -16.9540   40.2010    7.5960 C.3   257  THR257      0.1770
    151  OG1      -15.8740   39.9460    6.6630 O.3   257  THR257     -0.2211
    152  CG2      -17.0940   38.9590    8.4670 C.3   257  THR257      0.0375
    153  N        -21.9380   42.3550    3.5230 N.3   260  ARG260     -0.1245
    154  CA       -23.1350   42.6900    4.3060 C.3   260  ARG260      0.1563
    155  C        -24.4270   41.9990    3.7760 C.2   260  ARG260      0.2260
    156  O        -25.1260   42.5190    2.8680 O.2   260  ARG260     -0.2867
    157  CB       -23.3910   44.2580    4.4320 C.3   260  ARG260      0.0307
    158  CG       -22.1770   45.0650    4.7980 C.3   260  ARG260      0.0489
    159  CD       -21.4500   44.5600    6.1180 C.3   260  ARG260      0.2205
    160  NE       -22.4070   44.3900    7.1570 N.pl3 260  ARG260     -0.0865
    161  CZ       -22.3700   43.4580    8.1130 C.cat 260  ARG260      0.5346
    162  NH1      -21.3080   42.6560    8.2560 N.pl3 260  ARG260      0.1354
    163  NH2      -23.3840   43.3940    8.9800 N.pl3 260  ARG260      0.1354
    164  N        -14.1640   29.4580   17.2630 N.3   346  TYR346     -0.1241
    165  CA       -13.6140   30.0690   18.4930 C.3   346  TYR346      0.1605
    166  C        -13.0960   28.9660   19.4060 C.2   346  TYR346      0.2264
    167  O        -13.7380   27.8830   19.5070 O.2   346  TYR346     -0.2867
    168  CB       -14.7180   30.8250   19.2650 C.3   346  TYR346      0.0534
    169  CG       -15.1880   31.9620   18.4610 C.ar  346  TYR346     -0.0201
    170  CD1      -14.2540   32.9310   17.9860 C.ar  346  TYR346     -0.0009
    171  CD2      -16.5450   32.0420   18.0450 C.ar  346  TYR346     -0.0009
    172  CE1      -14.6780   34.0330   17.1880 C.ar  346  TYR346      0.0417
    173  CE2      -16.9770   33.1200   17.2320 C.ar  346  TYR346      0.0417
    174  CZ       -16.0260   34.1020   16.7890 C.ar  346  TYR346      0.1957
    175  OH       -16.4100   35.1520   15.9900 O.3   346  TYR346     -0.2866
    176  N        -17.0970   39.8480   27.3320 N.3   377  PHE377     -0.1241
    177  CA       -18.3500   39.2700   26.9380 C.3   377  PHE377      0.1605
    178  C        -19.2630   39.1240   28.1470 C.2   377  PHE377      0.2264
    179  O        -20.1920   38.3090   28.1130 O.2   377  PHE377     -0.2867
    180  CB       -18.1370   37.9140   26.2780 C.3   377  PHE377      0.0534
    181  CG       -17.3050   37.9500   25.0200 C.ar  377  PHE377     -0.0203
    182  CD1      -17.9190   38.1900   23.7840 C.ar  377  PHE377     -0.0042
    183  CD2      -15.9210   37.7340   25.0630 C.ar  377  PHE377     -0.0042
    184  CE1      -17.1760   38.2100   22.6050 C.ar  377  PHE377     -0.0003
    185  CE2      -15.1550   37.7290   23.9030 C.ar  377  PHE377     -0.0003
    186  CZ       -15.7880   37.9800   22.6600 C.ar  377  PHE377     -0.0000
    187  N        -11.0150   34.2440   24.6010 N.3   386  ARG386     -0.1245
    188  CA       -11.4120   33.7650   23.2880 C.3   386  ARG386      0.1563
    189  C        -10.2630   33.9240   22.2990 C.2   386  ARG386      0.2260
    190  O         -9.7100   35.0210   22.1300 O.2   386  ARG386     -0.2867
    191  CB       -12.6580   34.5160   22.7510 C.3   386  ARG386      0.0307
    192  CG       -13.3660   33.7780   21.5960 C.3   386  ARG386      0.0489
    193  CD       -14.4200   34.6520   20.9320 C.3   386  ARG386      0.2205
    194  NE       -13.7750   35.6260   20.0020 N.pl3 386  ARG386     -0.0865
    195  CZ       -14.4270   36.5900   19.3670 C.cat 386  ARG386      0.5346
    196  NH1      -15.7420   36.7570   19.5620 N.pl3 386  ARG386      0.1354
    197  NH2      -13.7770   37.4040   18.5360 N.pl3 386  ARG386      0.1354
@<TRIPOS>BOND
     1   156   155    2
     2   153   154    1
     3   155   154    1
     4   154   157    1
     5   157   158    1
     6   158   159    1
     7   146   147    1
     8   159   160    1
     9   148   147    1
    10   148   149    2
    11   151   150    1
    12   147   150    1
    13   134   133    2
    14   131   132    1
    15   160   161    2
    16   132   133    1
    17   132   135    1
    18   133   137   am
    19   127   128    2
    20   127   126    1
    21    36    37    1
    22   150   152    1
    23   139   140    2
    24   139   138    1
    25   161   162    1
    26   161   163    1
    27   137   138    1
    28   136   135    1
    29   126   125    1
    30   126   129    1
    31    37    38    1
    32   138   141    1
    33   130   129    1
    34    38    39    2
    35    38    40   am
    36   141   142    1
    37    40    41    1
    38   142   143    1
    39   143   145   am
    40   143   144    2
    41   111   110    2
    42    41    44    1
    43    41    42    1
    44    35    34    2
    45   110   109    1
    46   110   113   am
    47   109   112    1
    48   109   108    1
    49    42    45   am
    50    42    43    2
    51    45    46    1
    52    34    33    1
    53   115   116    2
    54   115   114    1
    55   114   113    1
    56   114   117    1
    57    47    46    1
    58    47    48    2
    59    49    46    1
    60    49    50    1
    61   119   121   ar
    62   119   118   ar
    63   121   123   ar
    64    33    32    1
    65    30    28    1
    66   117   118    1
    67    27    26    2
    68    52    53    1
    69    52    51    1
    70   118   120   ar
    71    54    55    1
    72    50    51    1
    73   123   124    1
    74   123   122   ar
    75    29    31    1
    76    29    28    1
    77    32    26   am
    78    26    25    1
    79   106   105   ar
    80    28    25    1
    81   120   122   ar
    82   175   174    1
    83   102   101    1
    84   102   103    2
    85    73    72    1
    86    25    24    1
    87    55    56    1
    88    55    58    1
    89   105   107   ar
    90   105   104    1
    91   101   104    1
    92   101   100    1
    93   174   172   ar
    94   174   173   ar
    95    56    57    2
    96    61    59    1
    97    59    58    1
    98    58    60    1
    99   172   170   ar
   100   173   171   ar
   101   164   165    1
   102    72    70   ar
   103    72    71   ar
   104    70    68   ar
   105   170   169   ar
   106    71    69   ar
   107   171   169   ar
   108   169   168    1
   109   165   168    1
   110   165   166    1
   111   197   195    1
   112    17    18    1
   113    17    14    1
   114    10     8   ar
   115    10    11   ar
   116    99    97   am
   117    12    11    1
   118    18    20   ar
   119    18    19   ar
   120    68    67   ar
   121    20    22   ar
   122    69    67   ar
   123     8     6   ar
   124    91    90    1
   125    16    15    2
   126    19    21   ar
   127    11     9   ar
   128   195   196    1
   129   195   194    2
   130   166   167    2
   131    85    84    1
   132    15    14    1
   133    22    23   ar
   134    97    96    1
   135    97    98    2
   136    96    93    1
   137    21    23   ar
   138    67    66    1
   139    82    84   ar
   140    82    80   ar
   141    14    13    1
   142   194   193    1
   143    84    83   ar
   144     6     5    1
   145     6     7   ar
   146    87    90    1
   147    87    88    1
   148    87    86    1
   149    88    89    2
   150     9     7   ar
   151    92    93    1
   152    93    94    1
   153    80    79   ar
   154     5     2    1
   155    66    63    1
   156   193   192    1
   157    83    81   ar
   158   192   191    1
   159     4     3    2
   160    94    95    2
   161    79    81   ar
   162    79    78    1
   163   190   189    2
   164    74    75    1
   165    63    64    1
   166    63    62    1
   167     2     3    1
   168     2     1    1
   169   189   188    1
   170   184   186   ar
   171   184   182   ar
   172   186   185   ar
   173    75    78    1
   174    75    76    1
   175    64    65    2
   176   191   188    1
   177   188   187    1
   178   182   181   ar
   179   185   183   ar
   180    76    77    2
   181   181   183   ar
   182   181   180    1
   183   180   177    1
   184   177   176    1
   185   177   178    1
   186   179   178    2
