@<TRIPOS>MOLECULE
tmp/3eidA00.pdb
 205 196 0 0 0
SMALL
GASTEIGER

@<TRIPOS>ATOM
      1  N         -6.0760  201.5880  114.3570 N.3    10  ILE10      -0.1231
      2  CA        -6.2790  203.0100  114.6720 C.3    10  ILE10       0.1692
      3  C         -7.3010  203.2820  115.7790 C.2    10  ILE10       0.2593
      4  O         -7.5110  204.4360  116.1640 O.2    10  ILE10      -0.2718
      5  CB        -6.6690  203.8510  113.4130 C.3    10  ILE10       0.0266
      6  CG1       -7.8060  203.1800  112.6280 C.3    10  ILE10       0.0019
      7  CG2       -5.4390  204.1300  112.5380 C.3    10  ILE10       0.0020
      8  CD1       -8.3090  203.9790  111.4430 C.3    10  ILE10       0.0001
      9  N         -7.9340  202.2300  116.2900 N.am   11  GLY11      -0.1942
     10  CA        -8.9890  202.4030  117.2820 C.3    11  GLY11       0.2014
     11  C         -9.3000  201.1680  118.0980 C.2    11  GLY11       0.2639
     12  O         -9.0900  200.0350  117.6500 O.2    11  GLY11      -0.2714
     13  N         -9.8030  201.4040  119.3090 N.am   12  GLU12      -0.1963
     14  CA       -10.2120  200.3330  120.2100 C.3    12  GLU12       0.1733
     15  C        -11.6330  200.5620  120.7350 C.2    12  GLU12       0.2616
     16  O        -11.9310  201.6100  121.3210 O.2    12  GLU12      -0.2715
     17  CB        -9.2130  200.1830  121.3650 C.3    12  GLU12       0.0429
     18  CG        -9.3910  198.9040  122.1840 C.3    12  GLU12       0.1163
     19  CD        -9.4570  197.6500  121.3200 C.2    12  GLU12       0.3649
     20  OE1       -8.3950  197.0490  121.0360 O.co2  12  GLU12      -0.2457
     21  OE2      -10.5810  197.2650  120.9330 O.co2  12  GLU12      -0.2457
     22  N        -12.5020  199.5770  120.5060 N.am   13  GLY13      -0.1955
     23  CA       -13.8970  199.6380  120.9470 C.3    13  GLY13       0.1869
     24  C        -14.3580  198.3640  121.6350 C.2    13  GLY13       0.2309
     25  O        -13.6830  197.3280  121.5700 O.2    13  GLY13      -0.2863
     26  N        -17.3310  197.0150  120.8680 N.3    15  TYR15      -0.1241
     27  CA       -17.9100  196.3150  119.7200 C.3    15  TYR15       0.1605
     28  C        -16.8210  195.5900  118.9170 C.2    15  TYR15       0.2264
     29  O        -16.9630  194.3990  118.5780 O.2    15  TYR15      -0.2867
     30  CB       -18.6730  197.3000  118.8250 C.3    15  TYR15       0.0534
     31  CG       -18.1780  198.7190  118.8210 C.ar   15  TYR15      -0.0201
     32  CD1      -17.2110  199.1420  117.8570 C.ar   15  TYR15      -0.0009
     33  CD2      -18.7070  199.6350  119.6830 C.ar   15  TYR15      -0.0009
     34  CE1      -16.7350  200.4190  117.7810 C.ar   15  TYR15       0.0417
     35  CE2      -18.2010  200.9710  119.6400 C.ar   15  TYR15       0.0417
     36  CZ       -17.2650  201.3450  118.7270 C.ar   15  TYR15       0.1957
     37  OH       -16.8140  202.6390  118.6060 O.3    15  TYR15      -0.2866
     38  N        -11.0040  199.0580  114.9470 N.3    18  VAL18      -0.1245
     39  CA       -10.9920  199.8410  113.7080 C.3    18  VAL18       0.1561
     40  C         -9.5820  199.8600  113.1090 C.2    18  VAL18       0.2260
     41  O         -8.6080  200.1540  113.8070 O.2    18  VAL18      -0.2867
     42  CB       -11.4970  201.2900  113.9240 C.3    18  VAL18       0.0252
     43  CG1      -11.5540  202.0580  112.6050 C.3    18  VAL18       0.0019
     44  CG2      -12.8620  201.2910  114.5810 C.3    18  VAL18       0.0019
     45  N        -11.6530  203.2150  106.1220 N.3    31  ALA31      -0.1245
     46  CA       -11.6670  202.8020  107.5200 C.3    31  ALA31       0.1562
     47  C        -12.5160  201.5350  107.6680 C.2    31  ALA31       0.2260
     48  O        -13.7200  201.5400  107.3820 O.2    31  ALA31      -0.2867
     49  CB       -12.2030  203.9110  108.3940 C.3    31  ALA31       0.0290
     50  N        -14.1800  198.7660  110.1310 N.3    33  LYS33      -0.1245
     51  CA       -14.6210  198.6210  111.5140 C.3    33  LYS33       0.1561
     52  C        -15.0740  197.1890  111.7820 C.2    33  LYS33       0.2260
     53  O        -16.1540  196.7710  111.3620 O.2    33  LYS33      -0.2867
     54  CB       -15.7310  199.6130  111.8320 C.3    33  LYS33       0.0271
     55  CG       -16.0300  199.7520  113.3120 C.3    33  LYS33       0.0035
     56  CD       -17.2620  200.5990  113.5110 C.3    33  LYS33       0.0206
     57  CE       -17.1010  201.5350  114.6780 C.3    33  LYS33       0.1093
     58  NZ       -18.0940  202.6350  114.5950 N.3    33  LYS33      -0.1314
     59  N        -26.0340  202.3100  113.9650 N.3    48  GLU48      -0.1245
     60  CA       -25.0350  203.0510  113.2080 C.3    48  GLU48       0.1567
     61  C        -25.1800  202.8210  111.7110 C.2    48  GLU48       0.2260
     62  O        -25.1680  203.7780  110.9360 O.2    48  GLU48      -0.2867
     63  CB       -23.5990  202.7530  113.6480 C.3    48  GLU48       0.0388
     64  CG       -22.6070  203.5940  112.8260 C.3    48  GLU48       0.1160
     65  CD       -21.1530  203.4370  113.2170 C.2    48  GLU48       0.3649
     66  OE1      -20.7610  202.3340  113.6640 O.co2  48  GLU48      -0.2457
     67  OE2      -20.4020  204.4320  113.0540 O.co2  48  GLU48      -0.2457
     68  N        -19.4980  211.4100  108.1740 N.3    61  VAL61      -0.1245
     69  CA       -18.6130  210.3820  107.6300 C.3    61  VAL61       0.1561
     70  C        -19.4040  209.4290  106.7470 C.2    61  VAL61       0.2260
     71  O        -20.5020  209.0180  107.1150 O.2    61  VAL61      -0.2867
     72  CB       -17.8890  209.5970  108.7490 C.3    61  VAL61       0.0252
     73  CG1      -17.1660  208.3750  108.1880 C.3    61  VAL61       0.0019
     74  CG2      -16.8940  210.4980  109.4300 C.3    61  VAL61       0.0019
     75  N        -15.8390  202.5010  105.9130 N.3    77  PHE77      -0.1227
     76  CA       -15.9930  203.9580  105.8730 C.3    77  PHE77       0.1736
     77  C        -14.9800  204.5860  104.9500 C.2    77  PHE77       0.2595
     78  O        -13.9000  204.0460  104.7600 O.2    77  PHE77      -0.2718
     79  CB       -15.7720  204.5680  107.2560 C.3    77  PHE77       0.0547
     80  CG       -16.7630  204.1330  108.2800 C.ar   77  PHE77      -0.0202
     81  CD1      -17.9640  204.8100  108.4280 C.ar   77  PHE77      -0.0042
     82  CD2      -16.4910  203.0510  109.1080 C.ar   77  PHE77      -0.0042
     83  CE1      -18.8850  204.4100  109.3760 C.ar   77  PHE77      -0.0003
     84  CE2      -17.4050  202.6410  110.0580 C.ar   77  PHE77      -0.0003
     85  CZ       -18.6080  203.3220  110.1950 C.ar   77  PHE77      -0.0000
     86  N        -15.3190  205.7430  104.3950 N.am   78  GLU78      -0.1965
     87  CA       -14.3180  206.6100  103.7900 C.3    78  GLU78       0.1733
     88  C        -13.3040  206.9640  104.8760 C.2    78  GLU78       0.2616
     89  O        -13.6900  207.2640  106.0080 O.2    78  GLU78      -0.2715
     90  CB       -14.9590  207.8890  103.2500 C.3    78  GLU78       0.0429
     91  CG       -15.3520  208.8920  104.3380 C.3    78  GLU78       0.1163
     92  CD       -15.6120  210.2860  103.8100 C.2    78  GLU78       0.3649
     93  OE1      -15.1040  210.6270  102.7150 O.co2  78  GLU78      -0.2457
     94  OE2      -16.3280  211.0460  104.5000 O.co2  78  GLU78      -0.2457
     95  N        -12.0160  206.9140  104.5470 N.am   79  PHE79      -0.1960
     96  CA       -10.9730  207.1890  105.5360 C.3    79  PHE79       0.1771
     97  C        -10.7640  208.6820  105.7420 C.2    79  PHE79       0.2619
     98  O        -10.6820  209.4390  104.7840 O.2    79  PHE79      -0.2715
     99  CB        -9.6570  206.5290  105.1290 C.3    79  PHE79       0.0574
    100  CG        -8.5270  206.8090  106.0700 C.ar   79  PHE79      -0.0200
    101  CD1       -8.4100  206.1070  107.2680 C.ar   79  PHE79      -0.0042
    102  CD2       -7.5770  207.7770  105.7640 C.ar   79  PHE79      -0.0042
    103  CE1       -7.3660  206.3670  108.1490 C.ar   79  PHE79      -0.0003
    104  CE2       -6.5270  208.0440  106.6430 C.ar   79  PHE79      -0.0003
    105  CZ        -6.4250  207.3380  107.8370 C.ar   79  PHE79      -0.0000
    106  N        -10.6980  209.0980  107.0020 N.am   80  LEU80      -0.1963
    107  CA       -10.2540  210.4440  107.3590 C.3    80  LEU80       0.1728
    108  C         -8.9860  210.3030  108.1920 C.2    80  LEU80       0.2616
    109  O         -8.8330  209.3200  108.9230 O.2    80  LEU80      -0.2715
    110  CB       -11.3520  211.2140  108.0870 C.3    80  LEU80       0.0311
    111  CG       -12.4950  211.6430  107.1580 C.3    80  LEU80       0.0022
    112  CD1      -13.7680  211.8680  107.9460 C.3    80  LEU80       0.0001
    113  CD2      -12.1190  212.9140  106.4220 C.3    80  LEU80       0.0001
    114  N         -8.1020  211.2920  108.0920 N.am   81  HIS81      -0.1959
    115  CA        -6.7200  211.1660  108.5680 C.3    81  HIS81       0.1787
    116  C         -6.5540  211.1220  110.0930 C.2    81  HIS81       0.2620
    117  O         -5.8230  210.2690  110.6070 O.2    81  HIS81      -0.2715
    118  CB        -5.8310  212.2510  107.9440 C.3    81  HIS81       0.0785
    119  CG        -6.0740  212.4650  106.4780 C.ar   81  HIS81       0.0821
    120  ND1       -6.0010  211.4460  105.5510 N.ar   81  HIS81      -0.2267
    121  CD2       -6.3810  213.5840  105.7810 C.ar   81  HIS81       0.1154
    122  CE1       -6.2610  211.9280  104.3480 C.ar   81  HIS81       0.1986
    123  NE2       -6.4970  213.2230  104.4610 N.ar   81  HIS81      -0.2212
    124  N         -7.2230  212.0310  110.8030 N.am   82  GLN82      -0.1963
    125  CA        -7.1740  212.0740  112.2690 C.3    82  GLN82       0.1733
    126  C         -8.4070  212.7360  112.8860 C.2    82  GLN82       0.2616
    127  O         -9.2040  213.3560  112.1830 O.2    82  GLN82      -0.2715
    128  CB        -5.8810  212.7320  112.7650 C.3    82  GLN82       0.0408
    129  CG        -5.8060  214.2340  112.5610 C.3    82  GLN82       0.0908
    130  CD        -4.4640  214.8120  112.9740 C.2    82  GLN82       0.2608
    131  OE1       -4.3970  215.8390  113.6560 O.2    82  GLN82      -0.2717
    132  NE2       -3.3830  214.1540  112.5600 N.am   82  GLN82      -0.0878
    133  N         -8.5680  212.5860  114.1990 N.am   83  ASP83      -0.1971
    134  CA        -9.6850  213.2140  114.8990 C.3    83  ASP83       0.1709
    135  C         -9.3080  214.6160  115.3700 C.2    83  ASP83       0.2293
    136  O         -8.1420  215.0230  115.2600 O.2    83  ASP83      -0.2864
    137  CB       -10.1730  212.3470  116.0660 C.3    83  ASP83       0.1436
    138  CG        -9.1070  212.1140  117.1210 C.2    83  ASP83       0.3671
    139  OD1       -8.3850  213.0610  117.4940 O.co2  83  ASP83      -0.2456
    140  OD2       -9.0050  210.9700  117.6020 O.co2  83  ASP83      -0.2456
    141  N         -9.4120  215.7330  118.4440 N.3    85  LYS85      -0.1231
    142  CA        -8.6930  215.6810  119.7160 C.3    85  LYS85       0.1693
    143  C         -7.1800  215.6630  119.5120 C.2    85  LYS85       0.2591
    144  O         -6.4470  216.3570  120.2230 O.2    85  LYS85      -0.2718
    145  CB        -9.1220  214.4830  120.5570 C.3    85  LYS85       0.0285
    146  CG        -8.6740  214.5930  122.0040 C.3    85  LYS85       0.0035
    147  CD        -8.9110  213.3000  122.7480 C.3    85  LYS85       0.0206
    148  CE        -8.3350  213.3720  124.1550 C.3    85  LYS85       0.1093
    149  NZ        -8.4500  212.0650  124.8730 N.3    85  LYS85      -0.1314
    150  N         -6.7260  214.8790  118.5350 N.am   86  LYS86      -0.1980
    151  CA        -5.3070  214.7630  118.2280 C.3    86  LYS86       0.1596
    152  C         -4.7630  216.0810  117.6850 C.2    86  LYS86       0.2287
    153  O         -3.6210  216.4520  117.9650 O.2    86  LYS86      -0.2864
    154  CB        -5.0790  213.6390  117.2260 C.3    86  LYS86       0.0298
    155  CG        -3.6500  213.1240  117.1850 C.3    86  LYS86       0.0038
    156  CD        -3.4670  212.1690  116.0110 C.3    86  LYS86       0.0206
    157  CE        -2.0540  211.5990  115.9860 C.3    86  LYS86       0.1093
    158  NZ        -1.9380  210.6280  114.8610 N.3    86  LYS86      -0.1314
    159  N        -18.0280  214.6960  120.5590 N.3   126  LYS126     -0.1245
    160  CA       -16.8160  214.9450  121.3360 C.3   126  LYS126      0.1561
    161  C        -15.6360  215.0060  120.3690 C.2   126  LYS126      0.2260
    162  O        -15.7070  214.4260  119.2850 O.2   126  LYS126     -0.2867
    163  CB       -16.6020  213.8660  122.4110 C.3   126  LYS126      0.0271
    164  CG       -16.6630  212.4320  121.9070 C.3   126  LYS126      0.0035
    165  CD       -16.3300  211.4370  122.9980 C.3   126  LYS126      0.0206
    166  CE       -16.4170  210.0170  122.4760 C.3   126  LYS126      0.1093
    167  NZ       -15.8670  209.0380  123.4460 N.3   126  LYS126     -0.1314
    168  N        -13.0540  213.3650  119.9410 N.3   128  GLN128     -0.1231
    169  CA       -12.6730  212.0520  119.3950 C.3   128  GLN128      0.1698
    170  C        -13.5820  211.5680  118.2650 C.2   128  GLN128      0.2592
    171  O        -13.1550  210.7710  117.4370 O.2   128  GLN128     -0.2718
    172  CB       -12.6480  210.9700  120.4800 C.3   128  GLN128      0.0381
    173  CG       -11.6250  211.1720  121.5800 C.3   128  GLN128      0.0905
    174  CD       -12.1940  211.8910  122.8000 C.2   128  GLN128      0.2608
    175  OE1      -12.6350  213.0470  122.7250 O.2   128  GLN128     -0.2717
    176  NE2      -12.1820  211.2010  123.9400 N.am  128  GLN128     -0.0878
    177  N        -14.8310  212.0290  118.2470 N.am  129  ASN129     -0.1974
    178  CA       -15.8320  211.5670  117.2850 C.3   129  ASN129      0.1688
    179  C        -15.9170  212.4430  116.0540 C.2   129  ASN129      0.2292
    180  O        -16.7400  212.2000  115.1720 O.2   129  ASN129     -0.2864
    181  CB       -17.2180  211.5420  117.9340 C.3   129  ASN129      0.1181
    182  CG       -17.3690  210.4450  118.9600 C.2   129  ASN129      0.2629
    183  OD1      -16.5220  209.5550  119.0840 O.2   129  ASN129     -0.2716
    184  ND2      -18.4630  210.4960  119.7050 N.am  129  ASN129     -0.0877
    185  N        -14.0160  214.0220  112.8480 N.3   131  LEU131     -0.1245
    186  CA       -12.8510  213.7230  112.0310 C.3   131  LEU131      0.1561
    187  C        -12.5000  214.8360  111.0510 C.2   131  LEU131      0.2260
    188  O        -13.3770  215.4620  110.4510 O.2   131  LEU131     -0.2867
    189  CB       -13.0410  212.3890  111.3140 C.3   131  LEU131      0.0270
    190  CG       -13.4230  211.2260  112.2300 C.3   131  LEU131      0.0019
    191  CD1      -13.7750  210.0430  111.3930 C.3   131  LEU131      0.0001
    192  CD2      -12.3100  210.8750  113.2330 C.3   131  LEU131      0.0001
    193  N        -18.6410  211.6140  113.1610 N.3   141  ALA141     -0.1231
    194  CA       -18.4350  210.1740  113.1110 C.3   141  ALA141      0.1694
    195  C        -18.9710  209.4870  114.3570 C.2   141  ALA141      0.2592
    196  O        -19.5400  210.1280  115.2370 O.2   141  ALA141     -0.2718
    197  CB       -16.9660  209.8580  112.9210 C.3   141  ALA141      0.0304
    198  N        -18.7720  208.1720  114.4070 N.am  142  ASP142     -0.1974
    199  CA       -19.2520  207.3190  115.4850 C.3   142  ASP142      0.1709
    200  C        -20.7360  207.5650  115.8030 C.2   142  ASP142      0.2293
    201  O        -21.0870  208.3300  116.7100 O.2   142  ASP142     -0.2864
    202  CB       -18.3580  207.4550  116.7260 C.3   142  ASP142      0.1436
    203  CG       -18.7970  206.5490  117.8770 C.2   142  ASP142      0.3671
    204  OD1      -19.5880  205.5920  117.6500 O.co2 142  ASP142     -0.2456
    205  OD2      -18.3430  206.8070  119.0200 O.co2 142  ASP142     -0.2456
@<TRIPOS>BOND
     1    93    92   ar
     2    90    87    1
     3    90    91    1
     4    87    86    1
     5    87    88    1
     6    92    91    1
     7    92    94   ar
     8   122   123   ar
     9   122   120   ar
    10    86    77   am
    11   123   121   ar
    12    95    88   am
    13    95    96    1
    14    78    77    2
    15    98    97    2
    16    88    89    2
    17    77    76    1
    18    99    96    1
    19    99   100    1
    20    96    97    1
    21   120   119   ar
    22    97   106   am
    23   102   100   ar
    24   102   104   ar
    25   121   119   ar
    26    76    75    1
    27    76    79    1
    28   100   101   ar
    29    45    46    1
    30   113   111    1
    31   119   118    1
    32   104   105   ar
    33    70    71    2
    34    70    69    1
    35   106   107    1
    36   111   112    1
    37   111   110    1
    38    79    80    1
    39   101   103   ar
    40   107   110    1
    41   107   108    1
    42    48    47    2
    43    46    47    1
    44    46    49    1
    45    69    68    1
    46    69    72    1
    47   105   103   ar
    48   118   115    1
    49   114   108   am
    50   114   115    1
    51    73    72    1
    52   108   109    2
    53    80    81   ar
    54    80    82   ar
    55    81    83   ar
    56   115   116    1
    57    72    74    1
    58    82    84   ar
    59    83    85   ar
    60    84    85   ar
    61   116   117    2
    62   116   124   am
    63    50    51    1
    64   188   187    2
    65   124   125    1
    66    62    61    2
    67   187   186    1
    68   189   186    1
    69   189   190    1
    70    53    52    2
    71   191   190    1
    72     8     6    1
    73    51    52    1
    74    51    54    1
    75    61    60    1
    76    54    55    1
    77   186   185    1
    78   127   126    2
    79   190   192    1
    80   125   128    1
    81   125   126    1
    82     7     5    1
    83   132   130   am
    84   129   128    1
    85   129   130    1
    86    43    42    1
    87     6     5    1
    88    64    65    1
    89    64    63    1
    90   126   133   am
    91   197   194    1
    92   130   131    2
    93    67    65   ar
    94    40    39    1
    95    40    41    2
    96   194   193    1
    97   194   195    1
    98    60    63    1
    99    60    59    1
   100    65    66   ar
   101    55    56    1
   102     5     2    1
   103    56    57    1
   104    39    42    1
   105    39    38    1
   106    42    44    1
   107   133   134    1
   108   195   198   am
   109   195   196    2
   110     1     2    1
   111   198   199    1
   112    58    57    1
   113     2     3    1
   114   158   157    1
   115   134   135    1
   116   134   137    1
   117   180   179    2
   118   136   135    2
   119   199   200    1
   120   199   202    1
   121     3     4    2
   122     3     9   am
   123   200   201    2
   124   157   156    1
   125   156   155    1
   126   179   178    1
   127   137   138    1
   128     9    10    1
   129   202   203    1
   130   138   139   ar
   131   138   140   ar
   132   155   154    1
   133   154   151    1
   134    10    11    1
   135   178   181    1
   136   178   177    1
   137   171   170    2
   138   204   203   ar
   139    12    11    2
   140   152   153    2
   141   152   151    1
   142    34    32   ar
   143    34    36   ar
   144    32    31   ar
   145   203   205   ar
   146   181   182    1
   147    11    13   am
   148   151   150    1
   149   177   170   am
   150   170   169    1
   151   141   142    1
   152   150   143   am
   153    29    28    2
   154    37    36    1
   155    36    35   ar
   156    31    30    1
   157    31    33   ar
   158    30    27    1
   159    28    27    1
   160   182   183    2
   161   182   184   am
   162   162   161    2
   163    13    14    1
   164   169   168    1
   165   169   172    1
   166   143   142    1
   167   143   144    2
   168    35    33   ar
   169   142   145    1
   170    27    26    1
   171    14    15    1
   172    14    17    1
   173   161   160    1
   174   172   173    1
   175    22    15   am
   176    22    23    1
   177   145   146    1
   178   159   160    1
   179    15    16    2
   180    21    19   ar
   181    23    24    1
   182    20    19   ar
   183    19    18    1
   184   160   163    1
   185    17    18    1
   186    25    24    2
   187   173   174    1
   188   164   163    1
   189   164   165    1
   190   146   147    1
   191   166   165    1
   192   166   167    1
   193   175   174    2
   194   147   148    1
   195   174   176   am
   196   148   149    1
