@<TRIPOS>MOLECULE
tmp/3eifA00.pdb
 107 102 0 0 0
SMALL
GASTEIGER

@<TRIPOS>ATOM
      1  N        -86.5890    9.6320   -9.1240 N.3   114  LYS114     -0.1231
      2  CA       -87.3890    9.7310   -7.8990 C.3   114  LYS114      0.1693
      3  C        -87.1840   11.0950   -7.2580 C.2   114  LYS114      0.2592
      4  O        -88.0060   11.5460   -6.4680 O.2   114  LYS114     -0.2718
      5  CB       -86.9850    8.6570   -6.8830 C.3   114  LYS114      0.0285
      6  CG       -87.2430    7.2370   -7.3490 C.3   114  LYS114      0.0035
      7  CD       -86.8230    6.2110   -6.3040 C.3   114  LYS114      0.0206
      8  CE       -86.9720    4.7970   -6.8600 C.3   114  LYS114      0.1093
      9  NZ       -86.2120    4.6440   -8.1430 N.3   114  LYS114     -0.1314
     10  N        -86.0730   11.7400   -7.5950 N.am  115  GLU115     -0.1966
     11  CA       -85.7360   13.0460   -7.0390 C.3   115  GLU115      0.1718
     12  C        -86.7300   14.1370   -7.4070 C.2   115  GLU115      0.2458
     13  O        -87.3690   14.0690   -8.4550 O.2   115  GLU115     -0.2730
     14  CB       -84.3440   13.4610   -7.5150 C.3   115  GLU115      0.0428
     15  CG       -83.2220   12.7510   -6.8020 C.3   115  GLU115      0.1163
     16  CD       -83.1280   13.1750   -5.3490 C.2   115  GLU115      0.3649
     17  OE1      -82.5760   14.2770   -5.0620 O.co2 115  GLU115     -0.2457
     18  OE2      -83.6280   12.4110   -4.4950 O.co2 115  GLU115     -0.2457
     19  N        -86.8790   15.1600   -6.5430 N.am  116  PRO116     -0.2727
     20  CA       -87.8230   16.2250   -6.8880 C.3   116  PRO116      0.1402
     21  C        -87.2940   17.0380   -8.0660 C.2   116  PRO116      0.2269
     22  O        -88.0640   17.4870   -8.9120 O.2   116  PRO116     -0.2865
     23  CB       -87.9160   17.0480   -5.6060 C.3   116  PRO116      0.0296
     24  CG       -86.6040   16.8020   -4.9340 C.3   116  PRO116      0.0237
     25  CD       -86.3730   15.3300   -5.1710 C.3   116  PRO116      0.0939
     26  N        -82.8110   21.3950    1.8900 N.3   243  GLU243     -0.1245
     27  CA       -84.0220   20.8240    2.4590 C.3   243  GLU243      0.1567
     28  C        -84.3090   21.7950    3.5970 C.2   243  GLU243      0.2260
     29  O        -83.4100   22.5180    4.0330 O.2   243  GLU243     -0.2867
     30  CB       -83.7780   19.4050    2.9800 C.3   243  GLU243      0.0388
     31  CG       -83.4860   18.4180    1.8630 C.3   243  GLU243      0.1160
     32  CD       -83.6080   16.9680    2.3030 C.2   243  GLU243      0.3649
     33  OE1      -83.0430   16.6190    3.3600 O.co2 243  GLU243     -0.2457
     34  OE2      -84.2640   16.1790    1.5800 O.co2 243  GLU243     -0.2457
     35  N        -79.5360   20.2600    7.0760 N.3   260  LEU260     -0.1231
     36  CA       -78.7140   19.3320    6.3030 C.3   260  LEU260      0.1693
     37  C        -78.8660   18.0490    7.1030 C.2   260  LEU260      0.2592
     38  O        -78.2890   17.8980    8.1950 O.2   260  LEU260     -0.2718
     39  CB       -77.2470   19.7630    6.2490 C.3   260  LEU260      0.0284
     40  CG       -76.4040   18.7590    5.4580 C.3   260  LEU260      0.0019
     41  CD1      -76.8530   18.7670    3.9780 C.3   260  LEU260      0.0001
     42  CD2      -74.9240   19.1130    5.5840 C.3   260  LEU260      0.0001
     43  N        -79.6540   17.1310    6.5600 N.am  261  SER261     -0.1952
     44  CA       -79.9560   15.8960    7.2610 C.3   261  SER261      0.1924
     45  C        -79.2220   14.6360    6.8600 C.2   261  SER261      0.2314
     46  O        -78.9390   14.4070    5.6830 O.2   261  SER261     -0.2863
     47  CB       -81.4610   15.6200    7.1630 C.3   261  SER261      0.2116
     48  OG       -82.2110   16.7180    7.6640 O.3   261  SER261     -0.2180
     49  N        -83.3080   10.1080    7.4960 N.3   264  ARG264     -0.1245
     50  CA       -84.5120   10.8550    7.1440 C.3   264  ARG264      0.1563
     51  C        -85.5780   11.0850    8.2030 C.2   264  ARG264      0.2260
     52  O        -85.9620   10.1690    8.9260 O.2   264  ARG264     -0.2867
     53  CB       -85.1740   10.1700    5.9450 C.3   264  ARG264      0.0307
     54  CG       -84.2060    9.7950    4.8230 C.3   264  ARG264      0.0489
     55  CD       -83.5630   11.0380    4.2230 C.3   264  ARG264      0.2205
     56  NE       -84.5700   11.9250    3.6480 N.pl3 264  ARG264     -0.0865
     57  CZ       -84.3470   13.1870    3.2960 C.cat 264  ARG264      0.5346
     58  NH1      -83.1430   13.7280    3.4600 N.pl3 264  ARG264      0.1354
     59  NH2      -85.3350   13.9120    2.7890 N.pl3 264  ARG264      0.1354
     60  N        -90.7480   18.2120    2.4500 N.3   362  ALA362     -0.1245
     61  CA       -90.2430   17.2940    1.4360 C.3   362  ALA362      0.1562
     62  C        -89.6260   18.0170    0.2420 C.2   362  ALA362      0.2260
     63  O        -88.6880   17.5200   -0.3710 O.2   362  ALA362     -0.2867
     64  CB       -91.3670   16.3730    0.9540 C.3   362  ALA362      0.0290
     65  N        -75.5410   18.6280   -4.3250 N.3   401  LEU401     -0.1245
     66  CA       -76.3360   17.4220   -4.5580 C.3   401  LEU401      0.1561
     67  C        -75.9560   16.7850   -5.8820 C.2   401  LEU401      0.2260
     68  O        -76.0130   17.4310   -6.9300 O.2   401  LEU401     -0.2867
     69  CB       -77.8370   17.7710   -4.5760 C.3   401  LEU401      0.0270
     70  CG       -78.8160   16.6280   -4.8890 C.3   401  LEU401      0.0019
     71  CD1      -78.7550   15.5600   -3.7860 C.3   401  LEU401      0.0001
     72  CD2      -80.2380   17.2020   -4.9810 C.3   401  LEU401      0.0001
     73  N        -78.5430    6.3830   -6.5270 N.3   408  LYS408     -0.1231
     74  CA       -79.0340    7.3400   -5.5490 C.3   408  LYS408      0.1693
     75  C        -78.3900    8.7210   -5.6670 C.2   408  LYS408      0.2592
     76  O        -77.5670    8.9520   -6.5550 O.2   408  LYS408     -0.2718
     77  CB       -78.8310    6.7740   -4.1480 C.3   408  LYS408      0.0285
     78  CG       -79.5650    5.4620   -3.9730 C.3   408  LYS408      0.0035
     79  CD       -79.5340    4.9660   -2.5540 C.3   408  LYS408      0.0206
     80  CE       -80.3300    3.6710   -2.4600 C.3   408  LYS408      0.1093
     81  NZ       -81.6170    3.7900   -3.2180 N.3   408  LYS408     -0.1314
     82  N        -78.7920    9.6300   -4.7760 N.am  409  TYR409     -0.1962
     83  CA       -78.2760   10.9950   -4.7500 C.3   409  TYR409      0.1771
     84  C        -77.9720   11.4430   -3.3290 C.2   409  TYR409      0.2619
     85  O        -78.5950   10.9800   -2.3700 O.2   409  TYR409     -0.2715
     86  CB       -79.2900   11.9610   -5.3680 C.3   409  TYR409      0.0574
     87  CG       -79.6000   11.6740   -6.8180 C.ar  409  TYR409     -0.0198
     88  CD1      -80.5270   10.6950   -7.1770 C.ar  409  TYR409     -0.0009
     89  CD2      -78.9500   12.3680   -7.8370 C.ar  409  TYR409     -0.0009
     90  CE1      -80.7940   10.4230   -8.5140 C.ar  409  TYR409      0.0417
     91  CE2      -79.2140   12.0990   -9.1690 C.ar  409  TYR409      0.0417
     92  CZ       -80.1420   11.1220   -9.4990 C.ar  409  TYR409      0.1957
     93  OH       -80.4250   10.8620  -10.8190 O.3   409  TYR409     -0.2866
     94  N        -77.0180   12.3580   -3.1950 N.am  410  ALA410     -0.1963
     95  CA       -76.6460   12.8660   -1.8900 C.3   410  ALA410      0.1728
     96  C        -75.8170   14.1220   -2.0170 C.2   410  ALA410      0.2616
     97  O        -75.2070   14.3770   -3.0540 O.2   410  ALA410     -0.2715
     98  CB       -75.8420   11.8170   -1.1270 C.3   410  ALA410      0.0334
     99  N        -75.7950   14.9030   -0.9480 N.am  411  LYS411     -0.1977
    100  CA       -74.9900   16.1090   -0.9080 C.3   411  LYS411      0.1596
    101  C        -73.6320   15.7600   -0.3070 C.2   411  LYS411      0.2287
    102  O        -73.5380   14.9540    0.6190 O.2   411  LYS411     -0.2864
    103  CB       -75.6650   17.1790   -0.0470 C.3   411  LYS411      0.0298
    104  CG       -76.8540   17.8680   -0.7270 C.3   411  LYS411      0.0038
    105  CD       -77.6030   18.7440    0.2700 C.3   411  LYS411      0.0206
    106  CE       -78.5490   19.7160   -0.4230 C.3   411  LYS411      0.1093
    107  NZ       -77.9050   21.0390   -0.5940 N.3   411  LYS411     -0.1314
@<TRIPOS>BOND
     1    93    92    1
     2    92    91   ar
     3    92    90   ar
     4    91    89   ar
     5     1     2    1
     6    22    21    2
     7    90    88   ar
     8    13    12    2
     9     9     8    1
    10    21    20    1
    11     2     3    1
    12     2     5    1
    13    89    87   ar
    14    10     3   am
    15    10    11    1
    16    14    11    1
    17    14    15    1
    18    12    11    1
    19    12    19   am
    20     6     5    1
    21     6     7    1
    22     3     4    2
    23    88    87   ar
    24    68    67    2
    25    20    19    1
    26    20    23    1
    27     8     7    1
    28    87    86    1
    29    15    16    1
    30    76    75    2
    31    19    25    1
    32    73    74    1
    33    67    66    1
    34    75    74    1
    35    75    82   am
    36    23    24    1
    37    74    77    1
    38    86    83    1
    39    16    17   ar
    40    16    18   ar
    41    25    24    1
    42    72    70    1
    43    70    69    1
    44    70    71    1
    45    82    83    1
    46    83    84    1
    47    69    66    1
    48    66    65    1
    49    77    78    1
    50    78    79    1
    51    84    94   am
    52    84    85    2
    53    81    80    1
    54    94    95    1
    55    97    96    2
    56    79    80    1
    57    96    95    1
    58    96    99   am
    59    95    98    1
    60    99   100    1
    61   100   101    1
    62   100   103    1
    63   104   103    1
    64   104   105    1
    65   107   106    1
    66   106   105    1
    67    63    62    2
    68   101   102    2
    69    62    61    1
    70    64    61    1
    71    61    60    1
    72    34    32   ar
    73    31    32    1
    74    31    30    1
    75    26    27    1
    76    32    33   ar
    77    27    30    1
    78    27    28    1
    79    59    57    1
    80    57    58    1
    81    57    56    2
    82    28    29    2
    83    56    55    1
    84    41    40    1
    85    55    54    1
    86    54    53    1
    87    40    42    1
    88    40    39    1
    89    46    45    2
    90    53    50    1
    91    39    36    1
    92    36    35    1
    93    36    37    1
    94    43    37   am
    95    43    44    1
    96    45    44    1
    97    37    38    2
    98    50    49    1
    99    50    51    1
   100    47    44    1
   101    47    48    1
   102    51    52    2
