@<TRIPOS>MOLECULE
tmp/3eioA00.pdb
 215 209 0 0 0
SMALL
GASTEIGER

@<TRIPOS>ATOM
      1  N         37.9330    1.5910   28.1850 N.3    87  ARG87      -0.1231
      2  CA        38.8440    1.9670   27.0830 C.3    87  ARG87       0.1694
      3  C         40.0410    0.9830   26.9400 C.2    87  ARG87       0.2592
      4  O         40.4640    0.6900   25.8370 O.2    87  ARG87      -0.2718
      5  CB        39.3800    3.4010   27.2600 C.3    87  ARG87       0.0321
      6  CG        40.1320    3.9850   26.0650 C.3    87  ARG87       0.0489
      7  CD        40.8100    5.2950   26.4580 C.3    87  ARG87       0.2205
      8  NE        39.8040    6.3170   26.8110 N.pl3  87  ARG87      -0.0865
      9  CZ        39.2220    7.1590   25.9430 C.cat  87  ARG87       0.5346
     10  NH1       39.5440    7.1200   24.6490 N.pl3  87  ARG87       0.1354
     11  NH2       38.2710    8.0190   26.3580 N.pl3  87  ARG87       0.1354
     12  N         40.5550    0.4620   28.0510 N.am   88  HIS88      -0.1976
     13  CA        41.7100   -0.4420   28.0190 C.3    88  HIS88       0.1656
     14  C         41.4710   -1.8360   28.5920 C.2    88  HIS88       0.2291
     15  O         42.0730   -2.8120   28.1490 O.2    88  HIS88      -0.2864
     16  CB        42.8630    0.1790   28.7950 C.3    88  HIS88       0.0771
     17  CG        43.1860    1.5760   28.3730 C.ar   88  HIS88       0.0820
     18  ND1       43.7730    1.8670   27.1640 N.ar   88  HIS88      -0.2267
     19  CD2       43.0100    2.7600   29.0030 C.ar   88  HIS88       0.1154
     20  CE1       43.9490    3.1740   27.0660 C.ar   88  HIS88       0.1986
     21  NE2       43.4930    3.7380   28.1690 N.ar   88  HIS88      -0.2212
     22  N         40.8810    5.0630   33.2330 N.3   167  GLU167     -0.1231
     23  CA        40.6940    6.1460   32.2730 C.3   167  GLU167      0.1699
     24  C         41.5450    7.4170   32.4220 C.2   167  GLU167      0.2592
     25  O         42.1090    7.9360   31.4400 O.2   167  GLU167     -0.2718
     26  CB        39.2160    6.5480   32.2560 C.3   167  GLU167      0.0402
     27  CG        38.8970    7.7910   31.3910 C.3   167  GLU167      0.1161
     28  CD        38.8040    7.4990   29.9020 C.2   167  GLU167      0.3649
     29  OE1       38.9070    6.3080   29.5180 O.co2 167  GLU167     -0.2457
     30  OE2       38.6210    8.4590   29.1050 O.co2 167  GLU167     -0.2457
     31  N         41.6630    7.8990   33.6470 N.am  168  GLU168     -0.1979
     32  CA        42.3080    9.1670   33.9000 C.3   168  GLU168      0.1602
     33  C         43.7060    9.2000   34.4750 C.2   168  GLU168      0.2287
     34  O         44.3380   10.2600   34.4560 O.2   168  GLU168     -0.2864
     35  CB        41.3720    9.9930   34.7980 C.3   168  GLU168      0.0415
     36  CG        39.9360    9.8870   34.3210 C.3   168  GLU168      0.1163
     37  CD        39.6570   10.7550   33.0890 C.2   168  GLU168      0.3649
     38  OE1       40.6480   11.1790   32.4120 O.co2 168  GLU168     -0.2457
     39  OE2       38.4420   11.0240   32.8170 O.co2 168  GLU168     -0.2457
     40  N         45.8100    5.1190   32.0930 N.3   171  SER171     -0.1217
     41  CA        45.5030    4.7700   30.7100 C.3   171  SER171      0.1889
     42  C         45.8410    3.2950   30.4550 C.2   171  SER171      0.2288
     43  O         46.4310    2.9000   29.4370 O.2   171  SER171     -0.2866
     44  CB        46.2640    5.6840   29.7500 C.3   171  SER171      0.2089
     45  OG        45.7120    6.9800   29.7850 O.3   171  SER171     -0.2183
     46  N         51.0100   17.2440   31.9670 N.3   318  ARG318     -0.1231
     47  CA        50.1300   17.5780   30.8730 C.3   318  ARG318      0.1694
     48  C         48.7690   17.0510   31.3200 C.2   318  ARG318      0.2592
     49  O         47.8050   17.8110   31.3780 O.2   318  ARG318     -0.2718
     50  CB        50.6360   16.9460   29.5840 C.3   318  ARG318      0.0321
     51  CG        51.8520   17.6620   29.0640 C.3   318  ARG318      0.0489
     52  CD        52.0680   17.4180   27.5910 C.3   318  ARG318      0.2205
     53  NE        53.0610   18.3440   27.0550 N.pl3 318  ARG318     -0.0865
     54  CZ        54.3110   17.9930   26.7390 C.cat 318  ARG318      0.5346
     55  NH1       54.6990   16.7410   26.9080 N.pl3 318  ARG318      0.1354
     56  NH2       55.1550   18.8860   26.2320 N.pl3 318  ARG318      0.1354
     57  N         48.6890   15.7700   31.6270 N.am  319  PHE319     -0.1962
     58  CA        47.4440   15.1900   32.1710 C.3   319  PHE319      0.1771
     59  C         47.8040   14.5790   33.5310 C.2   319  PHE319      0.2619
     60  O         46.9270   14.1220   34.2890 O.2   319  PHE319     -0.2715
     61  CB        46.8610   14.0970   31.2370 C.3   319  PHE319      0.0574
     62  CG        46.2990   14.6490   29.9400 C.ar  319  PHE319     -0.0200
     63  CD1       44.9830   15.0390   29.8550 C.ar  319  PHE319     -0.0042
     64  CD2       47.1220   14.8450   28.8370 C.ar  319  PHE319     -0.0042
     65  CE1       44.4730   15.6300   28.6850 C.ar  319  PHE319     -0.0003
     66  CE2       46.6280   15.4340   27.6610 C.ar  319  PHE319     -0.0003
     67  CZ        45.2820   15.8290   27.5930 C.ar  319  PHE319     -0.0000
     68  N         49.1080   14.5340   33.8150 N.am  320  ARG320     -0.1977
     69  CA        49.6490   13.9820   35.0720 C.3   320  ARG320      0.1597
     70  C         51.1660   14.1560   35.0800 C.2   320  ARG320      0.2287
     71  O         51.7720   14.3550   34.0420 O.2   320  ARG320     -0.2864
     72  CB        49.3250   12.4870   35.2460 C.3   320  ARG320      0.0334
     73  CG        49.9900   11.5600   34.2220 C.3   320  ARG320      0.0492
     74  CD        49.9240   10.1130   34.7060 C.3   320  ARG320      0.2205
     75  NE        50.3640    9.1480   33.7080 N.pl3 320  ARG320     -0.0865
     76  CZ        49.7190    8.8940   32.5660 C.cat 320  ARG320      0.5346
     77  NH1       48.5840    9.5330   32.2530 N.pl3 320  ARG320      0.1354
     78  NH2       50.2000    7.9820   31.7250 N.pl3 320  ARG320      0.1354
     79  N         58.1340   16.6130   23.8650 N.3   367  ILE367     -0.1245
     80  CA        56.8900   15.8550   23.8740 C.3   367  ILE367      0.1561
     81  C         57.1080   14.6550   24.7710 C.2   367  ILE367      0.2260
     82  O         56.2780   14.3860   25.6670 O.2   367  ILE367     -0.2867
     83  CB        56.5090   15.3800   22.4380 C.3   367  ILE367      0.0252
     84  CG1       56.3920   16.5840   21.5120 C.3   367  ILE367      0.0019
     85  CG2       55.1810   14.5880   22.4670 C.3   367  ILE367      0.0019
     86  CD1       55.4120   17.6330   22.0090 C.3   367  ILE367      0.0001
     87  N         37.6090   20.1370   19.3990 N.3   509  TYR509     -0.1241
     88  CA        37.7690   19.2580   20.5420 C.3   509  TYR509      0.1605
     89  C         38.0170   20.2940   21.6430 C.2   509  TYR509      0.2264
     90  O         37.1170   20.5500   22.4220 O.2   509  TYR509     -0.2867
     91  CB        38.9080   18.2490   20.3920 C.3   509  TYR509      0.0534
     92  CG        38.9550   17.3560   21.6150 C.ar  509  TYR509     -0.0201
     93  CD1       39.9630   17.5140   22.5820 C.ar  509  TYR509     -0.0009
     94  CD2       37.9410   16.4120   21.8620 C.ar  509  TYR509     -0.0009
     95  CE1       39.9600   16.7720   23.7530 C.ar  509  TYR509      0.0417
     96  CE2       37.9340   15.6500   23.0520 C.ar  509  TYR509      0.0417
     97  CZ        38.9470   15.8490   23.9870 C.ar  509  TYR509      0.1957
     98  OH        38.9360   15.1600   25.1820 O.3   509  TYR509     -0.2866
     99  N         45.0940   20.8860   27.0220 N.3   513  CYS513     -0.1235
    100  CA        46.2600   20.2350   26.4210 C.3   513  CYS513      0.1677
    101  C         45.9090   19.4870   25.1180 C.2   513  CYS513      0.2270
    102  O         46.6320   18.5820   24.6940 O.2   513  CYS513     -0.2867
    103  CB        46.9390   19.2670   27.4020 C.3   513  CYS513      0.0956
    104  SG        48.7310   18.9670   26.9840 S.3   513  CYS513     -0.0801
    105  N         51.0800   21.7780   24.3170 N.3   547  TYR547     -0.1241
    106  CA        52.3520   21.7750   23.6020 C.3   547  TYR547      0.1605
    107  C         52.9220   23.1210   23.2130 C.2   547  TYR547      0.2264
    108  O         53.8640   23.1730   22.4220 O.2   547  TYR547     -0.2867
    109  CB        52.2010   20.9090   22.3420 C.3   547  TYR547      0.0534
    110  CG        51.6090   19.5710   22.7200 C.ar  547  TYR547     -0.0201
    111  CD1       52.3060   18.6970   23.5630 C.ar  547  TYR547     -0.0009
    112  CD2       50.3290   19.2000   22.2780 C.ar  547  TYR547     -0.0009
    113  CE1       51.7490   17.4660   23.9540 C.ar  547  TYR547      0.0417
    114  CE2       49.7570   17.9850   22.6700 C.ar  547  TYR547      0.0417
    115  CZ        50.4650   17.1260   23.5000 C.ar  547  TYR547      0.1957
    116  OH        49.9040   15.9400   23.9100 O.3   547  TYR547     -0.2866
    117  N         32.4640   14.3550   22.5800 N.3   592  SER592     -0.1202
    118  CA        32.8990   14.4330   23.9620 C.3   592  SER592      0.2020
    119  C         33.2490   15.8940   24.3930 C.2   592  SER592      0.2618
    120  O         32.4000   16.7710   24.3710 O.2   592  SER592     -0.2717
    121  CB        34.0950   13.4920   24.1390 C.3   592  SER592      0.2103
    122  OG        34.7250   13.7130   25.3780 O.3   592  SER592     -0.2182
    123  N         34.4800   16.1790   24.7830 N.am  593  TYR593     -0.1975
    124  CA        34.7940   17.5690   25.1820 C.3   593  TYR593      0.1639
    125  C         34.3990   18.4960   24.0450 C.2   593  TYR593      0.2290
    126  O         33.8940   19.5880   24.2850 O.2   593  TYR593     -0.2864
    127  CB        36.3010   17.8000   25.5090 C.3   593  TYR593      0.0560
    128  CG        36.5790   19.0780   26.3380 C.ar  593  TYR593     -0.0198
    129  CD1       36.4580   20.3610   25.7670 C.ar  593  TYR593     -0.0009
    130  CD2       36.8740   19.0070   27.7140 C.ar  593  TYR593     -0.0009
    131  CE1       36.6070   21.5170   26.5330 C.ar  593  TYR593      0.0417
    132  CE2       37.0400   20.1800   28.4760 C.ar  593  TYR593      0.0417
    133  CZ        36.9030   21.4290   27.8640 C.ar  593  TYR593      0.1957
    134  OH        37.1100   22.6280   28.5680 O.3   593  TYR593     -0.2866
    135  N         29.6870   16.5790   27.3610 N.3   618  VAL618     -0.1245
    136  CA        29.6090   16.7970   28.8050 C.3   618  VAL618      0.1561
    137  C         28.6420   17.9890   28.7540 C.2   618  VAL618      0.2260
    138  O         28.7030   18.7650   27.7830 O.2   618  VAL618     -0.2867
    139  CB        30.9480   17.2810   29.3710 C.3   618  VAL618      0.0252
    140  CG1       30.7390   18.0610   30.6870 C.3   618  VAL618      0.0019
    141  CG2       31.8390   16.0810   29.5960 C.3   618  VAL618      0.0019
    142  N         29.8180   19.9820   34.5750 N.3   621  TRP621     -0.1241
    143  CA        30.9990   19.3310   35.1520 C.3   621  TRP621      0.1605
    144  C         30.8130   18.4790   36.3650 C.2   621  TRP621      0.2264
    145  O         31.6190   17.5840   36.6050 O.2   621  TRP621     -0.2867
    146  CB        32.1140   20.3450   35.3540 C.3   621  TRP621      0.0550
    147  CG        32.6400   20.7640   34.0170 C.ar  621  TRP621      0.0003
    148  CD1       32.4120   21.9640   33.3670 C.ar  621  TRP621      0.0946
    149  CD2       33.3270   19.9180   33.0680 C.ar  621  TRP621      0.0152
    150  NE1       32.9100   21.9070   32.0820 N.ar  621  TRP621     -0.2442
    151  CE2       33.4700   20.6700   31.8680 C.ar  621  TRP621      0.0810
    152  CE3       33.8250   18.6010   33.1130 C.ar  621  TRP621      0.0012
    153  CZ2       34.0880   20.1480   30.7300 C.ar  621  TRP621      0.0191
    154  CZ3       34.4420   18.0820   31.9770 C.ar  621  TRP621      0.0001
    155  CH2       34.5710   18.8500   30.8040 C.ar  621  TRP621      0.0015
    156  N         30.7630   14.7480   35.3860 N.3   624  TYR624     -0.1241
    157  CA        31.9040   13.9830   34.8690 C.3   624  TYR624      0.1605
    158  C         32.7750   13.4620   36.0040 C.2   624  TYR624      0.2264
    159  O         32.4950   13.7370   37.1830 O.2   624  TYR624     -0.2867
    160  CB        32.6970   14.8190   33.8270 C.3   624  TYR624      0.0534
    161  CG        33.5480   13.9560   32.9410 C.ar  624  TYR624     -0.0201
    162  CD1       32.9810   12.9330   32.1660 C.ar  624  TYR624     -0.0009
    163  CD2       34.9280   14.1240   32.9160 C.ar  624  TYR624     -0.0009
    164  CE1       33.7730   12.0850   31.3940 C.ar  624  TYR624      0.0417
    165  CE2       35.7590   13.2890   32.1390 C.ar  624  TYR624      0.0417
    166  CZ        35.1720   12.2680   31.3880 C.ar  624  TYR624      0.1957
    167  OH        35.9840   11.4380   30.6770 O.3   624  TYR624     -0.2866
    168  N         39.5570   13.8040   36.2700 N.3   628  TYR628     -0.1241
    169  CA        39.7000   14.7070   35.1280 C.3   628  TYR628      0.1605
    170  C         39.1150   16.0800   35.4270 C.2   628  TYR628      0.2264
    171  O         39.7480   17.1100   35.2130 O.2   628  TYR628     -0.2867
    172  CB        38.9950   14.1180   33.9010 C.3   628  TYR628      0.0534
    173  CG        39.1340   14.9790   32.6450 C.ar  628  TYR628     -0.0201
    174  CD1       38.3170   16.0820   32.4400 C.ar  628  TYR628     -0.0009
    175  CD2       40.0760   14.6790   31.6730 C.ar  628  TYR628     -0.0009
    176  CE1       38.4200   16.8640   31.2740 C.ar  628  TYR628      0.0417
    177  CE2       40.2040   15.4590   30.5070 C.ar  628  TYR628      0.0417
    178  CZ        39.3580   16.5430   30.3080 C.ar  628  TYR628      0.1957
    179  OH        39.3670   17.2270   29.1000 O.3   628  TYR628     -0.2866
    180  N         40.9110   18.1680   38.0840 N.3   631  ARG631     -0.1245
    181  CA        42.2410   18.6020   37.6650 C.3   631  ARG631      0.1563
    182  C         42.1710   20.0510   37.1640 C.2   631  ARG631      0.2260
    183  O         43.0510   20.8680   37.4500 O.2   631  ARG631     -0.2867
    184  CB        42.7710   17.7060   36.5350 C.3   631  ARG631      0.0307
    185  CG        44.2440   17.9420   36.1410 C.3   631  ARG631      0.0489
    186  CD        44.8510   16.5670   35.7560 C.3   631  ARG631      0.2205
    187  NE        44.2740   16.1080   34.5180 N.pl3 631  ARG631     -0.0865
    188  CZ        43.9830   14.8530   34.1860 C.cat 631  ARG631      0.5346
    189  NH1       44.2020   13.8270   34.9870 N.pl3 631  ARG631      0.1354
    190  NH2       43.4190   14.6480   33.0130 N.pl3 631  ARG631      0.1354
    191  N         31.3960    6.5110   30.1880 N.3   672  ASN672     -0.1225
    192  CA        32.3600    7.6010   30.3710 C.3   672  ASN672      0.1785
    193  C         31.6190    8.9680   30.5480 C.2   672  ASN672      0.2597
    194  O         31.6540    9.5500   31.6080 O.2   672  ASN672     -0.2718
    195  CB        33.2730    7.6170   29.1260 C.3   672  ASN672      0.1169
    196  CG        34.5110    8.4040   29.3440 C.2   672  ASN672      0.2627
    197  OD1       34.4900    9.4070   30.0820 O.2   672  ASN672     -0.2716
    198  ND2       35.6140    7.9860   28.7010 N.am  672  ASN672     -0.0877
    199  N         30.9780    9.4510   29.5000 N.am  673  VAL673     -0.1980
    200  CA        30.1370   10.6440   29.5940 C.3   673  VAL673      0.1595
    201  C         28.7400    9.9970   29.6350 C.2   673  VAL673      0.2287
    202  O         28.2000    9.5400   28.6380 O.2   673  VAL673     -0.2864
    203  CB        30.2620   11.5570   28.3730 C.3   673  VAL673      0.0276
    204  CG1       29.2920   12.7580   28.5430 C.3   673  VAL673      0.0022
    205  CG2       31.7140   12.0540   28.2490 C.3   673  VAL673      0.0022
    206  N         30.9000    5.3620   24.7120 N.3   702  HIS702     -0.1241
    207  CA        31.4660    6.6420   24.3060 C.3   702  HIS702      0.1621
    208  C         32.0840    6.6370   22.9200 C.2   702  HIS702      0.2264
    209  O         32.2210    7.6890   22.3100 O.2   702  HIS702     -0.2867
    210  CB        32.5030    7.0960   25.3190 C.3   702  HIS702      0.0745
    211  CG        32.7590    8.5670   25.2960 C.ar  702  HIS702      0.0817
    212  ND1       31.7470    9.4980   25.4250 N.ar  702  HIS702     -0.2268
    213  CD2       33.9070    9.2670   25.1680 C.ar  702  HIS702      0.1154
    214  CE1       32.2730   10.7130   25.3920 C.ar  702  HIS702      0.1986
    215  NE2       33.5810   10.5990   25.2390 N.ar  702  HIS702     -0.2212
@<TRIPOS>BOND
     1    87    88    1
     2    91    88    1
     3    91    92    1
     4    88    89    1
     5    84    86    1
     6    84    83    1
     7    92    94   ar
     8    92    93   ar
     9    89    90    2
    10    94    96   ar
    11   112   114   ar
    12   112   110   ar
    13   209   208    2
    14   109   110    1
    15   109   106    1
    16   108   107    2
    17    83    85    1
    18    83    80    1
    19   117   118    1
    20    93    95   ar
    21   114   115   ar
    22   110   111   ar
    23   208   207    1
    24    96    97   ar
    25   107   106    1
    26   115   116    1
    27   115   113   ar
    28   111   113   ar
    29   106   105    1
    30    95    97   ar
    31    79    80    1
    32    80    81    1
    33   118   121    1
    34   118   119    1
    35    97    98    1
    36   125   126    2
    37   125   124    1
    38   121   122    1
    39   207   206    1
    40   207   210    1
    41   120   119    2
    42   119   123   am
    43    10     9    1
    44   102   101    2
    45    81    82    2
    46   123   124    1
    47   101   100    1
    48   213   215   ar
    49   213   211   ar
    50   124   127    1
    51   215   214   ar
    52   211   210    1
    53   211   212   ar
    54   214   212   ar
    55   127   128    1
    56   129   128   ar
    57   129   131   ar
    58     4     3    2
    59     9    11    1
    60     9     8    2
    61     6     7    1
    62     6     5    1
    63    56    54    1
    64   128   130   ar
    65   100    99    1
    66   100   103    1
    67     7     8    1
    68   131   133   ar
    69    54    55    1
    70    54    53    2
    71     3     2    1
    72     3    12   am
    73   104   103    1
    74    53    52    1
    75    20    18   ar
    76    20    21   ar
    77     2     5    1
    78     2     1    1
    79    18    17   ar
    80   135   136    1
    81    52    51    1
    82    67    66   ar
    83    67    65   ar
    84    66    64   ar
    85   130   132   ar
    86   138   137    2
    87   133   132   ar
    88   133   134    1
    89    13    12    1
    90    13    14    1
    91    13    16    1
    92    15    14    2
    93    21    19   ar
    94   205   203    1
    95    17    16    1
    96    17    19   ar
    97   203   204    1
    98   203   200    1
    99   202   201    2
   100    65    63   ar
   101   198   196   am
   102   137   136    1
   103   136   139    1
   104    64    62   ar
   105    51    50    1
   106   179   178    1
   107    30    28   ar
   108   195   196    1
   109   195   192    1
   110   196   197    2
   111   139   141    1
   112   139   140    1
   113    43    42    2
   114   199   200    1
   115   199   193   am
   116    29    28   ar
   117    50    47    1
   118   200   201    1
   119    44    45    1
   120    44    41    1
   121    63    62   ar
   122    28    27    1
   123    62    61    1
   124   191   192    1
   125   178   177   ar
   126   178   176   ar
   127   192   193    1
   128    42    41    1
   129   177   175   ar
   130   193   194    2
   131   167   166    1
   132    41    40    1
   133   153   155   ar
   134   153   151   ar
   135   155   154   ar
   136    47    48    1
   137    47    46    1
   138    61    58    1
   139   176   174   ar
   140    48    49    2
   141    48    57   am
   142   166   164   ar
   143   166   165   ar
   144    27    26    1
   145   164   162   ar
   146    25    24    2
   147    57    58    1
   148   175   173   ar
   149    78    76    1
   150   151   150   ar
   151   151   149   ar
   152   154   152   ar
   153   150   148   ar
   154   165   163   ar
   155   162   161   ar
   156    58    59    1
   157    77    76    1
   158    26    23    1
   159    23    24    1
   160    23    22    1
   161    38    37   ar
   162    24    31   am
   163   174   173   ar
   164    76    75    2
   165   173   172    1
   166    39    37   ar
   167   163   161   ar
   168   161   160    1
   169   190   188    1
   170   149   152   ar
   171   149   147   ar
   172    37    36    1
   173   148   147   ar
   174    59    68   am
   175    59    60    2
   176    31    32    1
   177    75    74    1
   178    68    69    1
   179   160   157    1
   180    32    33    1
   181    32    35    1
   182   172   169    1
   183   147   146    1
   184    71    70    2
   185   188   187    2
   186   188   189    1
   187    73    74    1
   188    73    72    1
   189    36    35    1
   190    34    33    2
   191   187   186    1
   192   142   143    1
   193   157   156    1
   194   157   158    1
   195    69    70    1
   196    69    72    1
   197   169   170    1
   198   169   168    1
   199   143   146    1
   200   143   144    1
   201   171   170    2
   202   186   185    1
   203   158   159    2
   204   185   184    1
   205   144   145    2
   206   184   181    1
   207   182   183    2
   208   182   181    1
   209   181   180    1
