@<TRIPOS>MOLECULE
tmp/3eiuA00.pdb
 86 79 0 0 0
SMALL
GASTEIGER

@<TRIPOS>ATOM
      1  N        -13.5800   -2.0840   11.5570 N.3   337  ALA337     -0.1245
      2  CA       -14.2820   -1.3520   10.4980 C.3   337  ALA337      0.1562
      3  C        -14.0670   -1.9860    9.1270 C.2   337  ALA337      0.2260
      4  O        -14.9510   -1.9330    8.2680 O.2   337  ALA337     -0.2867
      5  CB       -13.8620    0.1140   10.4880 C.3   337  ALA337      0.0290
      6  N        -16.0520   -5.3000    9.1400 N.3   340  ALA340     -0.1231
      7  CA       -17.4510   -4.8840    9.2160 C.3   340  ALA340      0.1694
      8  C        -18.0550   -4.6270    7.8350 C.2   340  ALA340      0.2591
      9  O        -19.1350   -5.1320    7.5170 O.2   340  ALA340     -0.2718
     10  CB       -17.5950   -3.6490   10.1040 C.3   340  ALA340      0.0304
     11  N        -17.3450   -3.8520    7.0190 N.am  341  GLU341     -0.1979
     12  CA       -17.8190   -3.5070    5.6860 C.3   341  GLU341      0.1602
     13  C        -17.7820   -4.7170    4.7660 C.2   341  GLU341      0.2287
     14  O        -18.7960   -5.0630    4.1590 O.2   341  GLU341     -0.2864
     15  CB       -17.0100   -2.3550    5.0950 C.3   341  GLU341      0.0415
     16  CG       -17.5320   -1.8770    3.7540 C.3   341  GLU341      0.1163
     17  CD       -17.0950   -0.4690    3.4240 C.2   341  GLU341      0.3649
     18  OE1      -16.9570    0.3540    4.3560 O.co2 341  GLU341     -0.2457
     19  OE2      -16.9000   -0.1780    2.2270 O.co2 341  GLU341     -0.2457
     20  N        -20.7230   -6.7960    5.1070 N.3   344  ASP344     -0.1225
     21  CA       -21.9640   -6.2210    4.5770 C.3   344  ASP344      0.1805
     22  C        -21.9720   -6.2640    3.0530 C.2   344  ASP344      0.2597
     23  O        -23.0260   -6.4080    2.4300 O.2   344  ASP344     -0.2718
     24  CB       -22.1700   -4.7900    5.0810 C.3   344  ASP344      0.1424
     25  CG       -22.3280   -4.7140    6.5960 C.2   344  ASP344      0.3668
     26  OD1      -22.7340   -5.7190    7.2230 O.co2 344  ASP344     -0.2456
     27  OD2      -22.0460   -3.6380    7.1660 O.co2 344  ASP344     -0.2456
     28  N        -20.7860   -6.1590    2.4600 N.am  345  LEU345     -0.1979
     29  CA       -20.6380   -6.2630    1.0140 C.3   345  LEU345      0.1596
     30  C        -20.9290   -7.6750    0.5350 C.2   345  LEU345      0.2287
     31  O        -21.2680   -7.8770   -0.6260 O.2   345  LEU345     -0.2864
     32  CB       -19.2450   -5.8150    0.5700 C.3   345  LEU345      0.0297
     33  CG       -18.9480   -4.3200    0.7090 C.3   345  LEU345      0.0022
     34  CD1      -17.4610   -4.0730    0.6610 C.3   345  LEU345      0.0001
     35  CD2      -19.6540   -3.5180   -0.3640 C.3   345  LEU345      0.0001
     36  N        -24.1320   -7.4430   -0.8260 N.3   348  LEU348     -0.1245
     37  CA       -24.1120   -6.7340   -2.0970 C.3   348  LEU348      0.1561
     38  C        -23.7000   -7.6360   -3.2650 C.2   348  LEU348      0.2260
     39  O        -24.1250   -7.4050   -4.3910 O.2   348  LEU348     -0.2867
     40  CB       -23.1970   -5.5040   -2.0100 C.3   348  LEU348      0.0270
     41  CG       -23.4210   -4.3400   -2.9860 C.3   348  LEU348      0.0019
     42  CD1      -24.6760   -3.5580   -2.6300 C.3   348  LEU348      0.0001
     43  CD2      -22.2230   -3.4080   -3.0140 C.3   348  LEU348      0.0001
     44  N        -12.7400   -1.6710   -5.2710 N.3   360  ARG360     -0.1231
     45  CA       -12.6390   -1.2700   -3.8730 C.3   360  ARG360      0.1694
     46  C        -13.3850   -2.2610   -2.9820 C.2   360  ARG360      0.2592
     47  O        -12.8410   -2.7520   -1.9910 O.2   360  ARG360     -0.2718
     48  CB       -13.2330    0.1310   -3.7010 C.3   360  ARG360      0.0321
     49  CG       -13.1760    0.6850   -2.2870 C.3   360  ARG360      0.0489
     50  CD       -14.3720    1.5860   -2.0240 C.3   360  ARG360      0.2205
     51  NE       -14.3080    2.2670   -0.7300 N.pl3 360  ARG360     -0.0865
     52  CZ       -14.5070    1.6840    0.4520 C.cat 360  ARG360      0.5346
     53  NH1      -14.7670    0.3830    0.5350 N.pl3 360  ARG360      0.1354
     54  NH2      -14.4330    2.4100    1.5630 N.pl3 360  ARG360      0.1354
     55  N        -14.6300   -2.5490   -3.3550 N.am  361  ASP361     -0.1974
     56  CA       -15.5170   -3.3930   -2.5600 C.3   361  ASP361      0.1709
     57  C        -15.0760   -4.8520   -2.5610 C.2   361  ASP361      0.2293
     58  O        -15.2880   -5.5690   -1.5840 O.2   361  ASP361     -0.2864
     59  CB       -16.9660   -3.2620   -3.0500 C.3   361  ASP361      0.1436
     60  CG       -17.5070   -1.8330   -2.9320 C.2   361  ASP361      0.3671
     61  OD1      -16.7060   -0.8720   -2.9410 O.co2 361  ASP361     -0.2456
     62  OD2      -18.7420   -1.6660   -2.8420 O.co2 361  ASP361     -0.2456
     63  N        -12.2990   -5.3530   -0.1110 N.3   364  PHE364     -0.1241
     64  CA       -12.9450   -5.3470    1.2020 C.3   364  PHE364      0.1605
     65  C        -13.6650   -6.6630    1.4760 C.2   364  PHE364      0.2264
     66  O        -13.5770   -7.2020    2.5810 O.2   364  PHE364     -0.2867
     67  CB       -13.9130   -4.1680    1.3250 C.3   364  PHE364      0.0534
     68  CG       -13.3280   -2.9720    2.0240 C.ar  364  PHE364     -0.0203
     69  CD1      -12.2070   -2.3250    1.5120 C.ar  364  PHE364     -0.0042
     70  CD2      -13.9050   -2.4890    3.1920 C.ar  364  PHE364     -0.0042
     71  CE1      -11.6660   -1.2220    2.1580 C.ar  364  PHE364     -0.0003
     72  CE2      -13.3750   -1.3820    3.8450 C.ar  364  PHE364     -0.0003
     73  CZ       -12.2530   -0.7470    3.3260 C.ar  364  PHE364     -0.0000
     74  N         -7.1710    3.8500    1.7090 N.3   404  GLN404     -0.1245
     75  CA        -8.4770    3.4770    2.2440 C.3   404  GLN404      0.1566
     76  C         -8.3910    3.0460    3.7180 C.2   404  GLN404      0.2260
     77  O         -9.4110    2.7350    4.3420 O.2   404  GLN404     -0.2867
     78  CB        -9.0930    2.3680    1.3820 C.3   404  GLN404      0.0367
     79  CG       -10.6100    2.2510    1.4790 C.3   404  GLN404      0.0905
     80  CD       -11.3260    3.5190    1.0620 C.2   404  GLN404      0.2608
     81  OE1      -11.9410    4.1970    1.8870 O.2   404  GLN404     -0.2717
     82  NE2      -11.2440    3.8530   -0.2230 N.am  404  GLN404     -0.0878
     83  N         -8.8460    3.4990    6.9470 N.3   406  GLY406     -0.1225
     84  CA        -9.6430    4.2940    7.8990 C.3   406  GLY406      0.1811
     85  C         -9.1120    5.6050    8.4520 C.2   406  GLY406      0.2280
     86  O         -9.2090    6.6460    7.8000 O.2   406  GLY406     -0.2866
@<TRIPOS>BOND
     1    44    45    1
     2    39    38    2
     3    45    48    1
     4    45    46    1
     5    48    49    1
     6    55    46   am
     7    55    56    1
     8    38    37    1
     9    59    60    1
    10    59    56    1
    11    43    41    1
    12    41    42    1
    13    41    40    1
    14    46    47    2
    15    61    60   ar
    16    60    62   ar
    17    57    56    1
    18    57    58    2
    19    49    50    1
    20    37    40    1
    21    37    36    1
    22    50    51    1
    23    51    52    2
    24    31    30    2
    25    35    33    1
    26    82    80   am
    27    63    64    1
    28    52    53    1
    29    52    54    1
    30    30    29    1
    31    32    33    1
    32    32    29    1
    33    34    33    1
    34    29    28    1
    35    80    79    1
    36    80    81    2
    37    64    67    1
    38    64    65    1
    39    67    68    1
    40    78    79    1
    41    78    75    1
    42    65    66    2
    43    69    68   ar
    44    69    71   ar
    45    74    75    1
    46    68    70   ar
    47    71    73   ar
    48    19    17   ar
    49    75    76    1
    50    23    22    2
    51    28    22   am
    52    22    21    1
    53    70    72   ar
    54    73    72   ar
    55    17    16    1
    56    17    18   ar
    57    76    77    2
    58    16    15    1
    59    14    13    2
    60    21    24    1
    61    21    20    1
    62    13    12    1
    63    24    25    1
    64    15    12    1
    65    12    11    1
    66    25    27   ar
    67    25    26   ar
    68    83    84    1
    69    11     8   am
    70     9     8    2
    71    86    85    2
    72     8     7    1
    73    84    85    1
    74     4     3    2
    75     3     2    1
    76     6     7    1
    77     7    10    1
    78     5     2    1
    79     2     1    1
