@<TRIPOS>MOLECULE
tmp/3eiuB00.pdb
 118 115 0 0 0
SMALL
GASTEIGER

@<TRIPOS>ATOM
      1  N        -26.7610    4.3190   -1.8800 N.3    94  TYR94      -0.1227
      2  CA       -26.0170    4.6230   -0.6550 C.3    94  TYR94       0.1736
      3  C        -24.6570    5.2410   -0.9370 C.2    94  TYR94       0.2595
      4  O        -23.9760    4.8550   -1.8870 O.2    94  TYR94      -0.2718
      5  CB       -25.8470    3.3660    0.1930 C.3    94  TYR94       0.0548
      6  CG       -27.1550    2.7600    0.6200 C.ar   94  TYR94      -0.0200
      7  CD1      -27.6830    1.6600   -0.0480 C.ar   94  TYR94      -0.0009
      8  CD2      -27.8750    3.2950    1.6870 C.ar   94  TYR94      -0.0009
      9  CE1      -28.8910    1.1010    0.3400 C.ar   94  TYR94       0.0417
     10  CE2      -29.0840    2.7450    2.0830 C.ar   94  TYR94       0.0417
     11  CZ       -29.5860    1.6480    1.4050 C.ar   94  TYR94       0.1957
     12  OH       -30.7830    1.0990    1.7950 O.3    94  TYR94      -0.2866
     13  N        -24.2680    6.1980   -0.0990 N.am   95  ALA95      -0.1966
     14  CA       -23.0050    6.9100   -0.2620 C.3    95  ALA95       0.1728
     15  C        -21.9350    6.3660    0.6720 C.2    95  ALA95       0.2616
     16  O        -22.2450    5.8350    1.7390 O.2    95  ALA95      -0.2715
     17  CB       -23.2040    8.3970   -0.0260 C.3    95  ALA95       0.0334
     18  N        -20.6750    6.5030    0.2620 N.am   96  ARG96      -0.1963
     19  CA       -19.5360    6.1360    1.1030 C.3    96  ARG96       0.1729
     20  C        -19.3460    7.2090    2.1800 C.2    96  ARG96       0.2616
     21  O        -18.3950    8.0010    2.1280 O.2    96  ARG96      -0.2715
     22  CB       -18.2650    5.9850    0.2520 C.3    96  ARG96       0.0348
     23  CG       -17.2590    4.9490    0.7690 C.3    96  ARG96       0.0492
     24  CD       -17.6520    3.5280    0.3670 C.3    96  ARG96       0.2205
     25  NE       -17.7090    3.3680   -1.0880 N.pl3  96  ARG96      -0.0865
     26  CZ       -18.2990    2.3570   -1.7230 C.cat  96  ARG96       0.5346
     27  NH1      -18.9030    1.3870   -1.0430 N.pl3  96  ARG96       0.1354
     28  NH2      -18.2880    2.3160   -3.0500 N.pl3  96  ARG96       0.1354
     29  N        -20.2730    7.2320    3.1390 N.am   97  LEU97      -0.1964
     30  CA       -20.2980    8.2270    4.2130 C.3    97  LEU97       0.1713
     31  C        -20.8660    7.6380    5.4990 C.2    97  LEU97       0.2458
     32  O        -21.9320    7.0220    5.4750 O.2    97  LEU97      -0.2730
     33  CB       -21.1170    9.4480    3.7950 C.3    97  LEU97       0.0310
     34  CG       -20.3410   10.6040    3.1680 C.3    97  LEU97       0.0022
     35  CD1      -21.2600   11.4460    2.3050 C.3    97  LEU97       0.0001
     36  CD2      -19.6730   11.4570    4.2440 C.3    97  LEU97       0.0001
     37  N        -20.1640    7.8380    6.6310 N.am   98  PRO98      -0.2716
     38  CA       -20.5790    7.2350    7.8980 C.3    98  PRO98       0.1521
     39  C        -21.8020    7.9280    8.5020 C.2    98  PRO98       0.2440
     40  O        -21.8140    9.1580    8.5980 O.2    98  PRO98      -0.2731
     41  CB       -19.3550    7.4310    8.7980 C.3    98  PRO98       0.0310
     42  CG       -18.6740    8.6360    8.2550 C.3    98  PRO98       0.0237
     43  CD       -18.9420    8.6520    6.7760 C.3    98  PRO98       0.0939
     44  N        -22.8320    7.1460    8.8950 N.am   99  PRO99      -0.2727
     45  CA       -24.0060    7.7010    9.5590 C.3    99  PRO99       0.1402
     46  C        -23.6270    8.7730   10.5800 C.2    99  PRO99       0.2269
     47  O        -22.7800    8.5380   11.4470 O.2    99  PRO99      -0.2865
     48  CB       -24.6190    6.4790   10.2380 C.3    99  PRO99       0.0296
     49  CG       -24.3270    5.3840    9.2930 C.3    99  PRO99       0.0237
     50  CD       -22.9600    5.6870    8.7240 C.3    99  PRO99       0.0939
     51  N        -29.0650    6.3430    9.6340 N.3   119  GLY119     -0.1225
     52  CA       -28.4580    5.3560    8.7430 C.3   119  GLY119      0.1811
     53  C        -27.8710    4.1660    9.4760 C.2   119  GLY119      0.2280
     54  O        -27.1050    3.3840    8.9070 O.2   119  GLY119     -0.2866
     55  N        -27.9090    0.6120   11.9040 N.3   121  LYS121     -0.1245
     56  CA       -28.6000   -0.6610   12.0640 C.3   121  LYS121      0.1561
     57  C        -28.6020   -1.0440   13.5350 C.2   121  LYS121      0.2260
     58  O        -27.6950   -1.7290   14.0140 O.2   121  LYS121     -0.2867
     59  CB       -27.9500   -1.7520   11.2070 C.3   121  LYS121      0.0271
     60  CG       -28.3560   -1.6740    9.7460 C.3   121  LYS121      0.0035
     61  CD       -27.5790   -2.6240    8.8480 C.3   121  LYS121      0.0206
     62  CE       -26.1960   -2.0900    8.4880 C.3   121  LYS121      0.1093
     63  NZ       -25.1420   -2.6880    9.3560 N.3   121  LYS121     -0.1314
     64  N        -29.2850   -6.5200    5.7730 N.3   252  TYR252     -0.1227
     65  CA       -28.4650   -5.6190    6.5790 C.3   252  TYR252      0.1736
     66  C        -27.3490   -4.9390    5.7900 C.2   252  TYR252      0.2595
     67  O        -26.4500   -4.3350    6.3710 O.2   252  TYR252     -0.2718
     68  CB       -27.9650   -6.2680    7.8870 C.3   252  TYR252      0.0548
     69  CG       -27.0050   -7.4380    7.7830 C.ar  252  TYR252     -0.0200
     70  CD1      -25.6910   -7.2600    7.3510 C.ar  252  TYR252     -0.0009
     71  CD2      -27.3940   -8.7140    8.1890 C.ar  252  TYR252     -0.0009
     72  CE1      -24.8040   -8.3330    7.2780 C.ar  252  TYR252      0.0417
     73  CE2      -26.5170   -9.7940    8.1240 C.ar  252  TYR252      0.0417
     74  CZ       -25.2220   -9.5960    7.6700 C.ar  252  TYR252      0.1957
     75  OH       -24.3460  -10.6570    7.5990 O.3   252  TYR252     -0.2866
     76  N        -27.4180   -5.0340    4.4650 N.am  253  GLU253     -0.1979
     77  CA       -26.6060   -4.1880    3.5990 C.3   253  GLU253      0.1602
     78  C        -27.3280   -2.8610    3.4220 C.2   253  GLU253      0.2287
     79  O        -26.7090   -1.7950    3.4150 O.2   253  GLU253     -0.2864
     80  CB       -26.3880   -4.8460    2.2320 C.3   253  GLU253      0.0415
     81  CG       -25.3260   -4.1710    1.3460 C.3   253  GLU253      0.1163
     82  CD       -25.7640   -2.8200    0.7810 C.2   253  GLU253      0.3649
     83  OE1      -26.8580   -2.7440    0.1780 O.co2 253  GLU253     -0.2457
     84  OE2      -25.0100   -1.8340    0.9430 O.co2 253  GLU253     -0.2457
     85  N        -28.7860   -0.0070    4.3880 N.3   255  ALA255     -0.1231
     86  CA       -28.8900    1.0170    5.4320 C.3   255  ALA255      0.1694
     87  C        -27.7680    2.0400    5.2750 C.2   255  ALA255      0.2593
     88  O        -26.6890    1.7200    4.7620 O.2   255  ALA255     -0.2718
     89  CB       -28.8330    0.3890    6.8120 C.3   255  ALA255      0.0304
     90  N        -28.0260    3.2680    5.7170 N.am  256  GLY256     -0.1942
     91  CA       -27.0280    4.3300    5.6650 C.3   256  GLY256      0.2014
     92  C        -27.5370    5.6300    5.0800 C.2   256  GLY256      0.2638
     93  O        -28.7420    5.8360    4.9570 O.2   256  GLY256     -0.2714
     94  N        -26.5990    6.5050    4.7220 N.am  257  ILE257     -0.1977
     95  CA       -26.9040    7.8140    4.1470 C.3   257  ILE257      0.1596
     96  C        -26.8910    7.7400    2.6240 C.2   257  ILE257      0.2287
     97  O        -25.9720    7.1660    2.0320 O.2   257  ILE257     -0.2864
     98  CB       -25.8920    8.8830    4.6190 C.3   257  ILE257      0.0276
     99  CG1      -25.8910    8.9830    6.1490 C.3   257  ILE257      0.0022
    100  CG2      -26.1990   10.2390    3.9830 C.3   257  ILE257      0.0022
    101  CD1      -24.7200    9.7590    6.7210 C.3   257  ILE257      0.0001
    102  N        -23.5530   -2.4330   14.7300 N.3   291  GLU291     -0.1245
    103  CA       -23.5630   -1.0290   15.1360 C.3   291  GLU291      0.1567
    104  C        -24.2220   -0.8410   16.5050 C.2   291  GLU291      0.2260
    105  O        -24.6320    0.2660   16.8730 O.2   291  GLU291     -0.2867
    106  CB       -24.2280   -0.1650   14.0570 C.3   291  GLU291      0.0388
    107  CG       -23.4320   -0.1060   12.7500 C.3   291  GLU291      0.1160
    108  CD       -24.2250    0.4510   11.5800 C.2   291  GLU291      0.3649
    109  OE1      -25.3610    0.9200   11.7840 O.co2 291  GLU291     -0.2457
    110  OE2      -23.7080    0.4170   10.4450 O.co2 291  GLU291     -0.2457
    111  N        -22.0980    3.9140   16.8830 N.3   318  LEU318     -0.1245
    112  CA       -21.9650    5.2300   16.2400 C.3   318  LEU318      0.1561
    113  C        -22.7760    6.3540   16.9040 C.2   318  LEU318      0.2260
    114  O        -23.2240    7.2880   16.2330 O.2   318  LEU318     -0.2867
    115  CB       -22.2310    5.1560   14.7250 C.3   318  LEU318      0.0270
    116  CG       -22.7310    3.8650   14.0750 C.3   318  LEU318      0.0019
    117  CD1      -23.3520    4.1740   12.7370 C.3   318  LEU318      0.0001
    118  CD2      -21.5950    2.8630   13.9090 C.3   318  LEU318      0.0001
@<TRIPOS>BOND
     1    28    26    1
     2     4     3    2
     3     1     2    1
     4    26    25    2
     5    26    27    1
     6    25    24    1
     7     3     2    1
     8     3    13   am
     9     2     5    1
    10    14    13    1
    11    14    17    1
    12    14    15    1
    13     7     9   ar
    14     7     6   ar
    15    83    82   ar
    16     5     6    1
    17    22    23    1
    18    22    19    1
    19    18    15   am
    20    18    19    1
    21     9    11   ar
    22    24    23    1
    23     6     8   ar
    24    15    16    2
    25    82    84   ar
    26    82    81    1
    27    19    20    1
    28    81    80    1
    29    11    12    1
    30    11    10   ar
    31     8    10   ar
    32    97    96    2
    33    21    20    2
    34    20    29   am
    35    80    77    1
    36    35    34    1
    37    96    95    1
    38    29    30    1
    39    34    33    1
    40    34    36    1
    41    79    78    2
    42    78    77    1
    43    77    76    1
    44    33    30    1
    45   100    98    1
    46    95    98    1
    47    95    94    1
    48    30    31    1
    49    85    86    1
    50    76    66   am
    51    98    99    1
    52    94    92   am
    53    88    87    2
    54    93    92    2
    55    92    91    1
    56    87    86    1
    57    87    90   am
    58    86    89    1
    59    32    31    2
    60    31    37   am
    61    91    90    1
    62    64    65    1
    63    66    67    2
    64    66    65    1
    65    99   101    1
    66    65    68    1
    67    37    43    1
    68    37    38    1
    69    43    42    1
    70    72    70   ar
    71    72    74   ar
    72    70    69   ar
    73    75    74    1
    74    74    73   ar
    75    69    68    1
    76    69    71   ar
    77    38    39    1
    78    38    41    1
    79    73    71   ar
    80    42    41    1
    81    62    61    1
    82    62    63    1
    83    39    40    2
    84    39    44   am
    85    50    44    1
    86    50    49    1
    87    52    53    1
    88    52    51    1
    89    61    60    1
    90    44    45    1
    91    54    53    2
    92    49    48    1
    93    45    48    1
    94    45    46    1
    95    60    59    1
    96   110   108   ar
    97    46    47    2
    98    59    56    1
    99   108   109   ar
   100   108   107    1
   101    55    56    1
   102    56    57    1
   103   117   116    1
   104   107   106    1
   105    57    58    2
   106   118   116    1
   107   106   103    1
   108   116   115    1
   109   115   112    1
   110   102   103    1
   111   103   104    1
   112   114   113    2
   113   112   111    1
   114   112   113    1
   115   104   105    2
