@<TRIPOS>MOLECULE
tmp/3eiyA00.pdb
 149 139 0 0 0
SMALL
GASTEIGER

@<TRIPOS>ATOM
      1  N         -4.1150   44.6810   16.3150 N.3    29  LYS29      -0.1245
      2  CA        -3.2090   44.2000   15.2590 C.3    29  LYS29       0.1561
      3  C         -3.4500   44.9540   13.9370 C.2    29  LYS29       0.2260
      4  O         -4.4250   44.6860   13.2440 O.2    29  LYS29      -0.2867
      5  CB        -3.4670   42.6920   15.0770 C.3    29  LYS29       0.0271
      6  CG        -2.2480   41.8220   14.8840 C.3    29  LYS29       0.0035
      7  CD        -1.9990   41.5620   13.4210 C.3    29  LYS29       0.0206
      8  CE        -0.9990   40.4420   13.2400 C.3    29  LYS29       0.1093
      9  NZ        -0.2740   40.6960   11.9770 N.3    29  LYS29      -0.1314
     10  N         -2.3330   45.8710   10.0160 N.3    31  GLU31      -0.1245
     11  CA        -1.5760   45.3720    8.8680 C.3    31  GLU31       0.1567
     12  C         -1.5940   46.4270    7.7790 C.2    31  GLU31       0.2260
     13  O         -2.6380   46.9910    7.4840 O.2    31  GLU31      -0.2867
     14  CB        -2.1730   44.0500    8.3220 C.3    31  GLU31       0.0388
     15  CG        -2.0050   42.8660    9.2810 C.3    31  GLU31       0.1160
     16  CD        -2.3440   41.5260    8.6490 C.2    31  GLU31       0.3649
     17  OE1       -2.9260   41.5130    7.5310 O.co2  31  GLU31      -0.2457
     18  OE2       -2.0420   40.4830    9.2940 O.co2  31  GLU31      -0.2457
     19  N         -6.5780   44.6190   11.3760 N.3    42  ASP42      -0.1225
     20  CA        -6.8250   43.2210   11.1400 C.3    42  ASP42       0.1805
     21  C         -7.7370   42.6260   12.2100 C.2    42  ASP42       0.2597
     22  O         -8.7870   42.0810   11.8790 O.2    42  ASP42      -0.2718
     23  CB        -5.5240   42.4010   11.0400 C.3    42  ASP42       0.1424
     24  CG        -5.8140   40.9520   10.7250 C.2    42  ASP42       0.3668
     25  OD1       -6.3720   40.6860    9.6420 O.co2  42  ASP42      -0.2456
     26  OD2       -5.5760   40.0840   11.5640 O.co2  42  ASP42      -0.2456
     27  N         -7.3450   42.7290   13.4820 N.am   43  ARG43      -0.1979
     28  CA        -8.1900   42.2970   14.5610 C.3    43  ARG43       0.1597
     29  C         -7.7610   42.9170   15.9060 C.2    43  ARG43       0.2287
     30  O         -6.6080   43.3380   16.0650 O.2    43  ARG43      -0.2864
     31  CB        -8.1710   40.7640   14.6780 C.3    43  ARG43       0.0334
     32  CG        -6.8350   40.2030   15.2460 C.3    43  ARG43       0.0492
     33  CD        -6.7700   38.7120   15.0560 C.3    43  ARG43       0.2205
     34  NE        -5.5270   38.1050   15.5270 N.pl3  43  ARG43      -0.0865
     35  CZ        -4.4360   37.9380   14.7740 C.cat  43  ARG43       0.5346
     36  NH1       -4.4130   38.3640   13.5000 N.pl3  43  ARG43       0.1354
     37  NH2       -3.3630   37.3580   15.2990 N.pl3  43  ARG43       0.1354
     38  N          2.5870   43.4250   21.7240 N.3    51  TYR51      -0.1241
     39  CA         3.9250   43.1670   21.1790 C.3    51  TYR51       0.1605
     40  C          4.9690   43.7540   22.1040 C.2    51  TYR51       0.2264
     41  O          4.9090   44.9240   22.4190 O.2    51  TYR51      -0.2867
     42  CB         4.0630   43.7150   19.7440 C.3    51  TYR51       0.0534
     43  CG         3.3270   42.8780   18.7200 C.ar   51  TYR51      -0.0201
     44  CD1        4.0310   42.0700   17.8180 C.ar   51  TYR51      -0.0009
     45  CD2        1.9180   42.8630   18.6670 C.ar   51  TYR51      -0.0009
     46  CE1        3.3700   41.3010   16.8830 C.ar   51  TYR51       0.0417
     47  CE2        1.2410   42.0790   17.7340 C.ar   51  TYR51       0.0417
     48  CZ         1.9640   41.2930   16.8530 C.ar   51  TYR51       0.1957
     49  OH         1.3150   40.5190   15.9140 O.3    51  TYR51      -0.2866
     50  N          6.9030   45.8490   15.5960 N.3    55  TYR55      -0.1241
     51  CA         6.6220   44.8310   14.5830 C.3    55  TYR55       0.1605
     52  C          6.2430   45.4650   13.2380 C.2    55  TYR55       0.2264
     53  O          5.4570   46.4100   13.1770 O.2    55  TYR55      -0.2867
     54  CB         5.4790   43.9570   15.0680 C.3    55  TYR55       0.0534
     55  CG         5.1620   42.7540   14.1890 C.ar   55  TYR55      -0.0201
     56  CD1        6.1120   41.7620   13.9820 C.ar   55  TYR55      -0.0009
     57  CD2        3.8980   42.6080   13.5930 C.ar   55  TYR55      -0.0009
     58  CE1        5.8340   40.6530   13.2010 C.ar   55  TYR55       0.0417
     59  CE2        3.6060   41.4930   12.8250 C.ar   55  TYR55       0.0417
     60  CZ         4.5850   40.5130   12.6370 C.ar   55  TYR55       0.1957
     61  OH         4.3380   39.4020   11.8530 O.3    55  TYR55      -0.2866
     62  N          4.7530   32.4820    2.8320 N.3    65  ASP65      -0.1239
     63  CA         3.2840   32.5100    2.9110 C.3    65  ASP65       0.1674
     64  C          2.6090   33.4960    1.9400 C.2    65  ASP65       0.2266
     65  O          1.3850   33.6000    1.8970 O.2    65  ASP65      -0.2867
     66  CB         2.8200   32.7980    4.3420 C.3    65  ASP65       0.1410
     67  CG         3.5090   34.0050    4.9470 C.2    65  ASP65       0.3668
     68  OD1        3.7220   35.0140    4.2190 O.co2  65  ASP65      -0.2456
     69  OD2        3.8430   33.9360    6.1610 O.co2  65  ASP65      -0.2456
     70  N          3.0680   36.6900    2.1470 N.3    67  ASP67      -0.1239
     71  CA         3.1760   37.9900    2.8280 C.3    67  ASP67       0.1674
     72  C          4.6340   38.4420    2.8040 C.2    67  ASP67       0.2266
     73  O          5.5300   37.6090    2.7020 O.2    67  ASP67      -0.2867
     74  CB         2.7720   37.8620    4.2990 C.3    67  ASP67       0.1410
     75  CG         1.2600   37.6930    4.5010 C.2    67  ASP67       0.3668
     76  OD1        0.4580   38.1060    3.6180 O.co2  67  ASP67      -0.2456
     77  OD2        0.8850   37.1440    5.5690 O.co2  67  ASP67      -0.2456
     78  N          8.4520   39.3510    7.6930 N.3    70  ASP70      -0.1239
     79  CA         8.1530   39.9680    9.0140 C.3    70  ASP70       0.1674
     80  C          9.3810   40.2600    9.8660 C.2    70  ASP70       0.2266
     81  O         10.3220   39.4500    9.9260 O.2    70  ASP70      -0.2867
     82  CB         7.2840   39.0340    9.8380 C.3    70  ASP70       0.1410
     83  CG         5.9420   38.7900    9.2270 C.2    70  ASP70       0.3668
     84  OD1        5.3310   39.7450    8.6770 O.co2  70  ASP70      -0.2456
     85  OD2        5.4960   37.6240    9.3060 O.co2  70  ASP70      -0.2456
     86  N          2.6440   28.0280   12.4460 N.3    97  ASP97      -0.1225
     87  CA         1.3210   28.3420   12.9670 C.3    97  ASP97       0.1805
     88  C          0.2280   27.6530   12.1510 C.2    97  ASP97       0.2597
     89  O          0.5170   26.7750   11.3310 O.2    97  ASP97      -0.2718
     90  CB         1.0880   29.8580   13.0210 C.3    97  ASP97       0.1424
     91  CG         0.9490   30.4720   11.6520 C.2    97  ASP97       0.3668
     92  OD1        1.0270   29.7220   10.6620 O.co2  97  ASP97      -0.2456
     93  OD2        0.7640   31.7040   11.5620 O.co2  97  ASP97      -0.2456
     94  N         -1.0280   28.0420   12.3770 N.am   98  GLU98      -0.1979
     95  CA        -2.1410   27.4020   11.6870 C.3    98  GLU98       0.1602
     96  C         -2.0060   27.4670   10.1470 C.2    98  GLU98       0.2287
     97  O         -2.5380   26.6230    9.4420 O.2    98  GLU98      -0.2864
     98  CB        -3.4830   27.9730   12.1610 C.3    98  GLU98       0.0415
     99  CG        -3.8070   29.3330   11.5930 C.3    98  GLU98       0.1163
    100  CD        -3.1960   30.4970   12.3890 C.2    98  GLU98       0.3649
    101  OE1       -3.4280   31.6610   11.9870 O.co2  98  GLU98      -0.2457
    102  OE2       -2.5030   30.2480   13.4050 O.co2  98  GLU98      -0.2457
    103  N          6.4150   29.8040    9.7440 N.3   102  ASP102     -0.1239
    104  CA         6.3750   31.2420   10.0620 C.3   102  ASP102      0.1674
    105  C          7.6490   31.6970   10.7610 C.2   102  ASP102      0.2266
    106  O          7.7840   31.5620   11.9730 O.2   102  ASP102     -0.2867
    107  CB         5.1820   31.5410   10.9620 C.3   102  ASP102      0.1410
    108  CG         4.9260   33.0290   11.1260 C.2   102  ASP102      0.3668
    109  OD1        5.5440   33.8430   10.3960 O.co2 102  ASP102     -0.2456
    110  OD2        4.0810   33.3790   11.9770 O.co2 102  ASP102     -0.2456
    111  N         10.0790   34.8380   11.8470 N.3   104  LYS104     -0.1245
    112  CA        10.1470   36.2930   12.0360 C.3   104  LYS104      0.1561
    113  C         11.5620   36.7200   12.3910 C.2   104  LYS104      0.2260
    114  O         12.1740   36.1500   13.2890 O.2   104  LYS104     -0.2867
    115  CB         9.1420   36.7500   13.0900 C.3   104  LYS104      0.0271
    116  CG         7.7120   36.2350   12.7490 C.3   104  LYS104      0.0035
    117  CD         6.6450   37.0160   13.4470 C.3   104  LYS104      0.0206
    118  CE         5.2870   36.3000   13.3670 C.3   104  LYS104      0.1093
    119  NZ         4.6980   36.3870   11.9960 N.3   104  LYS104     -0.1314
    120  N         -0.4310   34.6500   22.2830 N.3   141  TYR141     -0.1227
    121  CA        -1.3240   35.7230   21.8350 C.3   141  TYR141      0.1736
    122  C         -2.5890   35.2910   21.0460 C.2   141  TYR141      0.2595
    123  O         -3.6000   36.0230   21.0360 O.2   141  TYR141     -0.2718
    124  CB        -0.5500   36.8510   21.1220 C.3   141  TYR141      0.0548
    125  CG        -0.2370   36.6570   19.6450 C.ar  141  TYR141     -0.0200
    126  CD1       -0.6140   37.6360   18.6970 C.ar  141  TYR141     -0.0009
    127  CD2        0.4840   35.5360   19.1890 C.ar  141  TYR141     -0.0009
    128  CE1       -0.3110   37.4850   17.3230 C.ar  141  TYR141      0.0417
    129  CE2        0.7950   35.3810   17.8400 C.ar  141  TYR141      0.0417
    130  CZ         0.4080   36.3500   16.9080 C.ar  141  TYR141      0.1957
    131  OH         0.7260   36.1890   15.5700 O.3   141  TYR141     -0.2866
    132  N         -2.5380   34.1060   20.4250 N.am  142  LYS142     -0.1980
    133  CA        -3.6560   33.6200   19.6160 C.3   142  LYS142      0.1596
    134  C         -4.5170   32.6280   20.3830 C.2   142  LYS142      0.2287
    135  O         -5.4500   32.0690   19.8140 O.2   142  LYS142     -0.2864
    136  CB        -3.1790   32.9560   18.3140 C.3   142  LYS142      0.0298
    137  CG        -2.8450   33.9040   17.1770 C.3   142  LYS142      0.0038
    138  CD        -2.0350   33.1230   16.1360 C.3   142  LYS142      0.0206
    139  CE        -2.0570   33.7880   14.7820 C.3   142  LYS142      0.1093
    140  NZ        -1.0940   33.1080   13.8500 N.3   142  LYS142     -0.1314
    141  N         -6.6310   28.9700   15.4670 N.3   148  LYS148     -0.1245
    142  CA        -5.3090   29.5940   15.3950 C.3   148  LYS148      0.1561
    143  C         -4.4010   29.0400   16.4680 C.2   148  LYS148      0.2260
    144  O         -4.8380   28.7970   17.5870 O.2   148  LYS148     -0.2867
    145  CB        -5.4330   31.0990   15.5510 C.3   148  LYS148      0.0271
    146  CG        -6.1720   31.7620   14.4190 C.3   148  LYS148      0.0035
    147  CD        -6.1530   33.2410   14.6720 C.3   148  LYS148      0.0206
    148  CE        -6.7460   34.0130   13.5340 C.3   148  LYS148      0.1093
    149  NZ        -6.7120   35.4480   13.9040 N.3   148  LYS148     -0.1314
@<TRIPOS>BOND
     1    65    64    2
     2    64    63    1
     3    70    71    1
     4    73    72    2
     5    72    71    1
     6    71    74    1
     7    62    63    1
     8    63    66    1
     9    76    75   ar
    10    68    67   ar
    11    74    75    1
    12    66    67    1
    13    75    77   ar
    14    67    69   ar
    15    13    12    2
    16    17    16   ar
    17    78    79    1
    18    12    11    1
    19    14    11    1
    20    14    15    1
    21    16    15    1
    22    16    18   ar
    23    84    83   ar
    24    11    10    1
    25    79    82    1
    26    79    80    1
    27    83    85   ar
    28    83    82    1
    29    97    96    2
    30    25    24   ar
    31   103   104    1
    32    80    81    2
    33   104   105    1
    34   104   107    1
    35    96    95    1
    36   109   108   ar
    37    92    91   ar
    38    24    23    1
    39    24    26   ar
    40   105   106    2
    41   107   108    1
    42    23    20    1
    43   108   110   ar
    44    20    19    1
    45    20    21    1
    46    89    88    2
    47    93    91   ar
    48    99    98    1
    49    99   100    1
    50    91    90    1
    51    95    98    1
    52    95    94    1
    53   111   112    1
    54    61    60    1
    55    22    21    2
    56     9     8    1
    57   101   100   ar
    58   119   118    1
    59   112   113    1
    60   112   115    1
    61    88    94   am
    62    88    87    1
    63    21    27   am
    64   100   102   ar
    65   113   114    2
    66    86    87    1
    67    60    59   ar
    68    60    58   ar
    69   116   115    1
    70   116   117    1
    71    59    57   ar
    72    87    90    1
    73    53    52    2
    74    58    56   ar
    75    52    51    1
    76     8     7    1
    77     4     3    2
    78   118   117    1
    79     7     6    1
    80    27    28    1
    81    36    35    1
    82   148   149    1
    83   148   147    1
    84    57    55   ar
    85   140   139    1
    86     3     2    1
    87    56    55   ar
    88    55    54    1
    89   146   147    1
    90   146   145    1
    91    28    31    1
    92    28    29    1
    93    51    54    1
    94    51    50    1
    95    31    32    1
    96    35    37    1
    97    35    34    2
    98   139   138    1
    99     6     5    1
   100    33    32    1
   101    33    34    1
   102     5     2    1
   103     2     1    1
   104   142   141    1
   105   142   145    1
   106   142   143    1
   107   131   130    1
   108    29    30    2
   109    49    48    1
   110   138   137    1
   111   143   144    2
   112    48    46   ar
   113    48    47   ar
   114    46    44   ar
   115   130   128   ar
   116   130   129   ar
   117   137   136    1
   118   128   126   ar
   119    47    45   ar
   120    44    43   ar
   121   129   127   ar
   122   136   133    1
   123    45    43   ar
   124   126   125   ar
   125    43    42    1
   126   127   125   ar
   127   133   134    1
   128   133   132    1
   129   125   124    1
   130    42    39    1
   131   135   134    2
   132   132   122   am
   133   123   122    2
   134   122   121    1
   135   124   121    1
   136    39    38    1
   137    39    40    1
   138   121   120    1
   139    40    41    2
