@<TRIPOS>MOLECULE
tmp/3ej0A00.pdb
 110 106 0 0 0
SMALL
GASTEIGER

@<TRIPOS>ATOM
      1  N          0.3340  -28.4200  -23.8230 N.3    22  ALA22      -0.1231
      2  CA         0.1550  -27.6970  -25.0710 C.3    22  ALA22       0.1694
      3  C         -0.4090  -28.6370  -26.1100 C.2    22  ALA22       0.2591
      4  O          0.0770  -29.7610  -26.2340 O.2    22  ALA22      -0.2718
      5  CB         1.5050  -27.1410  -25.5730 C.3    22  ALA22       0.0304
      6  N         -1.4080  -28.1780  -26.8720 N.am   23  GLN23      -0.1979
      7  CA        -1.9270  -28.9670  -27.9990 C.3    23  GLN23       0.1601
      8  C         -2.6100  -30.2900  -27.6480 C.2    23  GLN23       0.2287
      9  O         -2.8920  -31.1050  -28.5520 O.2    23  GLN23      -0.2864
     10  CB        -0.8290  -29.2370  -29.0360 C.3    23  GLN23       0.0394
     11  CG        -0.2680  -27.9520  -29.6810 C.3    23  GLN23       0.0908
     12  CD        -1.3160  -27.0790  -30.3520 C.2    23  GLN23       0.2608
     13  OE1       -2.3420  -27.5620  -30.8430 O.2    23  GLN23      -0.2717
     14  NE2       -1.0390  -25.7730  -30.4240 N.am   23  GLN23      -0.0878
     15  N         -2.6290  -23.4750  -26.5780 N.3    51  PRO51      -0.2102
     16  CA        -1.4540  -23.2940  -27.4280 C.3    51  PRO51       0.1504
     17  C         -0.1270  -23.4870  -26.6680 C.2    51  PRO51       0.2575
     18  O          0.9070  -23.6500  -27.2990 O.2    51  PRO51      -0.2718
     19  CB        -1.5820  -21.8360  -27.9350 C.3    51  PRO51       0.0282
     20  CG        -2.8040  -21.2320  -27.2010 C.3    51  PRO51       0.0208
     21  CD        -3.2850  -22.2110  -26.1960 C.3    51  PRO51       0.0893
     22  N         -0.1700  -23.4990  -25.3430 N.am   52  VAL52      -0.1980
     23  CA         1.0250  -23.6720  -24.4880 C.3    52  VAL52       0.1595
     24  C          0.6250  -24.4970  -23.2900 C.2    52  VAL52       0.2287
     25  O         -0.5620  -24.6650  -23.0240 O.2    52  VAL52      -0.2864
     26  CB         1.5590  -22.3060  -23.9550 C.3    52  VAL52       0.0276
     27  CG1        1.9990  -21.4150  -25.1030 C.3    52  VAL52       0.0022
     28  CG2        0.4620  -21.6030  -23.2330 C.3    52  VAL52       0.0022
     29  N          5.7170  -22.0570  -21.7380 N.3    73  ILE73      -0.1231
     30  CA         6.1320  -22.3320  -23.1090 C.3    73  ILE73       0.1692
     31  C          7.2980  -23.3500  -23.1690 C.2    73  ILE73       0.2593
     32  O          8.3480  -23.1290  -22.5570 O.2    73  ILE73      -0.2718
     33  CB         6.5660  -21.0060  -23.8120 C.3    73  ILE73       0.0266
     34  CG1        5.3840  -20.0230  -23.8810 C.3    73  ILE73       0.0019
     35  CG2        7.1520  -21.3210  -25.1850 C.3    73  ILE73       0.0020
     36  CD1        5.8010  -18.5550  -24.1040 C.3    73  ILE73       0.0001
     37  N          7.1320  -24.4480  -23.9100 N.am   74  THR74      -0.1940
     38  CA         8.2120  -25.4250  -24.0700 C.3    74  THR74       0.2013
     39  C          8.2750  -25.9520  -25.4890 C.2    74  THR74       0.2484
     40  O          7.2900  -25.8960  -26.2170 O.2    74  THR74      -0.2729
     41  CB         8.0110  -26.6660  -23.1530 C.3    74  THR74       0.1807
     42  OG1        6.7830  -27.3030  -23.5020 O.3    74  THR74      -0.2208
     43  CG2        7.9700  -26.2330  -21.7040 C.3    74  THR74       0.0379
     44  N          9.4400  -26.4700  -25.8930 N.am   75  PRO75      -0.2726
     45  CA         9.5240  -26.9990  -27.2480 C.3    75  PRO75       0.1402
     46  C          8.7600  -28.3040  -27.5180 C.2    75  PRO75       0.2269
     47  O          8.5400  -28.6340  -28.6940 O.2    75  PRO75      -0.2865
     48  CB        11.0350  -27.2010  -27.4740 C.3    75  PRO75       0.0296
     49  CG        11.6680  -27.1540  -26.1320 C.3    75  PRO75       0.0237
     50  CD        10.7390  -26.4410  -25.1950 C.3    75  PRO75       0.0939
     51  N         16.6340  -24.3110  -24.6850 N.3   115  MET115     -0.1230
     52  CA        15.9180  -23.8060  -25.8400 C.3   115  MET115      0.1702
     53  C         15.1520  -22.5090  -25.5350 C.2   115  MET115      0.2593
     54  O         14.8640  -21.7440  -26.4490 O.2   115  MET115     -0.2718
     55  CB        14.9310  -24.8510  -26.3850 C.3   115  MET115      0.0401
     56  CG        15.5580  -26.1920  -26.7990 C.3   115  MET115      0.0596
     57  SD        15.6950  -27.3270  -25.3970 S.3   115  MET115     -0.1393
     58  CE        17.0470  -28.3970  -25.9240 C.3   115  MET115      0.0692
     59  N         14.7640  -22.2860  -24.2830 N.am  116  THR116     -0.1953
     60  CA        13.9870  -21.0680  -23.9390 C.3   116  THR116      0.1897
     61  C         14.7870  -19.9260  -23.2420 C.2   116  THR116      0.2313
     62  O         14.2020  -18.8980  -22.8330 O.2   116  THR116     -0.2863
     63  CB        12.7310  -21.3860  -23.0940 C.3   116  THR116      0.1794
     64  OG1       13.0500  -22.3120  -22.0530 O.3   116  THR116     -0.2208
     65  CG2       11.6130  -21.9830  -23.9540 C.3   116  THR116      0.0378
     66  N         16.7030  -17.7940  -24.2290 N.3   118  ASN118     -0.1225
     67  CA        16.7590  -16.5350  -24.9420 C.3   118  ASN118      0.1785
     68  C         15.5690  -15.6360  -24.6230 C.2   118  ASN118      0.2597
     69  O         15.6170  -14.4250  -24.8560 O.2   118  ASN118     -0.2718
     70  CB        16.8180  -16.7780  -26.4380 C.3   118  ASN118      0.1169
     71  CG        15.5380  -17.4230  -26.9770 C.2   118  ASN118      0.2627
     72  OD1       15.0990  -18.4710  -26.4910 O.2   118  ASN118     -0.2716
     73  ND2       14.9490  -16.8020  -28.0000 N.am  118  ASN118     -0.0877
     74  N         14.4960  -16.2160  -24.1080 N.am  119  LEU119     -0.1980
     75  CA        13.3240  -15.4280  -23.7440 C.3   119  LEU119      0.1596
     76  C         13.4880  -14.7830  -22.3620 C.2   119  LEU119      0.2287
     77  O         13.3680  -15.4470  -21.3380 O.2   119  LEU119     -0.2864
     78  CB        12.0610  -16.3070  -23.7720 C.3   119  LEU119      0.0297
     79  CG        11.8490  -17.1120  -25.0570 C.3   119  LEU119      0.0022
     80  CD1       10.7380  -18.1520  -24.8610 C.3   119  LEU119      0.0001
     81  CD2       11.4710  -16.1860  -26.1970 C.3   119  LEU119      0.0001
     82  N          3.3140  -13.9770  -33.1540 N.3   128  TYR128     -0.1227
     83  CA         2.2460  -14.8430  -33.6400 C.3   128  TYR128      0.1736
     84  C          1.6960  -15.6260  -32.4610 C.2   128  TYR128      0.2595
     85  O          0.5010  -15.8630  -32.3670 O.2   128  TYR128     -0.2718
     86  CB         2.7660  -15.7870  -34.7120 C.3   128  TYR128      0.0548
     87  CG         3.4000  -17.0490  -34.1840 C.ar  128  TYR128     -0.0200
     88  CD1        2.6150  -18.1570  -33.8450 C.ar  128  TYR128     -0.0009
     89  CD2        4.7820  -17.1490  -34.0480 C.ar  128  TYR128     -0.0009
     90  CE1        3.1930  -19.3120  -33.3620 C.ar  128  TYR128      0.0417
     91  CE2        5.3690  -18.2870  -33.5520 C.ar  128  TYR128      0.0417
     92  CZ         4.5610  -19.3730  -33.2230 C.ar  128  TYR128      0.1957
     93  OH         5.1440  -20.5110  -32.7730 O.3   128  TYR128     -0.2866
     94  N          2.5840  -15.9720  -31.5270 N.am  129  LEU129     -0.1980
     95  CA         2.1850  -16.7660  -30.3810 C.3   129  LEU129      0.1596
     96  C          1.4370  -15.9480  -29.3610 C.2   129  LEU129      0.2287
     97  O          0.4070  -16.3860  -28.8510 O.2   129  LEU129     -0.2864
     98  CB         3.3990  -17.4560  -29.7610 C.3   129  LEU129      0.0297
     99  CG         3.0950  -18.3950  -28.5890 C.3   129  LEU129      0.0022
    100  CD1        2.1330  -19.5140  -29.0240 C.3   129  LEU129      0.0001
    101  CD2        4.4000  -18.9930  -28.1300 C.3   129  LEU129      0.0001
    102  N         -1.8530  -15.6240  -30.7780 N.3   132  GLN132     -0.1245
    103  CA        -2.5380  -16.9150  -30.7010 C.3   132  GLN132      0.1566
    104  C         -3.0990  -17.1640  -29.2970 C.2   132  GLN132      0.2260
    105  O         -4.2060  -17.6730  -29.1410 O.2   132  GLN132     -0.2867
    106  CB        -1.5590  -18.0270  -31.0910 C.3   132  GLN132      0.0367
    107  CG        -2.2210  -19.2030  -31.7390 C.3   132  GLN132      0.0905
    108  CD        -1.2200  -20.2230  -32.2120 C.2   132  GLN132      0.2608
    109  OE1       -0.7250  -21.0260  -31.4110 O.2   132  GLN132     -0.2717
    110  NE2       -0.9050  -20.2040  -33.5150 N.am  132  GLN132     -0.0878
@<TRIPOS>BOND
     1    86    87    1
     2    86    83    1
     3    87    89   ar
     4    87    88   ar
     5    89    91   ar
     6    88    90   ar
     7    83    82    1
     8    83    84    1
     9    91    92   ar
    10   110   108   am
    11    90    92   ar
    12    92    93    1
    13    84    85    2
    14    84    94   am
    15   108   107    1
    16   108   109    2
    17   107   106    1
    18    94    95    1
    19   106   103    1
    20    13    12    2
    21   102   103    1
    22   103   104    1
    23    14    12   am
    24    95    98    1
    25    95    96    1
    26    12    11    1
    27    98    99    1
    28    11    10    1
    29    96    97    2
    30   104   105    2
    31    10     7    1
    32   100    99    1
    33    47    46    2
    34    99   101    1
    35     9     8    2
    36    73    71   am
    37     7     8    1
    38     7     6    1
    39    19    16    1
    40    19    20    1
    41    46    45    1
    42    48    45    1
    43    48    49    1
    44    16    17    1
    45    16    15    1
    46    18    17    2
    47    45    44    1
    48    20    21    1
    49    71    72    2
    50    71    70    1
    51     6     3   am
    52    56    55    1
    53    56    57    1
    54    17    22   am
    55    15    21    1
    56    54    53    2
    57    70    67    1
    58    55    52    1
    59     4     3    2
    60    40    39    2
    61    81    79    1
    62    49    50    1
    63     3     2    1
    64    58    57    1
    65    44    39   am
    66    44    50    1
    67    52    53    1
    68    52    51    1
    69     5     2    1
    70    53    59   am
    71    39    38    1
    72    22    23    1
    73    35    33    1
    74    27    26    1
    75     2     1    1
    76    79    80    1
    77    79    78    1
    78    67    68    1
    79    67    66    1
    80    69    68    2
    81    68    74   am
    82    23    26    1
    83    23    24    1
    84    59    60    1
    85    74    75    1
    86    36    34    1
    87    38    37    1
    88    38    41    1
    89    26    28    1
    90    65    63    1
    91    60    61    1
    92    60    63    1
    93    37    31   am
    94    34    33    1
    95    33    30    1
    96    78    75    1
    97    75    76    1
    98    42    41    1
    99    24    25    2
   100    61    62    2
   101    31    30    1
   102    31    32    2
   103    41    43    1
   104    30    29    1
   105    63    64    1
   106    76    77    2
