@<TRIPOS>MOLECULE
tmp/3ej1A00.pdb
 163 154 0 0 0
SMALL
GASTEIGER

@<TRIPOS>ATOM
      1  N         -5.8790  201.7210  113.7640 N.3    10  ILE10      -0.1231
      2  CA        -5.9240  203.1930  113.7760 C.3    10  ILE10       0.1692
      3  C         -6.9080  203.7260  114.8110 C.2    10  ILE10       0.2593
      4  O         -6.9880  204.9340  115.0590 O.2    10  ILE10      -0.2718
      5  CB        -6.2890  203.7780  112.3900 C.3    10  ILE10       0.0266
      6  CG1       -7.5780  203.1400  111.8560 C.3    10  ILE10       0.0019
      7  CG2       -5.1130  203.6190  111.4130 C.3    10  ILE10       0.0020
      8  CD1       -8.3670  204.0260  110.9210 C.3    10  ILE10       0.0001
      9  N         -7.6590  202.8060  115.4040 N.am   11  GLY11      -0.1942
     10  CA        -8.6650  203.1460  116.3960 C.3    11  GLY11       0.2014
     11  C         -8.8600  202.0220  117.3910 C.2    11  GLY11       0.2638
     12  O         -8.6180  200.8340  117.0930 O.2    11  GLY11      -0.2714
     13  N         -9.2870  202.4080  118.5890 N.am   12  GLU12      -0.1977
     14  CA        -9.6510  201.4450  119.6200 C.3    12  GLU12       0.1602
     15  C        -11.1540  201.5640  119.9230 C.2    12  GLU12       0.2287
     16  O        -11.9300  202.1270  119.1120 O.2    12  GLU12      -0.2864
     17  CB        -8.7790  201.6520  120.8770 C.3    12  GLU12       0.0415
     18  CG        -8.7260  203.0830  121.2880 C.3    12  GLU12       0.1163
     19  CD        -7.6800  203.3090  122.3290 C.2    12  GLU12       0.3649
     20  OE1       -7.1250  202.2840  122.8180 O.co2  12  GLU12      -0.2457
     21  OE2       -7.4400  204.4950  122.6870 O.co2  12  GLU12      -0.2457
     22  N        -16.9170  199.3680  121.2080 N.3    15  TYR15      -0.1241
     23  CA       -17.7050  198.9940  120.0150 C.3    15  TYR15       0.1605
     24  C        -16.9760  197.9930  119.1040 C.2    15  TYR15       0.2264
     25  O        -17.6070  197.1270  118.4950 O.2    15  TYR15      -0.2867
     26  CB       -18.1010  200.2400  119.2120 C.3    15  TYR15       0.0534
     27  CG       -18.5290  201.4160  120.0590 C.ar   15  TYR15      -0.0201
     28  CD1      -19.7680  201.4200  120.7060 C.ar   15  TYR15      -0.0009
     29  CD2      -17.7090  202.5350  120.1990 C.ar   15  TYR15      -0.0009
     30  CE1      -20.1820  202.5120  121.4640 C.ar   15  TYR15       0.0417
     31  CE2      -18.1110  203.6310  120.9510 C.ar   15  TYR15       0.0417
     32  CZ       -19.3500  203.6170  121.5770 C.ar   15  TYR15       0.1957
     33  OH       -19.7730  204.7150  122.2820 O.3    15  TYR15      -0.2866
     34  N        -10.8410  199.2890  115.0390 N.3    18  VAL18      -0.1245
     35  CA       -10.8500  199.9140  113.7060 C.3    18  VAL18       0.1561
     36  C         -9.4680  199.8680  113.0270 C.2    18  VAL18       0.2260
     37  O         -8.4830  200.4020  113.5520 O.2    18  VAL18      -0.2867
     38  CB       -11.4330  201.3540  113.7290 C.3    18  VAL18       0.0252
     39  CG1      -11.3650  201.9960  112.3500 C.3    18  VAL18       0.0019
     40  CG2      -12.8730  201.3350  114.2070 C.3    18  VAL18       0.0019
     41  N        -11.3780  202.5620  106.2270 N.3    31  ALA31      -0.1245
     42  CA       -11.3440  202.1750  107.6290 C.3    31  ALA31       0.1562
     43  C        -12.3090  201.0120  107.8370 C.2    31  ALA31       0.2260
     44  O        -13.5020  201.1440  107.5690 O.2    31  ALA31      -0.2867
     45  CB       -11.7280  203.3400  108.5020 C.3    31  ALA31       0.0290
     46  N        -14.2170  198.4160  110.3960 N.3    33  LYS33      -0.1245
     47  CA       -14.6510  198.3110  111.7830 C.3    33  LYS33       0.1561
     48  C        -15.0400  196.8620  112.0920 C.2    33  LYS33       0.2260
     49  O        -16.0610  196.3800  111.6200 O.2    33  LYS33      -0.2867
     50  CB       -15.8180  199.2580  112.0360 C.3    33  LYS33       0.0271
     51  CG       -16.0680  199.5730  113.4920 C.3    33  LYS33       0.0035
     52  CD       -17.1360  200.6490  113.6410 C.3    33  LYS33       0.0206
     53  CE       -17.0990  201.2680  115.0260 C.3    33  LYS33       0.1093
     54  NZ       -18.2000  202.2440  115.2530 N.3    33  LYS33      -0.1314
     55  N        -26.0370  201.6060  114.1030 N.3    48  GLU48      -0.1245
     56  CA       -25.0160  202.3330  113.3530 C.3    48  GLU48       0.1567
     57  C        -25.1580  202.1670  111.8450 C.2    48  GLU48       0.2260
     58  O        -25.0820  203.1460  111.1050 O.2    48  GLU48      -0.2867
     59  CB       -23.5960  201.9750  113.7890 C.3    48  GLU48       0.0388
     60  CG       -22.5650  202.8360  113.0650 C.3    48  GLU48       0.1160
     61  CD       -21.1420  202.5940  113.4990 C.2    48  GLU48       0.3649
     62  OE1      -20.8320  201.4870  113.9940 O.co2  48  GLU48      -0.2457
     63  OE2      -20.3270  203.5240  113.3290 O.co2  48  GLU48      -0.2457
     64  N        -19.4650  210.6180  108.3160 N.3    61  VAL61      -0.1245
     65  CA       -18.6550  209.5310  107.7680 C.3    61  VAL61       0.1561
     66  C        -19.4370  208.7020  106.7490 C.2    61  VAL61       0.2260
     67  O        -20.6040  208.3870  106.9700 O.2    61  VAL61      -0.2867
     68  CB       -18.1880  208.5920  108.9010 C.3    61  VAL61       0.0252
     69  CG1      -19.3650  207.8850  109.5360 C.3    61  VAL61       0.0019
     70  CG2      -17.2380  207.5690  108.3630 C.3    61  VAL61       0.0019
     71  N        -15.7180  201.7860  106.0950 N.3    77  PHE77      -0.1227
     72  CA       -15.8790  203.2290  106.0020 C.3    77  PHE77       0.1736
     73  C        -14.8830  203.8230  105.0230 C.2    77  PHE77       0.2595
     74  O        -13.8310  203.2470  104.7740 O.2    77  PHE77      -0.2718
     75  CB       -15.6640  203.8780  107.3730 C.3    77  PHE77       0.0547
     76  CG       -16.6850  203.4860  108.4040 C.ar   77  PHE77      -0.0202
     77  CD1      -17.8640  204.2070  108.5410 C.ar   77  PHE77      -0.0042
     78  CD2      -16.4630  202.4000  109.2440 C.ar   77  PHE77      -0.0042
     79  CE1      -18.8060  203.8530  109.4910 C.ar   77  PHE77      -0.0003
     80  CE2      -17.4040  202.0380  110.1950 C.ar   77  PHE77      -0.0003
     81  CZ       -18.5770  202.7680  110.3210 C.ar   77  PHE77      -0.0000
     82  N        -15.2190  204.9810  104.4700 N.am   78  GLU78      -0.1979
     83  CA       -14.2280  205.8350  103.8380 C.3    78  GLU78       0.1602
     84  C        -13.1710  206.1560  104.8910 C.2    78  GLU78       0.2287
     85  O        -13.5050  206.3350  106.0640 O.2    78  GLU78      -0.2864
     86  CB       -14.8760  207.1380  103.3730 C.3    78  GLU78       0.0415
     87  CG       -15.4290  208.0140  104.5250 C.3    78  GLU78       0.1163
     88  CD       -15.6080  209.4760  104.1470 C.2    78  GLU78       0.3649
     89  OE1      -14.9490  209.9450  103.1890 O.co2  78  GLU78      -0.2457
     90  OE2      -16.4080  210.1580  104.8200 O.co2  78  GLU78      -0.2457
     91  N        -10.5490  208.2490  107.0750 N.3    80  LEU80      -0.1231
     92  CA       -10.0880  209.5700  107.5180 C.3    80  LEU80       0.1693
     93  C         -8.8840  209.4360  108.4530 C.2    80  LEU80       0.2592
     94  O         -8.7800  208.4580  109.1930 O.2    80  LEU80      -0.2718
     95  CB       -11.2090  210.3940  108.1440 C.3    80  LEU80       0.0284
     96  CG       -12.3130  210.7300  107.1440 C.3    80  LEU80       0.0019
     97  CD1      -13.3790  211.5580  107.8270 C.3    80  LEU80       0.0001
     98  CD2      -11.7690  211.4680  105.9410 C.3    80  LEU80       0.0001
     99  N         -7.9850  210.4180  108.4100 N.am   81  HIS81      -0.1962
    100  CA        -6.6090  210.2590  108.9090 C.3    81  HIS81       0.1787
    101  C         -6.4870  210.1400  110.4330 C.2    81  HIS81       0.2620
    102  O         -5.8760  209.1930  110.9360 O.2    81  HIS81      -0.2715
    103  CB        -5.7020  211.3760  108.3640 C.3    81  HIS81       0.0785
    104  CG        -5.8060  211.5690  106.8770 C.ar   81  HIS81       0.0821
    105  ND1       -6.9320  212.0880  106.2640 N.ar   81  HIS81      -0.2267
    106  CD2       -4.9270  211.3050  105.8770 C.ar   81  HIS81       0.1154
    107  CE1       -6.7400  212.1370  104.9550 C.ar   81  HIS81       0.1986
    108  NE2       -5.5310  211.6680  104.6940 N.ar   81  HIS81      -0.2212
    109  N         -7.0610  211.0990  111.1560 N.am   82  GLN82      -0.1963
    110  CA        -7.0590  211.0750  112.6130 C.3    82  GLN82       0.1733
    111  C         -8.3120  211.7450  113.1590 C.2    82  GLN82       0.2616
    112  O         -9.0860  212.3120  112.3960 O.2    82  GLN82      -0.2715
    113  CB        -5.7870  211.7140  113.1760 C.3    82  GLN82       0.0408
    114  CG        -5.5960  213.1980  112.8680 C.3    82  GLN82       0.0908
    115  CD        -4.4120  213.8140  113.6310 C.2    82  GLN82       0.2608
    116  OE1       -4.3330  215.0350  113.8080 O.2    82  GLN82      -0.2717
    117  NE2       -3.4940  212.9650  114.0900 N.am   82  GLN82      -0.0878
    118  N         -8.5230  211.6550  114.4700 N.am   83  ASP83      -0.1971
    119  CA        -9.6730  212.2990  115.1090 C.3    83  ASP83       0.1709
    120  C         -9.3110  213.6410  115.7560 C.2    83  ASP83       0.2293
    121  O         -8.1340  213.9940  115.8550 O.2    83  ASP83      -0.2864
    122  CB       -10.3620  211.3610  116.1070 C.3    83  ASP83       0.1436
    123  CG        -9.4770  210.9860  117.2780 C.2    83  ASP83       0.3671
    124  OD1       -9.0320  211.8830  118.0160 O.co2  83  ASP83      -0.2456
    125  OD2       -9.2460  209.7810  117.4760 O.co2  83  ASP83      -0.2456
    126  N        -13.1830  212.4030  119.9630 N.3   128  GLN128     -0.1231
    127  CA       -12.7740  211.1170  119.3730 C.3   128  GLN128      0.1698
    128  C        -13.7650  210.5540  118.3490 C.2   128  GLN128      0.2592
    129  O        -13.4210  209.6630  117.5760 O.2   128  GLN128     -0.2718
    130  CB       -12.5440  210.0850  120.4640 C.3   128  GLN128      0.0381
    131  CG       -12.0450  210.6950  121.7560 C.3   128  GLN128      0.0905
    132  CD       -12.1750  209.7480  122.9320 C.2   128  GLN128      0.2608
    133  OE1      -12.3390  210.1900  124.0740 O.2   128  GLN128     -0.2717
    134  NE2      -12.1110  208.4310  122.6610 N.am  128  GLN128     -0.0878
    135  N        -14.9910  211.0600  118.3480 N.am  129  ASN129     -0.1974
    136  CA       -15.9750  210.6230  117.3800 C.3   129  ASN129      0.1688
    137  C        -16.0580  211.5900  116.2080 C.2   129  ASN129      0.2292
    138  O        -17.0190  211.5740  115.4420 O.2   129  ASN129     -0.2864
    139  CB       -17.3390  210.4820  118.0490 C.3   129  ASN129      0.1181
    140  CG       -17.3560  209.4010  119.1130 C.2   129  ASN129      0.2629
    141  OD1      -16.7980  208.3130  118.9250 O.2   129  ASN129     -0.2716
    142  ND2      -18.0060  209.6880  120.2360 N.am  129  ASN129     -0.0877
    143  N        -13.9140  213.1540  112.9350 N.3   131  LEU131     -0.1245
    144  CA       -12.7520  212.8040  112.1190 C.3   131  LEU131      0.1561
    145  C        -12.3680  213.8980  111.1430 C.2   131  LEU131      0.2260
    146  O        -13.2170  214.5290  110.5160 O.2   131  LEU131     -0.2867
    147  CB       -12.9750  211.4780  111.3940 C.3   131  LEU131      0.0270
    148  CG       -13.5880  210.3940  112.2810 C.3   131  LEU131      0.0019
    149  CD1      -13.9930  209.2530  111.4230 C.3   131  LEU131      0.0001
    150  CD2      -12.6480  209.9260  113.3860 C.3   131  LEU131      0.0001
    151  N        -18.5680  210.8610  113.4210 N.3   141  ALA141     -0.1231
    152  CA       -18.3590  209.4340  113.3880 C.3   141  ALA141      0.1694
    153  C        -19.0120  208.7570  114.5740 C.2   141  ALA141      0.2592
    154  O        -19.7580  209.3710  115.3200 O.2   141  ALA141     -0.2718
    155  CB       -16.8860  209.1240  113.3420 C.3   141  ALA141      0.0304
    156  N        -18.7020  207.4760  114.7220 N.am  142  ASP142     -0.1974
    157  CA       -19.3110  206.5790  115.6980 C.3   142  ASP142      0.1709
    158  C        -20.7900  206.8130  116.0070 C.2   142  ASP142      0.2293
    159  O        -21.1490  207.7210  116.7630 O.2   142  ASP142     -0.2864
    160  CB       -18.4970  206.5190  116.9810 C.3   142  ASP142      0.1436
    161  CG       -18.7930  205.2760  117.7730 C.2   142  ASP142      0.3671
    162  OD1      -19.9840  205.0530  118.1010 O.co2 142  ASP142     -0.2456
    163  OD2      -17.8460  204.5080  118.0480 O.co2 142  ASP142     -0.2456
@<TRIPOS>BOND
     1    89    88   ar
     2    86    83    1
     3    86    87    1
     4    83    82    1
     5    83    84    1
     6    88    87    1
     7    88    90   ar
     8    82    73   am
     9   108   107   ar
    10   108   106   ar
    11    74    73    2
    12    84    85    2
    13   107   105   ar
    14    73    72    1
    15   106   104   ar
    16    98    96    1
    17    72    71    1
    18    72    75    1
    19    41    42    1
    20   105   104   ar
    21    66    67    2
    22    66    65    1
    23   104   103    1
    24    91    92    1
    25    96    97    1
    26    96    95    1
    27    75    76    1
    28    92    95    1
    29    92    93    1
    30    44    43    2
    31    42    43    1
    32    42    45    1
    33    65    64    1
    34    65    68    1
    35    70    68    1
    36   103   100    1
    37    76    77   ar
    38    76    78   ar
    39    99    93   am
    40    99   100    1
    41    93    94    2
    42    77    79   ar
    43    68    69    1
    44   100   101    1
    45    78    80   ar
    46    79    81   ar
    47    80    81   ar
    48    46    47    1
    49   101   102    2
    50   101   109   am
    51   146   145    2
    52     8     6    1
    53    58    57    2
    54   145   144    1
    55   109   110    1
    56   147   144    1
    57   147   148    1
    58     7     5    1
    59   149   148    1
    60    49    48    2
    61    47    50    1
    62    47    48    1
    63    57    56    1
    64     6     5    1
    65    50    51    1
    66   144   143    1
    67   148   150    1
    68    39    38    1
    69     5     2    1
    70   112   111    2
    71   110   111    1
    72   110   113    1
    73   114   113    1
    74   114   115    1
    75    36    37    2
    76    36    35    1
    77    60    61    1
    78    60    59    1
    79   111   118   am
    80    63    61   ar
    81   155   152    1
    82    56    59    1
    83    56    55    1
    84   152   151    1
    85   152   153    1
    86    51    52    1
    87    61    62   ar
    88   115   116    2
    89   115   117   am
    90    52    53    1
    91    35    38    1
    92    35    34    1
    93    38    40    1
    94     1     2    1
    95     2     3    1
    96   118   119    1
    97   153   156   am
    98   153   154    2
    99   156   157    1
   100     3     4    2
   101     3     9   am
   102    53    54    1
   103   119   120    1
   104   119   122    1
   105     9    10    1
   106   138   137    2
   107   157   158    1
   108   157   160    1
   109   120   121    2
   110   158   159    2
   111   122   123    1
   112   137   136    1
   113    10    11    1
   114   160   161    1
   115    12    11    2
   116   123   125   ar
   117   123   124   ar
   118   136   139    1
   119   136   135    1
   120    11    13   am
   121   129   128    2
   122   161   163   ar
   123   161   162   ar
   124   139   140    1
   125   135   128   am
   126   128   127    1
   127    25    24    2
   128    13    14    1
   129   141   140    2
   130    24    23    1
   131    16    15    2
   132   140   142   am
   133    26    23    1
   134    26    27    1
   135   127   126    1
   136   127   130    1
   137    14    15    1
   138    14    17    1
   139    23    22    1
   140    27    29   ar
   141    27    28   ar
   142    29    31   ar
   143   130   131    1
   144    28    30   ar
   145    17    18    1
   146    31    32   ar
   147    18    19    1
   148    30    32   ar
   149    32    33    1
   150   131   132    1
   151    19    21   ar
   152    19    20   ar
   153   134   132   am
   154   132   133    2
