@<TRIPOS>MOLECULE
tmp/3ej5A00.pdb
 139 134 0 0 0
SMALL
GASTEIGER

@<TRIPOS>ATOM
      1  N         -5.0850    8.2870   13.3900 N.3    74  ASN74      -0.1240
      2  CA        -4.9270    8.0480   11.9470 C.3    74  ASN74       0.1653
      3  C         -4.7630    6.5930   11.5230 C.2    74  ASN74       0.2266
      4  O         -4.4840    6.3350   10.3610 O.2    74  ASN74      -0.2867
      5  CB        -3.7570    8.8950   11.3790 C.3    74  ASN74       0.1155
      6  CG        -2.4750    8.7520   12.1870 C.2    74  ASN74       0.2627
      7  OD1       -2.3430    7.8280   12.9850 O.2    74  ASN74      -0.2716
      8  ND2       -1.5220    9.6750   11.9870 N.am   74  ASN74      -0.0877
      9  N         -2.3170    4.9130   11.8410 N.3    76  TYR76      -0.1227
     10  CA        -0.9440    4.8520   11.3140 C.3    76  TYR76       0.1736
     11  C         -0.1120    3.9040   12.1630 C.2    76  TYR76       0.2595
     12  O         -0.1870    3.9470   13.3890 O.2    76  TYR76      -0.2718
     13  CB        -0.3250    6.2790   11.3300 C.3    76  TYR76       0.0548
     14  CG         0.9710    6.4940   10.5660 C.ar   76  TYR76      -0.0200
     15  CD1        0.9600    6.7840    9.1960 C.ar   76  TYR76      -0.0009
     16  CD2        2.2130    6.4550   11.2150 C.ar   76  TYR76      -0.0009
     17  CE1        2.1580    7.0030    8.4810 C.ar   76  TYR76       0.0417
     18  CE2        3.4250    6.6750   10.5080 C.ar   76  TYR76       0.0417
     19  CZ         3.3820    6.9400    9.1470 C.ar   76  TYR76       0.1957
     20  OH         4.5470    7.1650    8.4410 O.3    76  TYR76      -0.2866
     21  N          0.6670    3.0390   11.5170 N.am   77  VAL77      -0.1980
     22  CA         1.5490    2.1170   12.2360 C.3    77  VAL77       0.1595
     23  C          2.8330    2.8600   12.5910 C.2    77  VAL77       0.2287
     24  O          3.6180    3.2090   11.7080 O.2    77  VAL77      -0.2864
     25  CB         1.8700    0.8530   11.4140 C.3    77  VAL77       0.0276
     26  CG1        2.8380   -0.0460   12.1780 C.3    77  VAL77       0.0022
     27  CG2        0.5870    0.0900   11.0720 C.3    77  VAL77       0.0022
     28  N          9.4030    4.0060   13.9350 N.3    89  PHE89      -0.1241
     29  CA         9.7770    4.9100   12.8240 C.3    89  PHE89       0.1605
     30  C         10.1650    6.2650   13.3950 C.2    89  PHE89       0.2264
     31  O          9.7380    6.6290   14.4960 O.2    89  PHE89      -0.2867
     32  CB         8.6440    5.0720   11.7940 C.3    89  PHE89       0.0534
     33  CG         8.2130    3.7720   11.1710 C.ar   89  PHE89      -0.0203
     34  CD1        9.1040    3.0280   10.4030 C.ar   89  PHE89      -0.0042
     35  CD2        6.9360    3.2710   11.3770 C.ar   89  PHE89      -0.0042
     36  CE1        8.7250    1.8100    9.8350 C.ar   89  PHE89      -0.0003
     37  CE2        6.5480    2.0360   10.8140 C.ar   89  PHE89      -0.0003
     38  CZ         7.4450    1.3110   10.0540 C.ar   89  PHE89      -0.0000
     39  N          7.4920   12.4400   13.2830 N.3    92  ASP92      -0.1239
     40  CA         7.3420   13.6750   12.4980 C.3    92  ASP92       0.1674
     41  C          7.6230   14.9290   13.2920 C.2    92  ASP92       0.2266
     42  O          7.9140   15.9620   12.7130 O.2    92  ASP92      -0.2867
     43  CB         5.9130   13.7900   11.9540 C.3    92  ASP92       0.1410
     44  CG         5.6390   12.8210   10.8390 C.2    92  ASP92       0.3668
     45  OD1        6.5850   12.5000   10.0940 O.co2  92  ASP92      -0.2456
     46  OD2        4.4860   12.3770   10.7070 O.co2  92  ASP92      -0.2456
     47  N          8.1110    6.2360    8.4880 N.3   117  GLY117     -0.1210
     48  CA         7.3380    5.1010    7.9950 C.3   117  GLY117      0.1956
     49  C          6.3220    5.3750    6.8860 C.2   117  GLY117      0.2612
     50  O          5.4600    4.5300    6.6110 O.2   117  GLY117     -0.2717
     51  N          6.4040    6.5510    6.2610 N.am  118  ASN118     -0.1960
     52  CA         5.6430    6.8360    5.0320 C.3   118  ASN118      0.1819
     53  C          5.9420    5.8040    3.9300 C.2   118  ASN118      0.2621
     54  O          7.0460    5.2300    3.8680 O.2   118  ASN118     -0.2715
     55  CB         5.9120    8.2660    4.5210 C.3   118  ASN118      0.1195
     56  CG         7.3600    8.7570    4.7960 C.2   118  ASN118      0.2630
     57  OD1        7.8660    8.6590    5.9250 O.2   118  ASN118     -0.2716
     58  ND2        8.0040    9.3250    3.7730 N.am  118  ASN118     -0.0877
     59  N          4.9600    5.5620    3.0640 N.am  119  TYR119     -0.1974
     60  CA         5.1200    4.5970    1.9780 C.3   119  TYR119      0.1639
     61  C          6.3660    4.8510    1.1490 C.2   119  TYR119      0.2290
     62  O          7.1130    3.9070    0.8760 O.2   119  TYR119     -0.2864
     63  CB         3.8980    4.5700    1.0400 C.3   119  TYR119      0.0560
     64  CG         2.6910    3.8420    1.5860 C.ar  119  TYR119     -0.0198
     65  CD1        2.8250    2.6100    2.2570 C.ar  119  TYR119     -0.0009
     66  CD2        1.4000    4.3540    1.3990 C.ar  119  TYR119     -0.0009
     67  CE1        1.7050    1.9310    2.7690 C.ar  119  TYR119      0.0417
     68  CE2        0.2770    3.6750    1.9100 C.ar  119  TYR119      0.0417
     69  CZ         0.4410    2.4680    2.5970 C.ar  119  TYR119      0.1957
     70  OH        -0.6630    1.7810    3.0800 O.3   119  TYR119     -0.2866
     71  N          0.8310   -2.7410    6.8650 N.3   168  ILE168     -0.1245
     72  CA         0.1440   -1.4460    6.8930 C.3   168  ILE168      0.1561
     73  C         -1.1220   -1.5020    6.0530 C.2   168  ILE168      0.2260
     74  O         -2.1380   -0.9380    6.4420 O.2   168  ILE168     -0.2867
     75  CB         1.0420   -0.2820    6.3930 C.3   168  ILE168      0.0252
     76  CG1        2.1940   -0.0170    7.3670 C.3   168  ILE168      0.0019
     77  CG2        0.2390    0.9750    6.2490 C.3   168  ILE168      0.0019
     78  CD1        3.3850    0.7960    6.7580 C.3   168  ILE168      0.0001
     79  N         -4.0020   -1.2850    8.6270 N.3   172  SER172     -0.1202
     80  CA        -4.4110    0.1190    8.6960 C.3   172  SER172      0.2020
     81  C         -5.2600    0.5600    7.4920 C.2   172  SER172      0.2618
     82  O         -6.3000    1.2000    7.6740 O.2   172  SER172     -0.2717
     83  CB        -3.2060    1.0290    8.8610 C.3   172  SER172      0.2103
     84  OG        -2.4190    0.6090    9.9570 O.3   172  SER172     -0.2182
     85  N         -4.8560    0.2070    6.2720 N.am  173  GLU173     -0.1979
     86  CA        -5.6730    0.5660    5.1100 C.3   173  GLU173      0.1602
     87  C         -6.9980   -0.2110    5.0670 C.2   173  GLU173      0.2287
     88  O         -8.0260    0.3410    4.6340 O.2   173  GLU173     -0.2864
     89  CB        -4.9160    0.3840    3.7950 C.3   173  GLU173      0.0415
     90  CG        -3.6020    1.1120    3.7250 C.3   173  GLU173      0.1163
     91  CD        -3.7270    2.6150    3.5780 C.2   173  GLU173      0.3649
     92  OE1       -4.8100    3.2040    3.8280 O.co2 173  GLU173     -0.2457
     93  OE2       -2.7060    3.2180    3.1970 O.co2 173  GLU173     -0.2457
     94  N         -9.2490    1.4060    7.3010 N.3   176  ARG176     -0.1245
     95  CA        -9.6360    2.7200    6.7700 C.3   176  ARG176      0.1563
     96  C        -10.7480    2.6310    5.7450 C.2   176  ARG176      0.2260
     97  O        -11.6020    3.5120    5.6880 O.2   176  ARG176     -0.2867
     98  CB        -8.4350    3.4330    6.1350 C.3   176  ARG176      0.0307
     99  CG        -7.5320    4.1470    7.1270 C.3   176  ARG176      0.0489
    100  CD        -6.3130    4.6890    6.4220 C.3   176  ARG176      0.2205
    101  NE        -5.3290    5.2690    7.3330 N.pl3 176  ARG176     -0.0865
    102  CZ        -4.0470    4.8950    7.3990 C.cat 176  ARG176      0.5346
    103  NH1       -3.5680    3.9430    6.5970 N.pl3 176  ARG176      0.1354
    104  NH2       -3.2290    5.4850    8.2620 N.pl3 176  ARG176      0.1354
    105  N         -5.6010    4.5360   -1.0780 N.3   204  GLU204     -0.1231
    106  CA        -4.5910    4.6870   -0.0380 C.3   204  GLU204      0.1699
    107  C         -3.9820    6.0590   -0.0930 C.2   204  GLU204      0.2592
    108  O         -3.8260    6.7120    0.9290 O.2   204  GLU204     -0.2718
    109  CB        -3.4720    3.6510   -0.1960 C.3   204  GLU204      0.0402
    110  CG        -3.8880    2.2040    0.0950 C.3   204  GLU204      0.1161
    111  CD        -2.8110    1.1870   -0.2760 C.2   204  GLU204      0.3649
    112  OE1       -1.7180    1.6060   -0.7080 O.co2 204  GLU204     -0.2457
    113  OE2       -3.0530   -0.0330   -0.1330 O.co2 204  GLU204     -0.2457
    114  N         -3.6450    6.5000   -1.2960 N.am  205  ASN205     -0.1974
    115  CA        -2.9840    7.7970   -1.4910 C.3   205  ASN205      0.1688
    116  C         -3.8710    8.9960   -1.1940 C.2   205  ASN205      0.2292
    117  O         -3.3800   10.0630   -0.8510 O.2   205  ASN205     -0.2864
    118  CB        -2.4620    7.9210   -2.9180 C.3   205  ASN205      0.1181
    119  CG        -1.3200    6.9970   -3.1940 C.2   205  ASN205      0.2629
    120  OD1       -0.6830    6.4800   -2.2690 O.2   205  ASN205     -0.2716
    121  ND2       -1.0460    6.7650   -4.4720 N.am  205  ASN205     -0.0877
    122  N         -6.6550    9.1690    0.9880 N.3   207  TRP207     -0.1227
    123  CA        -7.4550    9.0810    2.2110 C.3   207  TRP207      0.1737
    124  C         -7.5590   10.4160    2.9400 C.2   207  TRP207      0.2596
    125  O         -8.6420   10.8040    3.4080 O.2   207  TRP207     -0.2718
    126  CB        -6.8570    8.0510    3.1490 C.3   207  TRP207      0.0564
    127  CG        -7.6370    7.8470    4.4180 C.ar  207  TRP207      0.0003
    128  CD1       -8.9140    7.3950    4.5200 C.ar  207  TRP207      0.0946
    129  CD2       -7.1810    8.0580    5.7640 C.ar  207  TRP207      0.0152
    130  NE1       -9.2910    7.3120    5.8390 N.ar  207  TRP207     -0.2442
    131  CE2       -8.2490    7.7110    6.6260 C.ar  207  TRP207      0.0810
    132  CE3       -5.9750    8.5080    6.3260 C.ar  207  TRP207      0.0012
    133  CZ2       -8.1530    7.7950    8.0200 C.ar  207  TRP207      0.0191
    134  CZ3       -5.8740    8.5940    7.7100 C.ar  207  TRP207      0.0001
    135  CH2       -6.9590    8.2410    8.5430 C.ar  207  TRP207      0.0015
    136  N         -6.4290   11.1060    3.0460 N.am  208  GLY208     -0.1957
    137  CA        -6.3910   12.4210    3.6730 C.3   208  GLY208      0.1869
    138  C         -7.2620   13.3910    2.9130 C.2   208  GLY208      0.2309
    139  O         -8.0910   14.0910    3.4970 O.2   208  GLY208     -0.2863
@<TRIPOS>BOND
     1   121   119   am
     2   119   118    1
     3   119   120    2
     4   118   115    1
     5   115   114    1
     6   115   116    1
     7   114   107   am
     8   116   117    2
     9   105   106    1
    10   112   111   ar
    11   111   113   ar
    12   111   110    1
    13   109   106    1
    14   109   110    1
    15   107   106    1
    16   107   108    2
    17    62    61    2
    18   122   123    1
    19    63    64    1
    20    63    60    1
    21    61    60    1
    22    66    64   ar
    23    66    68   ar
    24    64    65   ar
    25    68    69   ar
    26    60    59    1
    27   123   124    1
    28   123   126    1
    29    65    67   ar
    30    69    67   ar
    31    69    70    1
    32   138   139    2
    33   138   137    1
    34   124   136   am
    35   124   125    2
    36   136   137    1
    37    59    53   am
    38   126   127    1
    39    93    91   ar
    40    91    90    1
    41    91    92   ar
    42    90    89    1
    43    58    56   am
    44    89    86    1
    45    54    53    2
    46    53    52    1
    47   127   128   ar
    48   127   129   ar
    49   128   130   ar
    50    55    56    1
    51    55    52    1
    52    88    87    2
    53    56    57    2
    54    52    51    1
    55    87    86    1
    56    86    85    1
    57    97    96    2
    58    96    95    1
    59   129   132   ar
    60   129   131   ar
    61   130   131   ar
    62    73    74    2
    63    73    72    1
    64    98    95    1
    65    98    99    1
    66    77    75    1
    67    51    49   am
    68    85    81   am
    69   132   134   ar
    70    75    72    1
    71    75    76    1
    72   100    99    1
    73   100   101    1
    74   103   102    1
    75    50    49    2
    76   131   133   ar
    77    78    76    1
    78    95    94    1
    79    71    72    1
    80    49    48    1
    81   101   102    2
    82   102   104    1
    83    81    82    2
    84    81    80    1
    85   134   135   ar
    86    48    47    1
    87   133   135   ar
    88    20    19    1
    89    17    19   ar
    90    17    15   ar
    91    79    80    1
    92    80    83    1
    93    83    84    1
    94    19    18   ar
    95    15    14   ar
    96    36    38   ar
    97    36    34   ar
    98    38    37   ar
    99    45    44   ar
   100     4     3    2
   101    34    33   ar
   102    18    16   ar
   103    14    16   ar
   104    14    13    1
   105    46    44   ar
   106    37    35   ar
   107    44    43    1
   108    27    25    1
   109    33    35   ar
   110    33    32    1
   111    10    13    1
   112    10     9    1
   113    10    11    1
   114     5     2    1
   115     5     6    1
   116    25    26    1
   117    25    22    1
   118    21    11   am
   119    21    22    1
   120     3     2    1
   121    24    23    2
   122    32    29    1
   123     2     1    1
   124    43    40    1
   125     8     6   am
   126    11    12    2
   127     6     7    2
   128    22    23    1
   129    40    39    1
   130    40    41    1
   131    42    41    2
   132    29    30    1
   133    29    28    1
   134    30    31    2
