@<TRIPOS>MOLECULE
tmp/3ej6B02.pdb
 81 77 0 0 0
SMALL
GASTEIGER

@<TRIPOS>ATOM
      1  N         36.4080  -26.5320   -3.2510 N.3   452  ASN452     -0.1225
      2  CA        37.2600  -26.7560   -4.4250 C.3   452  ASN452      0.1785
      3  C         37.6920  -25.4600   -5.1080 C.2   452  ASN452      0.2598
      4  O         38.7630  -25.3950   -5.7130 O.2   452  ASN452     -0.2718
      5  CB        36.5390  -27.6400   -5.4460 C.3   452  ASN452      0.1169
      6  CG        36.3220  -29.0520   -4.9460 C.2   452  ASN452      0.2627
      7  OD1       37.1030  -29.5670   -4.1470 O.2   452  ASN452     -0.2716
      8  ND2       35.2570  -29.6900   -5.4200 N.am  452  ASN452     -0.0877
      9  N         36.8530  -24.4340   -5.0000 N.am  453  SER453     -0.1938
     10  CA        37.0870  -23.1520   -5.6620 C.3   453  SER453      0.2055
     11  C         37.9730  -22.1880   -4.8560 C.2   453  SER453      0.2643
     12  O         38.1700  -21.0420   -5.2660 O.2   453  SER453     -0.2714
     13  CB        35.7430  -22.4940   -5.9690 C.3   453  SER453      0.2130
     14  OG        34.9340  -23.3440   -6.7630 O.3   453  SER453     -0.2179
     15  N         38.5010  -22.6500   -3.7220 N.am  454  LEU454     -0.1963
     16  CA        39.4290  -21.8600   -2.9080 C.3   454  LEU454      0.1728
     17  C         40.8740  -22.2930   -3.1520 C.2   454  LEU454      0.2616
     18  O         41.1320  -23.4280   -3.5580 O.2   454  LEU454     -0.2715
     19  CB        39.0980  -22.0050   -1.4200 C.3   454  LEU454      0.0311
     20  CG        37.7440  -21.4630   -0.9590 C.3   454  LEU454      0.0022
     21  CD1       37.4640  -21.8870    0.4750 C.3   454  LEU454      0.0001
     22  CD2       37.6860  -19.9470   -1.0930 C.3   454  LEU454      0.0001
     23  N         41.8080  -21.3810   -2.8910 N.am  455  THR455     -0.1951
     24  CA        43.2400  -21.6610   -3.0270 C.3   455  THR455      0.1897
     25  C         43.7240  -22.4910   -1.8290 C.2   455  THR455      0.2313
     26  O         43.0640  -22.5070   -0.7900 O.2   455  THR455     -0.2863
     27  CB        44.0620  -20.3560   -3.1320 C.3   455  THR455      0.1794
     28  OG1       43.9310  -19.5990   -1.9230 O.3   455  THR455     -0.2208
     29  CG2       43.5910  -19.5140   -4.3110 C.3   455  THR455      0.0378
     30  N         34.7660  -26.8940  -10.0320 N.3   517  VAL517     -0.1231
     31  CA        35.1390  -25.6100   -9.4380 C.3   517  VAL517      0.1692
     32  C         34.3030  -24.4880  -10.0480 C.2   517  VAL517      0.2593
     33  O         33.7670  -24.6300  -11.1490 O.2   517  VAL517     -0.2718
     34  CB        36.6380  -25.2980   -9.6410 C.3   517  VAL517      0.0266
     35  CG1       37.4950  -26.3420   -8.9420 C.3   517  VAL517      0.0020
     36  CG2       36.9810  -25.2200  -11.1250 C.3   517  VAL517      0.0020
     37  N         34.1970  -23.3780   -9.3220 N.am  518  THR518     -0.1939
     38  CA        33.4230  -22.2180   -9.7670 C.3   518  THR518      0.2028
     39  C         34.2410  -20.9310   -9.6450 C.2   518  THR518      0.2642
     40  O         35.3070  -20.9150   -9.0260 O.2   518  THR518     -0.2714
     41  CB        32.1030  -22.0810   -8.9770 C.3   518  THR518      0.1808
     42  OG1       31.2620  -21.1060   -9.6060 O.3   518  THR518     -0.2208
     43  CG2       32.3680  -21.6740   -7.5330 C.3   518  THR518      0.0379
     44  N         33.7220  -19.8580  -10.2370 N.am  519  ARG519     -0.1963
     45  CA        34.4430  -18.5890  -10.3370 C.3   519  ARG519      0.1729
     46  C         33.9830  -17.5680   -9.2940 C.2   519  ARG519      0.2616
     47  O         32.7870  -17.4280   -9.0340 O.2   519  ARG519     -0.2715
     48  CB        34.2510  -17.9930  -11.7360 C.3   519  ARG519      0.0348
     49  CG        35.4440  -17.1930  -12.2470 C.3   519  ARG519      0.0492
     50  CD        35.0590  -16.2170  -13.3600 C.3   519  ARG519      0.2205
     51  NE        33.9860  -16.7180  -14.2210 N.pl3 519  ARG519     -0.0865
     52  CZ        34.1250  -17.6540  -15.1600 C.cat 519  ARG519      0.5346
     53  NH1       35.3010  -18.2330  -15.3860 N.pl3 519  ARG519      0.1354
     54  NH2       33.0690  -18.0210  -15.8790 N.pl3 519  ARG519      0.1354
     55  N         34.9450  -16.8660   -8.7000 N.am  520  GLY520     -0.1955
     56  CA        34.6680  -15.6780   -7.8880 C.3   520  GLY520      0.1869
     57  C         34.1900  -15.9180   -6.4670 C.2   520  GLY520      0.2309
     58  O         33.5170  -15.0640   -5.8890 O.2   520  GLY520     -0.2863
     59  N         36.5540  -16.6920   -4.2020 N.3   522  SER522     -0.1217
     60  CA        37.8160  -16.4920   -3.4940 C.3   522  SER522      0.1889
     61  C         37.9980  -15.0290   -3.0970 C.2   522  SER522      0.2288
     62  O         37.2370  -14.1610   -3.5280 O.2   522  SER522     -0.2866
     63  CB        38.9840  -16.9490   -4.3650 C.3   522  SER522      0.2089
     64  OG        39.0110  -18.3610   -4.4820 O.3   522  SER522     -0.2183
     65  N         42.9100  -14.6120   -3.3140 N.3   525  ASN525     -0.1225
     66  CA        43.2460  -14.8750   -4.7140 C.3   525  ASN525      0.1785
     67  C         43.5980  -13.6070   -5.4980 C.2   525  ASN525      0.2597
     68  O         44.5790  -13.5820   -6.2420 O.2   525  ASN525     -0.2718
     69  CB        42.0590  -15.5680   -5.3920 C.3   525  ASN525      0.1169
     70  CG        42.4670  -16.4580   -6.5500 C.2   525  ASN525      0.2627
     71  OD1       43.6370  -16.5220   -6.9430 O.2   525  ASN525     -0.2716
     72  ND2       41.4710  -17.1640   -7.1060 N.am  525  ASN525     -0.0877
     73  N         42.7940  -12.5620   -5.3110 N.am  526  GLU526     -0.1979
     74  CA        42.8940  -11.3330   -6.1030 C.3   526  GLU526      0.1602
     75  C         43.6410  -10.2150   -5.3790 C.2   526  GLU526      0.2287
     76  O         43.7700  -10.2270   -4.1520 O.2   526  GLU526     -0.2864
     77  CB        41.4940  -10.8280   -6.4710 C.3   526  GLU526      0.0415
     78  CG        40.6200  -11.8320   -7.2200 C.3   526  GLU526      0.1163
     79  CD        40.8990  -11.8750   -8.7140 C.2   526  GLU526      0.3649
     80  OE1       42.0750  -11.7520   -9.1180 O.co2 526  GLU526     -0.2457
     81  OE2       39.9330  -12.0420   -9.4890 O.co2 526  GLU526     -0.2457
@<TRIPOS>BOND
     1    54    52    1
     2    53    52    1
     3    52    51    2
     4    51    50    1
     5    50    49    1
     6    49    48    1
     7    48    45    1
     8    33    32    2
     9    36    34    1
    10    45    44    1
    11    45    46    1
    12    44    39   am
    13    32    31    1
    14    32    37   am
    15    30    31    1
    16    38    39    1
    17    38    37    1
    18    38    41    1
    19    39    40    2
    20    34    31    1
    21    34    35    1
    22    42    41    1
    23    81    79   ar
    24    46    47    2
    25    46    55   am
    26    80    79   ar
    27    41    43    1
    28    79    78    1
    29    55    56    1
    30    56    57    1
    31    78    77    1
    32    72    70   am
    33    71    70    2
    34    14    13    1
    35    70    69    1
    36    77    74    1
    37    57    58    2
    38    68    67    2
    39    74    75    1
    40    74    73    1
    41    13    10    1
    42     4     3    2
    43    10     9    1
    44    10    11    1
    45    67    73   am
    46    67    66    1
    47     5     6    1
    48     5     2    1
    49     8     6   am
    50    69    66    1
    51    75    76    2
    52    12    11    2
    53     3     9   am
    54     3     2    1
    55     6     7    2
    56    11    15   am
    57    66    65    1
    58    64    63    1
    59     2     1    1
    60    63    60    1
    61    29    27    1
    62    59    60    1
    63    15    16    1
    64    18    17    2
    65    62    61    2
    66    60    61    1
    67    17    16    1
    68    17    23   am
    69    27    24    1
    70    27    28    1
    71    24    23    1
    72    24    25    1
    73    16    19    1
    74    25    26    2
    75    19    20    1
    76    22    20    1
    77    20    21    1
