@<TRIPOS>MOLECULE
tmp/3ejbE00.pdb
 105 97 0 0 0
SMALL
GASTEIGER

@<TRIPOS>ATOM
      1  N        108.7970   53.1710   50.5110 N.3    31  PHE31      -0.1227
      2  CA       107.4320   53.1940   51.0280 C.3    31  PHE31       0.1736
      3  C        107.2280   52.1890   52.1560 C.2    31  PHE31       0.2595
      4  O        106.6880   52.5290   53.2080 O.2    31  PHE31      -0.2718
      5  CB       106.4190   52.9460   49.9070 C.3    31  PHE31       0.0547
      6  CG       106.2990   54.0860   48.9370 C.ar   31  PHE31      -0.0202
      7  CD1      106.7200   53.9450   47.6260 C.ar   31  PHE31      -0.0042
      8  CD2      105.7740   55.3030   49.3410 C.ar   31  PHE31      -0.0042
      9  CE1      106.6140   54.9960   46.7320 C.ar   31  PHE31      -0.0003
     10  CE2      105.6650   56.3560   48.4520 C.ar   31  PHE31      -0.0003
     11  CZ       106.0860   56.2030   47.1460 C.ar   31  PHE31      -0.0000
     12  N        107.6760   50.9570   51.9390 N.am   32  VAL32      -0.1980
     13  CA       107.4430   49.8800   52.8970 C.3    32  VAL32       0.1595
     14  C        108.4930   49.8340   54.0080 C.2    32  VAL32       0.2287
     15  O        108.1540   49.7040   55.1830 O.2    32  VAL32      -0.2864
     16  CB       107.3560   48.5020   52.2020 C.3    32  VAL32       0.0276
     17  CG1      106.1280   48.4380   51.3030 C.3    32  VAL32       0.0022
     18  CG2      108.6180   48.2250   51.4050 C.3    32  VAL32       0.0022
     19  N         99.8620   50.7440   50.4340 N.3    42  THR42      -0.1203
     20  CA       100.4290   50.8610   49.0910 C.3    42  THR42       0.1994
     21  C         99.3490   50.8810   48.0120 C.2    42  THR42       0.2617
     22  O         99.4540   51.6210   47.0340 O.2    42  THR42      -0.2717
     23  CB       101.4370   49.7350   48.7890 C.3    42  THR42       0.1784
     24  OG1      100.7620   48.4710   48.7870 O.3    42  THR42      -0.2211
     25  CG2      102.5490   49.7170   49.8280 C.3    42  THR42       0.0376
     26  N         98.3150   50.0640   48.1950 N.am   43  VAL43      -0.1979
     27  CA        97.1770   50.0520   47.2780 C.3    43  VAL43       0.1595
     28  C         96.4260   51.3820   47.3230 C.2    43  VAL43       0.2287
     29  O         96.1040   51.9590   46.2840 O.2    43  VAL43      -0.2864
     30  CB        96.2010   48.8970   47.5950 C.3    43  VAL43       0.0276
     31  CG1       94.9360   49.0220   46.7580 C.3    43  VAL43       0.0022
     32  CG2       96.8730   47.5530   47.3550 C.3    43  VAL43       0.0022
     33  N         97.6180   54.2030   48.2780 N.3    45  LEU45      -0.1231
     34  CA        98.5140   55.2290   47.7510 C.3    45  LEU45       0.1693
     35  C         98.4270   55.3280   46.2320 C.2    45  LEU45       0.2591
     36  O         98.4180   56.4250   45.6750 O.2    45  LEU45      -0.2718
     37  CB        99.9590   54.9640   48.1840 C.3    45  LEU45       0.0284
     38  CG       100.3550   55.4850   49.5690 C.3    45  LEU45       0.0019
     39  CD1      101.6520   54.8480   50.0470 C.3    45  LEU45       0.0001
     40  CD2      100.4680   57.0040   49.5650 C.3    45  LEU45       0.0001
     41  N         98.3550   54.1790   45.5660 N.am   46  VAL46      -0.1980
     42  CA        98.2080   54.1450   44.1130 C.3    46  VAL46       0.1595
     43  C         96.8780   54.7540   43.6770 C.2    46  VAL46       0.2287
     44  O         96.8280   55.5440   42.7340 O.2    46  VAL46      -0.2864
     45  CB        98.3090   52.7120   43.5590 C.3    46  VAL46       0.0276
     46  CG1       98.0430   52.7050   42.0600 C.3    46  VAL46       0.0022
     47  CG2       99.6740   52.1220   43.8620 C.3    46  VAL46       0.0022
     48  N         96.9770   58.5610   44.0500 N.3    49  LEU49      -0.1245
     49  CA        97.7870   59.1730   43.0030 C.3    49  LEU49       0.1561
     50  C         97.0620   59.1440   41.6600 C.2    49  LEU49       0.2260
     51  O         97.1460   60.0930   40.8810 O.2    49  LEU49      -0.2867
     52  CB        99.1440   58.4720   42.8920 C.3    49  LEU49       0.0270
     53  CG       100.1130   58.6640   44.0610 C.3    49  LEU49       0.0019
     54  CD1      101.2700   57.6840   43.9650 C.3    49  LEU49       0.0001
     55  CD2      100.6260   60.0960   44.1220 C.3    49  LEU49       0.0001
     56  N         97.2450   53.7110   36.3040 N.3    57  ILE57      -0.1245
     57  CA        98.5540   53.0870   36.4440 C.3    57  ILE57       0.1561
     58  C         98.4310   51.5680   36.4190 C.2    57  ILE57       0.2260
     59  O         97.8620   50.9740   37.3330 O.2    57  ILE57      -0.2867
     60  CB        99.2470   53.5220   37.7530 C.3    57  ILE57       0.0252
     61  CG1       99.2960   55.0500   37.8470 C.3    57  ILE57       0.0019
     62  CG2      100.6470   52.9300   37.8400 C.3    57  ILE57       0.0019
     63  CD1       99.7250   55.5750   39.2040 C.3    57  ILE57       0.0001
     64  N         99.1910   47.5800   36.7160 N.3    59  ASP59      -0.1239
     65  CA        99.7410   46.8370   37.8460 C.3    59  ASP59       0.1674
     66  C        101.2430   46.5940   37.6950 C.2    59  ASP59       0.2266
     67  O        101.9800   46.5950   38.6820 O.2    59  ASP59      -0.2867
     68  CB        99.0060   45.5040   38.0260 C.3    59  ASP59       0.1410
     69  CG        97.6100   45.6770   38.6030 C.2    59  ASP59       0.3668
     70  OD1       97.0510   46.7880   38.4980 O.co2  59  ASP59      -0.2456
     71  OD2       97.0720   44.6990   39.1610 O.co2  59  ASP59      -0.2456
     72  N        103.1500   49.9030   38.6410 N.3    62  ALA62      -0.1231
     73  CA       103.1120   50.1590   40.0760 C.3    62  ALA62       0.1694
     74  C        104.0660   49.2260   40.8160 C.2    62  ALA62       0.2591
     75  O        104.6330   49.5920   41.8460 O.2    62  ALA62      -0.2718
     76  CB       101.6980   49.9980   40.6050 C.3    62  ALA62       0.0304
     77  N        104.2450   48.0240   40.2740 N.am   63  GLU63      -0.1979
     78  CA       105.0970   47.0120   40.8900 C.3    63  GLU63       0.1602
     79  C        106.5770   47.3950   40.8200 C.2    63  GLU63       0.2287
     80  O        107.3890   46.9180   41.6140 O.2    63  GLU63      -0.2864
     81  CB       104.8710   45.6500   40.2260 C.3    63  GLU63       0.0415
     82  CG       105.1710   44.4630   41.1260 C.3    63  GLU63       0.1163
     83  CD       105.0840   43.1340   40.3980 C.2    63  GLU63       0.3649
     84  OE1      104.3980   43.0620   39.3550 O.co2  63  GLU63      -0.2457
     85  OE2      105.7010   42.1570   40.8740 O.co2  63  GLU63      -0.2457
     86  N        107.6480   50.4790   41.2850 N.3    65  ILE65      -0.1231
     87  CA       107.8750   51.6360   42.1450 C.3    65  ILE65       0.1692
     88  C        107.9810   51.2380   43.6140 C.2    65  ILE65       0.2592
     89  O        107.0790   50.6050   44.1620 O.2    65  ILE65      -0.2718
     90  CB       106.7620   52.6890   41.9740 C.3    65  ILE65       0.0266
     91  CG1      106.5960   53.0500   40.4950 C.3    65  ILE65       0.0019
     92  CG2      107.0670   53.9270   42.8050 C.3    65  ILE65       0.0020
     93  CD1      105.3520   53.8600   40.1920 C.3    65  ILE65       0.0001
     94  N        109.0910   51.6110   44.2450 N.am   66  THR66      -0.1953
     95  CA       109.3350   51.2620   45.6400 C.3    66  THR66       0.1897
     96  C        109.7250   52.4800   46.4730 C.2    66  THR66       0.2313
     97  O        109.6460   52.4510   47.7010 O.2    66  THR66      -0.2863
     98  CB       110.4350   50.1840   45.7750 C.3    66  THR66       0.1794
     99  OG1      111.6280   50.6260   45.1150 O.3    66  THR66      -0.2208
    100  CG2      109.9770   48.8690   45.1600 C.3    66  THR66       0.0378
    101  N        108.1080   57.2630   42.2230 N.3    71  ALA71      -0.1245
    102  CA       106.7200   57.6790   42.0460 C.3    71  ALA71       0.1562
    103  C        106.6460   59.0190   41.3210 C.2    71  ALA71       0.2260
    104  O        105.8680   59.1850   40.3830 O.2    71  ALA71      -0.2867
    105  CB       106.0150   57.7610   43.3910 C.3    71  ALA71       0.0290
@<TRIPOS>BOND
     1    56    57    1
     2    58    57    1
     3    58    59    2
     4    57    60    1
     5    64    65    1
     6    66    65    1
     7    66    67    2
     8    60    62    1
     9    60    61    1
    10    65    68    1
    11    61    63    1
    12    68    69    1
    13    70    69   ar
    14    69    71   ar
    15    72    73    1
    16    84    83   ar
    17    73    76    1
    18    73    74    1
    19    93    91    1
    20    81    78    1
    21    81    82    1
    22    77    74   am
    23    77    78    1
    24   104   103    2
    25    83    85   ar
    26    83    82    1
    27    91    90    1
    28    74    75    2
    29    79    78    1
    30    79    80    2
    31    51    50    2
    32    86    87    1
    33   103   102    1
    34    50    49    1
    35    90    87    1
    36    90    92    1
    37   102   101    1
    38   102   105    1
    39    46    45    1
    40    87    88    1
    41    44    43    2
    42    52    49    1
    43    52    53    1
    44    49    48    1
    45    45    47    1
    46    45    42    1
    47    88    89    2
    48    88    94   am
    49    43    42    1
    50    54    53    1
    51    53    55    1
    52    42    41    1
    53    94    95    1
    54    99    98    1
    55   100    98    1
    56    41    35   am
    57    95    98    1
    58    95    96    1
    59    36    35    2
    60    35    34    1
    61    29    28    2
    62    96    97    2
    63     9    11   ar
    64     9     7   ar
    65    31    30    1
    66    22    21    2
    67    11    10   ar
    68    27    28    1
    69    27    30    1
    70    27    26    1
    71    32    30    1
    72     7     6   ar
    73    34    37    1
    74    34    33    1
    75    21    26   am
    76    21    20    1
    77    37    38    1
    78    10     8   ar
    79    24    23    1
    80    23    20    1
    81    23    25    1
    82     6     8   ar
    83     6     5    1
    84    20    19    1
    85    40    38    1
    86    38    39    1
    87     5     2    1
    88     1     2    1
    89     2     3    1
    90    17    16    1
    91    18    16    1
    92    12     3   am
    93    12    13    1
    94     3     4    2
    95    16    13    1
    96    13    14    1
    97    14    15    2
