@<TRIPOS>MOLECULE
tmp/3ejbH02.pdb
 122 119 0 0 0
SMALL
GASTEIGER

@<TRIPOS>ATOM
      1  N         69.7710   43.3740  165.6190 N.3     2  ALA2       -0.1231
      2  CA        70.3470   44.7090  165.7580 C.3     2  ALA2        0.1694
      3  C         70.8650   45.2630  164.4340 C.2     2  ALA2        0.2592
      4  O         70.7320   46.4560  164.1590 O.2     2  ALA2       -0.2718
      5  CB        71.4550   44.7010  166.8020 C.3     2  ALA2        0.0304
      6  N         71.4570   44.3950  163.6190 N.am    3  SER3       -0.1952
      7  CA        72.0310   44.8140  162.3430 C.3     3  SER3        0.1924
      8  C         70.9520   45.0500  161.2900 C.2     3  SER3        0.2314
      9  O         71.0940   45.9200  160.4300 O.2     3  SER3       -0.2863
     10  CB        73.0500   43.7880  161.8440 C.3     3  SER3        0.2116
     11  OG        72.4480   42.5220  161.6530 O.3     3  SER3       -0.2180
     12  N         69.4220   48.3710  162.1770 N.3     6  PHE6       -0.1241
     13  CA        70.3340   49.4540  161.8320 C.3     6  PHE6        0.1605
     14  C         70.3260   49.7380  160.3330 C.2     6  PHE6        0.2264
     15  O         70.3870   50.8910  159.9160 O.2     6  PHE6       -0.2867
     16  CB        71.7550   49.1450  162.3080 C.3     6  PHE6        0.0534
     17  CG        72.7740   50.1640  161.8770 C.ar    6  PHE6       -0.0203
     18  CD1       73.5430   49.9600  160.7400 C.ar    6  PHE6       -0.0042
     19  CD2       72.9550   51.3320  162.6010 C.ar    6  PHE6       -0.0042
     20  CE1       74.4750   50.8990  160.3380 C.ar    6  PHE6       -0.0003
     21  CE2       73.8880   52.2730  162.2050 C.ar    6  PHE6       -0.0003
     22  CZ        74.6490   52.0560  161.0720 C.ar    6  PHE6       -0.0000
     23  N         70.1350   55.6930  165.0350 N.3    13  PHE13      -0.1227
     24  CA        71.3740   55.3240  165.7040 C.3    13  PHE13       0.1736
     25  C         72.3640   56.4840  165.6980 C.2    13  PHE13       0.2595
     26  O         73.0800   56.7050  166.6760 O.2    13  PHE13      -0.2718
     27  CB        71.9930   54.0980  165.0280 C.3    13  PHE13       0.0547
     28  CG        73.2560   53.6180  165.6810 C.ar   13  PHE13      -0.0202
     29  CD1       73.2100   52.7110  166.7260 C.ar   13  PHE13      -0.0042
     30  CD2       74.4920   54.0670  165.2440 C.ar   13  PHE13      -0.0042
     31  CE1       74.3710   52.2650  167.3270 C.ar   13  PHE13      -0.0003
     32  CE2       75.6560   53.6250  165.8400 C.ar   13  PHE13      -0.0003
     33  CZ        75.5950   52.7220  166.8820 C.ar   13  PHE13      -0.0000
     34  N         72.4040   57.2180  164.5890 N.am   14  TYR14      -0.1976
     35  CA        73.2730   58.3840  164.4750 C.3    14  TYR14       0.1639
     36  C         72.8520   59.4760  165.4580 C.2    14  TYR14       0.2290
     37  O         73.6910   60.1980  165.9930 O.2    14  TYR14      -0.2864
     38  CB        73.2530   58.9400  163.0470 C.3    14  TYR14       0.0560
     39  CG        73.7430   57.9800  161.9790 C.ar   14  TYR14      -0.0198
     40  CD1       74.7370   57.0450  162.2510 C.ar   14  TYR14      -0.0009
     41  CD2       73.2390   58.0400  160.6850 C.ar   14  TYR14      -0.0009
     42  CE1       75.1920   56.1760  161.2670 C.ar   14  TYR14       0.0417
     43  CE2       73.6870   57.1780  159.6980 C.ar   14  TYR14       0.0417
     44  CZ        74.6620   56.2490  159.9930 C.ar   14  TYR14       0.1957
     45  OH        75.1070   55.3940  159.0080 O.3    14  TYR14      -0.2866
     46  N         74.0800   59.0810  169.2430 N.3    17  LEU17      -0.1245
     47  CA        75.5040   59.3670  169.3690 C.3    17  LEU17       0.1561
     48  C         75.7520   60.8720  169.4010 C.2    17  LEU17       0.2260
     49  O         76.5370   61.3630  170.2130 O.2    17  LEU17      -0.2867
     50  CB        76.2900   58.7250  168.2220 C.3    17  LEU17       0.0270
     51  CG        76.8490   57.3160  168.4480 C.3    17  LEU17       0.0019
     52  CD1       75.7430   56.3220  168.7800 C.3    17  LEU17       0.0001
     53  CD2       77.6410   56.8530  167.2320 C.3    17  LEU17       0.0001
     54  N         82.4060   49.8880  167.7630 N.3    28  PHE28      -0.1227
     55  CA        81.3620   49.1550  167.0610 C.3    28  PHE28       0.1736
     56  C         81.9820   48.1600  166.0860 C.2    28  PHE28       0.2595
     57  O         82.9400   48.4820  165.3830 O.2    28  PHE28      -0.2718
     58  CB        80.4250   50.1190  166.3270 C.3    28  PHE28       0.0547
     59  CG        79.7770   51.1350  167.2270 C.ar   28  PHE28      -0.0202
     60  CD1       78.6780   50.7940  168.0010 C.ar   28  PHE28      -0.0042
     61  CD2       80.2740   52.4260  167.3100 C.ar   28  PHE28      -0.0042
     62  CE1       78.0850   51.7240  168.8390 C.ar   28  PHE28      -0.0003
     63  CE2       79.6830   53.3630  168.1450 C.ar   28  PHE28      -0.0003
     64  CZ        78.5870   53.0100  168.9100 C.ar   28  PHE28      -0.0000
     65  N         81.4400   46.9450  166.0660 N.am   29  LEU29      -0.1980
     66  CA        81.9990   45.8470  165.2760 C.3    29  LEU29       0.1596
     67  C         83.4760   45.6030  165.5850 C.2    29  LEU29       0.2287
     68  O         84.2560   45.2500  164.6990 O.2    29  LEU29      -0.2864
     69  CB        81.7900   46.0860  163.7760 C.3    29  LEU29       0.0297
     70  CG        80.3960   45.7590  163.2350 C.3    29  LEU29       0.0022
     71  CD1       79.4040   46.8680  163.5610 C.3    29  LEU29       0.0001
     72  CD2       80.4470   45.5110  161.7370 C.3    29  LEU29       0.0001
     73  N         83.8330   58.2450  166.8500 N.3    35  TYR35      -0.1241
     74  CA        82.8030   58.2170  165.8190 C.3    35  TYR35       0.1605
     75  C         82.1100   59.5720  165.7120 C.2    35  TYR35       0.2264
     76  O         81.4570   60.0230  166.6560 O.2    35  TYR35      -0.2867
     77  CB        81.7840   57.1130  166.1120 C.3    35  TYR35       0.0534
     78  CG        82.3240   55.7170  165.8820 C.ar   35  TYR35      -0.0201
     79  CD1       81.9580   54.9870  164.7570 C.ar   35  TYR35      -0.0009
     80  CD2       83.2160   55.1380  166.7790 C.ar   35  TYR35      -0.0009
     81  CE1       82.4540   53.7130  164.5370 C.ar   35  TYR35       0.0417
     82  CE2       83.7210   53.8660  166.5660 C.ar   35  TYR35       0.0417
     83  CZ        83.3380   53.1590  165.4430 C.ar   35  TYR35       0.1957
     84  OH        83.8360   51.8950  165.2240 O.3    35  TYR35      -0.2866
     85  N         83.1820   47.6670  157.3550 N.3   165  PHE165     -0.1241
     86  CA        83.1150   47.1500  158.7200 C.3   165  PHE165      0.1605
     87  C         82.6040   45.7060  158.7650 C.2   165  PHE165      0.2264
     88  O         82.9410   44.9500  159.6760 O.2   165  PHE165     -0.2867
     89  CB        82.2190   48.0480  159.5810 C.3   165  PHE165      0.0534
     90  CG        82.9670   49.1190  160.3360 C.ar  165  PHE165     -0.0203
     91  CD1       84.1120   49.6960  159.8070 C.ar  165  PHE165     -0.0042
     92  CD2       82.5060   49.5640  161.5670 C.ar  165  PHE165     -0.0042
     93  CE1       84.7930   50.6850  160.5000 C.ar  165  PHE165     -0.0003
     94  CE2       83.1810   50.5540  162.2630 C.ar  165  PHE165     -0.0003
     95  CZ        84.3260   51.1130  161.7300 C.ar  165  PHE165     -0.0000
     96  N         80.3710   56.1940  155.4170 N.3   278  MET278     -0.1245
     97  CA        81.5370   56.3030  156.2850 C.3   278  MET278      0.1570
     98  C         82.8380   56.4860  155.5160 C.2   278  MET278      0.2261
     99  O         83.0510   55.8650  154.4740 O.2   278  MET278     -0.2867
    100  CB        81.6450   55.0730  157.1910 C.3   278  MET278      0.0387
    101  CG        82.8930   55.0560  158.0660 C.3   278  MET278      0.0595
    102  SD        83.2100   53.4500  158.8180 S.3   278  MET278     -0.1393
    103  CE        81.6110   53.1000  159.5460 C.3   278  MET278      0.0692
    104  N         80.9530   59.7230  159.9990 N.3   303  LEU303     -0.1245
    105  CA        79.6850   59.2350  159.4870 C.3   303  LEU303      0.1561
    106  C         79.0050   60.3120  158.6560 C.2   303  LEU303      0.2260
    107  O         78.2490   61.1340  159.1780 O.2   303  LEU303     -0.2867
    108  CB        78.7810   58.7880  160.6350 C.3   303  LEU303      0.0270
    109  CG        79.3760   57.7360  161.5760 C.3   303  LEU303      0.0019
    110  CD1       78.3730   57.3520  162.6470 C.3   303  LEU303      0.0001
    111  CD2       79.8350   56.5060  160.8000 C.3   303  LEU303      0.0001
    112  N         77.9930   48.6230  155.9810 N.3   375  PHE375     -0.1241
    113  CA        77.7350   49.7120  156.9230 C.3   375  PHE375      0.1605
    114  C         78.3780   51.0260  156.4860 C.2   375  PHE375      0.2264
    115  O         77.9340   52.1050  156.8820 O.2   375  PHE375     -0.2867
    116  CB        78.1980   49.3370  158.3330 C.3   375  PHE375      0.0534
    117  CG        77.3520   48.2810  158.9910 C.ar  375  PHE375     -0.0203
    118  CD1       76.0320   48.0910  158.6070 C.ar  375  PHE375     -0.0042
    119  CD2       77.8670   47.4980  160.0110 C.ar  375  PHE375     -0.0042
    120  CE1       75.2510   47.1220  159.2120 C.ar  375  PHE375     -0.0003
    121  CE2       77.0890   46.5270  160.6210 C.ar  375  PHE375     -0.0003
    122  CZ        75.7780   46.3420  160.2210 C.ar  375  PHE375     -0.0000
@<TRIPOS>BOND
     1    99    98    2
     2    96    97    1
     3    98    97    1
     4   112   113    1
     5    97   100    1
     6   114   115    2
     7   114   113    1
     8   113   116    1
     9   100   101    1
    10    85    86    1
    11   101   102    1
    12   116   117    1
    13   118   117   ar
    14   118   120   ar
    15   106   107    2
    16   106   105    1
    17    86    87    1
    18    86    89    1
    19    87    88    2
    20   102   103    1
    21   117   119   ar
    22    45    44    1
    23   120   122   ar
    24   105   104    1
    25   105   108    1
    26    89    90    1
    27    43    44   ar
    28    43    41   ar
    29    91    90   ar
    30    91    93   ar
    31    15    14    2
    32    44    42   ar
    33   119   121   ar
    34   122   121   ar
    35    14    13    1
    36    90    92   ar
    37    20    18   ar
    38    20    22   ar
    39     9     8    2
    40    93    95   ar
    41   108   109    1
    42    41    39   ar
    43    18    17   ar
    44   111   109    1
    45    22    21   ar
    46    42    40   ar
    47     8     7    1
    48    92    94   ar
    49   109   110    1
    50    11    10    1
    51    95    94   ar
    52    72    70    1
    53    13    12    1
    54    13    16    1
    55    10     7    1
    56    17    16    1
    57    17    19   ar
    58    39    40   ar
    59    39    38    1
    60    21    19   ar
    61     7     6    1
    62    38    35    1
    63    70    71    1
    64    70    69    1
    65     6     3   am
    66    69    66    1
    67     4     3    2
    68     3     2    1
    69    35    34    1
    70    35    36    1
    71    81    79   ar
    72    81    83   ar
    73    34    25   am
    74    68    67    2
    75    79    78   ar
    76    27    28    1
    77    27    24    1
    78    23    24    1
    79    84    83    1
    80    30    28   ar
    81    30    32   ar
    82    66    67    1
    83    66    65    1
    84    57    56    2
    85    83    82   ar
    86    36    37    2
    87     1     2    1
    88    28    29   ar
    89    25    24    1
    90    25    26    2
    91    75    74    1
    92    75    76    2
    93     2     5    1
    94    74    77    1
    95    74    73    1
    96    32    33   ar
    97    78    77    1
    98    78    80   ar
    99    65    56   am
   100    56    55    1
   101    58    55    1
   102    58    59    1
   103    82    80   ar
   104    29    31   ar
   105    33    31   ar
   106    55    54    1
   107    59    61   ar
   108    59    60   ar
   109    53    51    1
   110    61    63   ar
   111    60    62   ar
   112    63    64   ar
   113    50    51    1
   114    50    47    1
   115    51    52    1
   116    62    64   ar
   117    46    47    1
   118    47    48    1
   119    48    49    2
