@<TRIPOS>MOLECULE
tmp/3ejeE00.pdb
 97 90 0 0 0
SMALL
GASTEIGER

@<TRIPOS>ATOM
      1  N        106.6420   52.6960   50.0990 N.3    31  PHE31      -0.1227
      2  CA       105.3040   52.7160   50.6900 C.3    31  PHE31       0.1736
      3  C        105.1530   51.6970   51.8160 C.2    31  PHE31       0.2595
      4  O        104.6710   52.0280   52.9000 O.2    31  PHE31      -0.2718
      5  CB       104.2350   52.4890   49.6190 C.3    31  PHE31       0.0547
      6  CG       104.1300   53.6070   48.6230 C.ar   31  PHE31      -0.0202
      7  CD1      104.5800   53.4390   47.3230 C.ar   31  PHE31      -0.0042
      8  CD2      103.5900   54.8310   48.9890 C.ar   31  PHE31      -0.0042
      9  CE1      104.4830   54.4670   46.4000 C.ar   31  PHE31      -0.0003
     10  CE2      103.4940   55.8660   48.0720 C.ar   31  PHE31      -0.0003
     11  CZ       103.9430   55.6830   46.7760 C.ar   31  PHE31      -0.0000
     12  N        105.5880   50.4670   51.5610 N.am   32  VAL32      -0.1980
     13  CA       105.4080   49.3710   52.5110 C.3    32  VAL32       0.1595
     14  C        106.4310   49.4240   53.6470 C.2    32  VAL32       0.2287
     15  O        106.0650   49.3730   54.8220 O.2    32  VAL32      -0.2864
     16  CB       105.4710   47.9910   51.8100 C.3    32  VAL32       0.0276
     17  CG1      105.2570   46.8680   52.8140 C.3    32  VAL32       0.0022
     18  CG2      104.4360   47.9110   50.6980 C.3    32  VAL32       0.0022
     19  N         97.6810   50.2600   50.2520 N.3    42  THR42      -0.1203
     20  CA        98.2650   50.3410   48.9140 C.3    42  THR42       0.1994
     21  C         97.2000   50.3130   47.8200 C.2    42  THR42       0.2617
     22  O         97.3580   50.9420   46.7730 O.2    42  THR42      -0.2717
     23  CB        99.2690   49.2030   48.6700 C.3    42  THR42       0.1784
     24  OG1       98.6130   47.9420   48.8410 O.3    42  THR42      -0.2211
     25  CG2      100.4380   49.3000   49.6420 C.3    42  THR42       0.0376
     26  N         96.1260   49.5640   48.0640 N.am   43  VAL43      -0.1979
     27  CA        94.9820   49.5220   47.1540 C.3    43  VAL43       0.1595
     28  C         94.2440   50.8610   47.1620 C.2    43  VAL43       0.2287
     29  O         93.9180   51.4070   46.1080 O.2    43  VAL43      -0.2864
     30  CB        93.9970   48.3860   47.5320 C.3    43  VAL43       0.0276
     31  CG1       92.7440   48.4480   46.6670 C.3    43  VAL43       0.0022
     32  CG2       94.6720   47.0280   47.4030 C.3    43  VAL43       0.0022
     33  N         95.4810   53.7010   48.0570 N.3    45  LEU45      -0.1231
     34  CA        96.3950   54.6940   47.4940 C.3    45  LEU45       0.1693
     35  C         96.2640   54.7980   45.9790 C.2    45  LEU45       0.2591
     36  O         96.1800   55.8980   45.4340 O.2    45  LEU45      -0.2718
     37  CB        97.8460   54.3710   47.8610 C.3    45  LEU45       0.0284
     38  CG        98.3770   54.9370   49.1780 C.3    45  LEU45       0.0019
     39  CD1       99.7130   54.3010   49.5310 C.3    45  LEU45       0.0001
     40  CD2       98.5010   56.4530   49.1100 C.3    45  LEU45       0.0001
     41  N         96.2630   53.6500   45.3060 N.am   46  VAL46      -0.1980
     42  CA        96.1220   53.6120   43.8510 C.3    46  VAL46       0.1595
     43  C         94.7690   54.1750   43.4130 C.2    46  VAL46       0.2287
     44  O         94.6930   54.9310   42.4440 O.2    46  VAL46      -0.2864
     45  CB        96.3150   52.1830   43.2840 C.3    46  VAL46       0.0276
     46  CG1       96.1310   52.1780   41.7700 C.3    46  VAL46       0.0022
     47  CG2       97.6940   51.6450   43.6460 C.3    46  VAL46       0.0022
     48  N         94.8870   57.9730   43.7720 N.3    49  LEU49      -0.1245
     49  CA        95.7040   58.5670   42.7170 C.3    49  LEU49       0.1561
     50  C         94.9960   58.5230   41.3650 C.2    49  LEU49       0.2260
     51  O         95.0660   59.4780   40.5900 O.2    49  LEU49      -0.2867
     52  CB        97.0670   57.8710   42.6280 C.3    49  LEU49       0.0270
     53  CG        98.0560   58.1250   43.7710 C.3    49  LEU49       0.0019
     54  CD1       99.1600   57.0770   43.7680 C.3    49  LEU49       0.0001
     55  CD2       98.6430   59.5270   43.6930 C.3    49  LEU49       0.0001
     56  N         97.0010   46.7840   36.6830 N.3    59  ASP59      -0.1239
     57  CA        97.5910   46.0810   37.8170 C.3    59  ASP59       0.1674
     58  C         99.0820   45.8180   37.6100 C.2    59  ASP59       0.2266
     59  O         99.8570   45.8170   38.5670 O.2    59  ASP59      -0.2867
     60  CB        96.8500   44.7660   38.0760 C.3    59  ASP59       0.1410
     61  CG        95.4160   44.9800   38.5430 C.2    59  ASP59       0.3668
     62  OD1       94.8790   46.0920   38.3540 O.co2  59  ASP59      -0.2456
     63  OD2       94.8250   44.0300   39.0980 O.co2  59  ASP59      -0.2456
     64  N        100.9580   49.1140   38.4770 N.3    62  ALA62      -0.1231
     65  CA       100.8510   49.4190   39.9040 C.3    62  ALA62       0.1694
     66  C        101.7990   48.5570   40.7380 C.2    62  ALA62       0.2591
     67  O        102.3310   49.0100   41.7540 O.2    62  ALA62      -0.2718
     68  CB        99.4150   49.2460   40.3760 C.3    62  ALA62       0.0304
     69  N        102.0040   47.3370   40.2860 N.am   63  GLU63      -0.1979
     70  CA       102.9150   46.4290   40.8950 C.3    63  GLU63       0.1602
     71  C        104.3240   46.9820   40.8200 C.2    63  GLU63       0.2287
     72  O        105.1240   46.6950   41.6470 O.2    63  GLU63      -0.2864
     73  CB       102.8550   45.0870   40.1800 C.3    63  GLU63       0.0415
     74  CG       102.1650   44.0400   40.9410 C.3    63  GLU63       0.1163
     75  CD       102.0860   42.6840   40.2430 C.2    63  GLU63       0.3649
     76  OE1      101.1940   42.5130   39.4340 O.co2  63  GLU63      -0.2457
     77  OE2      102.8610   41.7850   40.5440 O.co2  63  GLU63      -0.2457
     78  N        105.3460   50.0440   41.1690 N.3    65  ILE65      -0.1231
     79  CA       105.6360   51.2350   41.9070 C.3    65  ILE65       0.1692
     80  C        105.8130   50.9250   43.3540 C.2    65  ILE65       0.2592
     81  O        104.9240   50.4610   43.9760 O.2    65  ILE65      -0.2718
     82  CB       104.6140   52.2980   41.7150 C.3    65  ILE65       0.0266
     83  CG1      104.4920   52.6500   40.2540 C.3    65  ILE65       0.0019
     84  CG2      105.0880   53.5030   42.3820 C.3    65  ILE65       0.0020
     85  CD1      103.1940   53.1350   39.8780 C.3    65  ILE65       0.0001
     86  N        106.9920   51.1660   43.8850 N.am   66  THR66      -0.1953
     87  CA       107.1870   50.9880   45.2960 C.3    66  THR66       0.1897
     88  C        107.5860   52.1630   46.1710 C.2    66  THR66       0.2313
     89  O        107.4880   52.0940   47.3700 O.2    66  THR66      -0.2863
     90  CB       107.9770   49.7410   45.6000 C.3    66  THR66       0.1794
     91  OG1      109.3460   49.9470   45.2960 O.3    66  THR66      -0.2208
     92  CG2      107.4230   48.5810   44.8190 C.3    66  THR66       0.0378
     93  N        105.8620   56.7910   41.8630 N.3    71  ALA71      -0.1245
     94  CA       104.4940   57.2630   41.6680 C.3    71  ALA71       0.1562
     95  C        104.4740   58.5950   40.9230 C.2    71  ALA71       0.2260
     96  O        103.7600   58.7480   39.9310 O.2    71  ALA71      -0.2867
     97  CB       103.7730   57.3810   43.0050 C.3    71  ALA71       0.0290
@<TRIPOS>BOND
     1    56    57    1
     2    58    57    1
     3    58    59    2
     4    57    60    1
     5    60    61    1
     6    62    61   ar
     7    64    65    1
     8    61    63   ar
     9    76    75   ar
    10    85    83    1
    11    65    68    1
    12    65    66    1
    13    96    95    2
    14    73    70    1
    15    73    74    1
    16    75    77   ar
    17    75    74    1
    18    83    82    1
    19    69    66   am
    20    69    70    1
    21    51    50    2
    22    66    67    2
    23    71    70    1
    24    71    72    2
    25    95    94    1
    26    78    79    1
    27    50    49    1
    28    94    93    1
    29    94    97    1
    30    82    79    1
    31    82    84    1
    32    46    45    1
    33    79    80    1
    34    44    43    2
    35    52    49    1
    36    52    53    1
    37    49    48    1
    38    45    47    1
    39    45    42    1
    40    80    86   am
    41    80    81    2
    42    43    42    1
    43    55    53    1
    44    54    53    1
    45    42    41    1
    46    86    87    1
    47    92    90    1
    48    91    90    1
    49    87    90    1
    50    87    88    1
    51    41    35   am
    52    36    35    2
    53    35    34    1
    54    29    28    2
    55    88    89    2
    56     9    11   ar
    57     9     7   ar
    58    31    30    1
    59    22    21    2
    60    11    10   ar
    61    27    28    1
    62    27    30    1
    63    27    26    1
    64     7     6   ar
    65    32    30    1
    66    34    37    1
    67    34    33    1
    68    21    26   am
    69    21    20    1
    70    37    38    1
    71    10     8   ar
    72     6     8   ar
    73     6     5    1
    74    23    24    1
    75    23    20    1
    76    23    25    1
    77    20    19    1
    78    40    38    1
    79    38    39    1
    80     5     2    1
    81     1     2    1
    82     2     3    1
    83    18    16    1
    84    12     3   am
    85    12    13    1
    86    16    13    1
    87    16    17    1
    88     3     4    2
    89    13    14    1
    90    14    15    2
