@<TRIPOS>MOLECULE
tmp/3ejeC00.pdb
 76 72 0 0 0
SMALL
GASTEIGER

@<TRIPOS>ATOM
      1  N         64.0260   78.4300   72.2590 N.3    31  PHE31      -0.1227
      2  CA        63.8120   78.4360   73.7080 C.3    31  PHE31       0.1736
      3  C         64.7130   77.4340   74.4290 C.2    31  PHE31       0.2595
      4  O         65.3670   77.7720   75.4160 O.2    31  PHE31      -0.2718
      5  CB        62.3420   78.1450   74.0400 C.3    31  PHE31       0.0547
      6  CG        61.3980   79.2590   73.6710 C.ar   31  PHE31      -0.0202
      7  CD1       60.5160   79.1150   72.6090 C.ar   31  PHE31      -0.0042
      8  CD2       61.3840   80.4460   74.3930 C.ar   31  PHE31      -0.0042
      9  CE1       59.6360   80.1360   72.2690 C.ar   31  PHE31      -0.0003
     10  CE2       60.5110   81.4730   74.0560 C.ar   31  PHE31      -0.0003
     11  CZ        59.6360   81.3170   72.9920 C.ar   31  PHE31      -0.0000
     12  N         64.7420   76.2030   73.9260 N.am   32  VAL32      -0.1980
     13  CA        65.4610   75.1130   74.5830 C.3    32  VAL32       0.1595
     14  C         66.9670   75.1810   74.3200 C.2    32  VAL32       0.2287
     15  O         67.7690   75.1440   75.2540 O.2    32  VAL32      -0.2864
     16  CB        64.9090   73.7280   74.1530 C.3    32  VAL32       0.0276
     17  CG1       65.6850   72.6020   74.8280 C.3    32  VAL32       0.0022
     18  CG2       63.4220   73.6230   74.4780 C.3    32  VAL32       0.0022
     19  N         59.4550   75.9820   79.9210 N.3    42  THR42      -0.1203
     20  CA        58.6210   76.0780   78.7230 C.3    42  THR42       0.1994
     21  C         57.1280   76.0250   79.0450 C.2    42  THR42       0.2617
     22  O         56.3190   76.6700   78.3750 O.2    42  THR42      -0.2717
     23  CB        58.9780   75.0050   77.6670 C.3    42  THR42       0.1784
     24  OG1       58.7480   73.6970   78.2030 O.3    42  THR42      -0.2211
     25  CG2       60.4340   75.1300   77.2430 C.3    42  THR42       0.0376
     26  N         56.7700   75.2650   80.0770 N.am   43  VAL43      -0.1979
     27  CA        55.3890   75.2250   80.5510 C.3    43  VAL43       0.1595
     28  C         54.9970   76.5580   81.1960 C.2    43  VAL43       0.2287
     29  O         53.9300   77.0990   80.9120 O.2    43  VAL43      -0.2864
     30  CB        55.1540   74.0600   81.5430 C.3    43  VAL43       0.0276
     31  CG1       53.7020   74.0280   81.9940 C.3    43  VAL43       0.0022
     32  CG2       55.5430   72.7310   80.9070 C.3    43  VAL43       0.0022
     33  N         56.4000   79.4140   80.6180 N.3    45  LEU45      -0.1231
     34  CA        56.4060   80.4190   79.5540 C.3    45  LEU45       0.1693
     35  C         55.0550   80.4970   78.8460 C.2    45  LEU45       0.2591
     36  O         54.5180   81.5850   78.6330 O.2    45  LEU45      -0.2718
     37  CB        57.5230   80.1390   78.5420 C.3    45  LEU45       0.0284
     38  CG        58.9020   80.7160   78.8730 C.3    45  LEU45       0.0019
     39  CD1       59.9970   79.9830   78.1100 C.3    45  LEU45       0.0001
     40  CD2       58.9490   82.2070   78.5800 C.3    45  LEU45       0.0001
     41  N         54.5060   79.3370   78.4960 N.am   46  VAL46      -0.1980
     42  CA        53.1930   79.2640   77.8590 C.3    46  VAL46       0.1595
     43  C         52.1100   79.8510   78.7660 C.2    46  VAL46       0.2287
     44  O         51.2510   80.6040   78.3090 O.2    46  VAL46      -0.2864
     45  CB        52.8280   77.8090   77.4750 C.3    46  VAL46       0.0276
     46  CG1       51.3590   77.7030   77.1030 C.3    46  VAL46       0.0022
     47  CG2       53.7070   77.3190   76.3280 C.3    46  VAL46       0.0022
     48  N         51.2090   74.7650   70.9110 N.3    62  ALA62      -0.1231
     49  CA        52.3560   75.0770   71.7630 C.3    62  ALA62       0.1694
     50  C         53.5720   74.2210   71.4130 C.2    62  ALA62       0.2591
     51  O         54.7110   74.6810   71.5100 O.2    62  ALA62      -0.2718
     52  CB        51.9900   74.9090   73.2290 C.3    62  ALA62       0.0304
     53  N         53.3190   72.9790   71.0040 N.am   63  GLU63      -0.1979
     54  CA        54.3790   72.0710   70.5640 C.3    63  GLU63       0.1602
     55  C         55.1010   72.5910   69.3230 C.2    63  GLU63       0.2287
     56  O         56.2930   72.3420   69.1400 O.2    63  GLU63      -0.2864
     57  CB        53.8150   70.6720   70.2930 C.3    63  GLU63       0.0415
     58  CG        53.6770   69.7980   71.5360 C.3    63  GLU63       0.1163
     59  CD        53.0770   68.4310   71.2390 C.2    63  GLU63       0.3649
     60  OE1       52.8300   68.1240   70.0520 O.co2  63  GLU63      -0.2457
     61  OE2       52.8510   67.6600   72.1970 O.co2  63  GLU63      -0.2457
     62  N         55.5170   75.7000   68.6380 N.3    65  ILE65      -0.1231
     63  CA        56.1910   76.9360   68.9490 C.3    65  ILE65       0.1692
     64  C         57.6080   76.7430   69.4380 C.2    65  ILE65       0.2592
     65  O         57.8200   76.6110   70.6000 O.2    65  ILE65      -0.2718
     66  CB        55.3420   77.7950   69.8630 C.3    65  ILE65       0.0266
     67  CG1       54.1080   78.1930   69.1160 C.3    65  ILE65       0.0019
     68  CG2       56.0160   79.0250   70.1970 C.3    65  ILE65       0.0020
     69  CD1       53.1110   78.8410   69.9150 C.3    65  ILE65       0.0001
     70  N         58.5680   76.6910   68.5130 N.am   66  THR66      -0.1953
     71  CA        59.9530   76.4820   68.8590 C.3    66  THR66       0.1897
     72  C         60.7880   77.7400   69.1280 C.2    66  THR66       0.2313
     73  O         61.7830   77.6550   69.7870 O.2    66  THR66      -0.2863
     74  CB        60.7000   75.3890   68.0120 C.3    66  THR66       0.1794
     75  OG1       61.0180   75.8550   66.7120 O.3    66  THR66      -0.2208
     76  CG2       59.9310   74.0960   67.9240 C.3    66  THR66       0.0378
@<TRIPOS>BOND
     1    75    74    1
     2    76    74    1
     3    74    71    1
     4    70    71    1
     5    70    64   am
     6    62    63    1
     7    71    72    1
     8    63    64    1
     9    63    66    1
    10    67    66    1
    11    67    69    1
    12    72    73    2
    13    56    55    2
    14    55    54    1
    15    64    65    2
    16    66    68    1
    17    60    59   ar
    18    57    54    1
    19    57    58    1
    20    54    53    1
    21    48    49    1
    22    53    50   am
    23    59    58    1
    24    59    61   ar
    25    50    51    2
    26    50    49    1
    27    49    52    1
    28     1     2    1
    29     9     7   ar
    30     9    11   ar
    31     7     6   ar
    32    11    10   ar
    33     6     5    1
    34     6     8   ar
    35     2     5    1
    36     2     3    1
    37    12     3   am
    38    12    13    1
    39    10     8   ar
    40    16    18    1
    41    16    13    1
    42    16    17    1
    43    14    13    1
    44    14    15    2
    45     3     4    2
    46    47    45    1
    47    46    45    1
    48    25    23    1
    49    45    42    1
    50    23    24    1
    51    23    20    1
    52    42    41    1
    53    42    43    1
    54    39    38    1
    55    44    43    2
    56    22    21    2
    57    41    35   am
    58    37    38    1
    59    37    34    1
    60    40    38    1
    61    36    35    2
    62    20    21    1
    63    20    19    1
    64    35    34    1
    65    21    26   am
    66    34    33    1
    67    26    27    1
    68    27    28    1
    69    27    30    1
    70    32    30    1
    71    29    28    2
    72    30    31    1
