@<TRIPOS>MOLECULE
tmp/3ejkA00.pdb
 119 116 0 0 0
SMALL
GASTEIGER

@<TRIPOS>ATOM
      1  N          5.3940   11.2800   14.0520 N.3    41  TYR41      -0.1241
      2  CA         5.9640   12.4770   14.6780 C.3    41  TYR41       0.1605
      3  C          5.7690   13.6880   13.7670 C.2    41  TYR41       0.2264
      4  O          5.4140   13.5680   12.5990 O.2    41  TYR41      -0.2867
      5  CB         7.4650   12.3320   14.9930 C.3    41  TYR41       0.0534
      6  CG         8.3820   12.3630   13.7910 C.ar   41  TYR41      -0.0201
      7  CD1        8.6700   11.2050   13.0820 C.ar   41  TYR41      -0.0009
      8  CD2        8.9640   13.5610   13.3550 C.ar   41  TYR41      -0.0009
      9  CE1        9.5200   11.2330   11.9740 C.ar   41  TYR41       0.0417
     10  CE2        9.7960   13.5940   12.2410 C.ar   41  TYR41       0.0417
     11  CZ        10.0620   12.4300   11.5560 C.ar   41  TYR41       0.1957
     12  OH        10.8840   12.4510   10.4620 O.3    41  TYR41      -0.2866
     13  N          7.4410   17.7070   12.7140 N.3    43  SER43      -0.1217
     14  CA         8.5970   18.5500   12.5750 C.3    43  SER43       0.1889
     15  C          8.1440   19.9590   12.2690 C.2    43  SER43       0.2288
     16  O          7.5000   20.2200   11.2520 O.2    43  SER43      -0.2866
     17  CB         9.5060   18.0310   11.4560 C.3    43  SER43       0.2089
     18  OG        10.6690   18.8130   11.3160 O.3    43  SER43      -0.2183
     19  N         15.6710   22.3190    6.5170 N.3    51  LYS51      -0.1245
     20  CA        16.0910   21.0690    7.1600 C.3    51  LYS51       0.1561
     21  C         16.5380   20.0980    6.0840 C.2    51  LYS51       0.2260
     22  O         15.7310   19.4540    5.4110 O.2    51  LYS51      -0.2867
     23  CB        14.9860   20.4480    8.0110 C.3    51  LYS51       0.0271
     24  CG        14.5990   21.2880    9.2210 C.3    51  LYS51       0.0035
     25  CD        13.6210   20.5360   10.1170 C.3    51  LYS51       0.0206
     26  CE        13.3590   21.2980   11.4150 C.3    51  LYS51       0.1093
     27  NZ        12.7100   20.4480   12.4600 N.3    51  LYS51      -0.1314
     28  N         20.3970   17.6560    4.8360 N.3    53  TRP53      -0.1227
     29  CA        19.7530   16.6220    4.0530 C.3    53  TRP53       0.1737
     30  C         19.7380   15.3670    4.8880 C.2    53  TRP53       0.2595
     31  O         20.6020   15.1630    5.7360 O.2    53  TRP53      -0.2718
     32  CB        20.5680   16.2920    2.8080 C.3    53  TRP53       0.0564
     33  CG        20.6810   17.3900    1.8070 C.ar   53  TRP53       0.0003
     34  CD1       21.6730   18.3070    1.7080 C.ar   53  TRP53       0.0946
     35  CD2       19.7620   17.6710    0.7540 C.ar   53  TRP53       0.0152
     36  NE1       21.4290   19.1600    0.6590 N.ar   53  TRP53      -0.2442
     37  CE2       20.2550   18.7920    0.0590 C.ar   53  TRP53       0.0810
     38  CE3       18.5530   17.0990    0.3430 C.ar   53  TRP53       0.0012
     39  CZ2       19.6080   19.3240   -1.0360 C.ar   53  TRP53       0.0191
     40  CZ3       17.9150   17.6230   -0.7410 C.ar   53  TRP53       0.0001
     41  CH2       18.4400   18.7230   -1.4290 C.ar   53  TRP53       0.0015
     42  N         18.7550   14.5320    4.6250 N.am   54  LYS54      -0.1980
     43  CA        18.6050   13.2620    5.3380 C.3    54  LYS54       0.1596
     44  C         18.3610   12.1190    4.3690 C.2    54  LYS54       0.2287
     45  O         17.7240   12.2800    3.3170 O.2    54  LYS54      -0.2864
     46  CB        17.4040   13.3260    6.2920 C.3    54  LYS54       0.0298
     47  CG        17.4670   12.2970    7.3960 C.3    54  LYS54       0.0038
     48  CD        18.7590   12.5650    8.1740 C.3    54  LYS54       0.0206
     49  CE        18.6710   12.1770    9.5960 C.3    54  LYS54       0.1093
     50  NZ        17.9390   13.2340   10.2930 N.3    54  LYS54      -0.1314
     51  N         17.6180    7.5960    4.8250 N.3    56  HIS56      -0.1241
     52  CA        17.4310    6.3790    5.6440 C.3    56  HIS56       0.1621
     53  C         17.7490    5.1460    4.8210 C.2    56  HIS56       0.2264
     54  O         17.4430    5.0930    3.6250 O.2    56  HIS56      -0.2867
     55  CB        16.0030    6.2670    6.1880 C.3    56  HIS56       0.0745
     56  CG        15.6920    7.2500    7.2630 C.ar   56  HIS56       0.0817
     57  ND1       15.6640    6.9050    8.5980 N.ar   56  HIS56      -0.2268
     58  CD2       15.4230    8.5740    7.2050 C.ar   56  HIS56       0.1154
     59  CE1       15.3820    7.9800    9.3130 C.ar   56  HIS56       0.1986
     60  NE2       15.2090    9.0000    8.4890 N.ar   56  HIS56      -0.2212
     61  N          9.3880    7.2740    4.2460 N.3    60  GLN60      -0.1245
     62  CA         8.7220    8.4400    4.8300 C.3    60  GLN60       0.1566
     63  C          7.3860    8.6720    4.1420 C.2    60  GLN60       0.2260
     64  O          7.2230    8.4030    2.9460 O.2    60  GLN60      -0.2867
     65  CB         9.5580    9.7230    4.6580 C.3    60  GLN60       0.0367
     66  CG        11.0700    9.5770    4.8080 C.3    60  GLN60       0.0905
     67  CD        11.5150    8.9040    6.0900 C.2    60  GLN60       0.2608
     68  OE1       10.9950    9.1820    7.1770 O.2    60  GLN60      -0.2717
     69  NE2       12.5440    8.0540    5.9780 N.am   60  GLN60      -0.0878
     70  N          5.0690   11.9370    4.3350 N.3    62  PHE62      -0.1241
     71  CA         4.9180   13.3410    4.7240 C.3    62  PHE62       0.1605
     72  C          3.5590   13.9120    4.3860 C.2    62  PHE62       0.2264
     73  O          3.0410   13.7420    3.2820 O.2    62  PHE62      -0.2867
     74  CB         5.9060   14.2410    3.9570 C.3    62  PHE62       0.0534
     75  CG         7.3040   14.3020    4.5180 C.ar   62  PHE62      -0.0203
     76  CD1        7.7780   13.3760    5.4080 C.ar   62  PHE62      -0.0042
     77  CD2        8.1770   15.2910    4.0550 C.ar   62  PHE62      -0.0042
     78  CE1        9.0830   13.4520    5.8940 C.ar   62  PHE62      -0.0003
     79  CE2        9.4980   15.3590    4.5190 C.ar   62  PHE62      -0.0003
     80  CZ         9.9410   14.4220    5.4400 C.ar   62  PHE62      -0.0000
     81  N         16.6430   13.5310    1.1900 N.3   108  TYR108     -0.1241
     82  CA        15.5860   14.5390    1.2690 C.3   108  TYR108      0.1605
     83  C         15.9290   15.7410    2.1430 C.2   108  TYR108      0.2264
     84  O         16.7180   15.6930    3.0590 O.2   108  TYR108     -0.2867
     85  CB        14.2290   13.9350    1.6490 C.3   108  TYR108      0.0534
     86  CG        14.1710   13.2080    2.9690 C.ar  108  TYR108     -0.0201
     87  CD1       14.4450   11.8580    3.0520 C.ar  108  TYR108     -0.0009
     88  CD2       13.8020   13.8730    4.1250 C.ar  108  TYR108     -0.0009
     89  CE1       14.3750   11.1830    4.2760 C.ar  108  TYR108      0.0417
     90  CE2       13.7330   13.2270    5.3440 C.ar  108  TYR108      0.0417
     91  CZ        14.0150   11.8800    5.4180 C.ar  108  TYR108      0.1957
     92  OH        13.9440   11.2300    6.6390 O.3   108  TYR108     -0.2866
     93  N         13.9240   19.8230    3.1420 N.3   110  PHE110     -0.1241
     94  CA        12.7280   20.6560    3.0130 C.3   110  PHE110      0.1605
     95  C         12.8650   21.9640    3.7620 C.2   110  PHE110      0.2264
     96  O         13.6710   22.0940    4.6880 O.2   110  PHE110     -0.2867
     97  CB        11.4630   19.8930    3.4400 C.3   110  PHE110      0.0534
     98  CG        11.5390   19.2830    4.8200 C.ar  110  PHE110     -0.0203
     99  CD1       11.1910   20.0050    5.9330 C.ar  110  PHE110     -0.0042
    100  CD2       11.9570   17.9720    4.9920 C.ar  110  PHE110     -0.0042
    101  CE1       11.2410   19.4420    7.1980 C.ar  110  PHE110     -0.0003
    102  CE2       12.0240   17.4080    6.2420 C.ar  110  PHE110     -0.0003
    103  CZ        11.6690   18.1480    7.3570 C.ar  110  PHE110     -0.0000
    104  N         12.2510    5.3210   14.6780 N.3   128  HIS128     -0.1241
    105  CA        13.5970    5.8660   14.6270 C.3   128  HIS128      0.1621
    106  C         14.5780    5.0370   15.4180 C.2   128  HIS128      0.2264
    107  O         14.3290    4.6740   16.5480 O.2   128  HIS128     -0.2867
    108  CB        13.6470    7.2850   15.1620 C.3   128  HIS128      0.0745
    109  CG        15.0250    7.8530   15.1530 C.ar  128  HIS128      0.0817
    110  ND1       15.5660    8.4520   14.0360 N.ar  128  HIS128     -0.2268
    111  CD2       15.9950    7.8620   16.0990 C.ar  128  HIS128      0.1154
    112  CE1       16.8010    8.8350   14.3060 C.ar  128  HIS128      0.1986
    113  NE2       17.0890    8.4810   15.5470 N.ar  128  HIS128     -0.2212
    114  N         19.9200    5.9930    9.9170 N.3   133  SER133     -0.1217
    115  CA        19.8290    7.1820    9.0700 C.3   133  SER133      0.1889
    116  C         21.1530    7.8780    8.9650 C.2   133  SER133      0.2288
    117  O         22.0580    7.6820    9.7620 O.2   133  SER133     -0.2866
    118  CB        18.7880    8.1820    9.5520 C.3   133  SER133      0.2089
    119  OG        19.2240    8.8520   10.7160 O.3   133  SER133     -0.2183
@<TRIPOS>BOND
     1    41    39   ar
     2    41    40   ar
     3    39    37   ar
     4    40    38   ar
     5    37    36   ar
     6    37    35   ar
     7    38    35   ar
     8    36    34   ar
     9    35    33   ar
    10    81    82    1
    11    82    85    1
    12    82    83    1
    13    85    86    1
    14    34    33   ar
    15    33    32    1
    16    83    84    2
    17    32    29    1
    18    64    63    2
    19    86    87   ar
    20    86    88   ar
    21    94    93    1
    22    94    97    1
    23    94    95    1
    24    87    89   ar
    25    73    72    2
    26    45    44    2
    27    97    98    1
    28    54    53    2
    29    95    96    2
    30    74    75    1
    31    74    71    1
    32    29    28    1
    33    29    30    1
    34    77    75   ar
    35    77    79   ar
    36    88    90   ar
    37    63    62    1
    38    61    62    1
    39    89    91   ar
    40    70    71    1
    41    44    43    1
    42    72    71    1
    43    75    76   ar
    44    79    80   ar
    45    42    30   am
    46    42    43    1
    47    65    66    1
    48    65    62    1
    49    66    67    1
    50    98   100   ar
    51    98    99   ar
    52    53    52    1
    53    51    52    1
    54    30    31    2
    55   100   102   ar
    56    43    46    1
    57    90    91   ar
    58    76    78   ar
    59    22    21    2
    60    91    92    1
    61    80    78   ar
    62    52    55    1
    63    99   101   ar
    64    69    67   am
    65    21    20    1
    66    67    68    2
    67    55    56    1
    68   102   103   ar
    69    46    47    1
    70    19    20    1
    71    20    23    1
    72   101   103   ar
    73    58    56   ar
    74    58    60   ar
    75    56    57   ar
    76    47    48    1
    77    23    24    1
    78    48    49    1
    79    60    59   ar
    80    57    59   ar
    81   116   115    1
    82   116   117    2
    83   115   118    1
    84   115   114    1
    85    24    25    1
    86   118   119    1
    87    49    50    1
    88    25    26    1
    89    12    11    1
    90    16    15    2
    91    18    17    1
    92    26    27    1
    93    17    14    1
    94    11     9   ar
    95    11    10   ar
    96     9     7   ar
    97    10     8   ar
    98    15    14    1
    99    14    13    1
   100     4     3    2
   101     7     6   ar
   102     8     6   ar
   103     3     2    1
   104     6     5    1
   105   110   112   ar
   106   110   109   ar
   107     1     2    1
   108   112   113   ar
   109   105   104    1
   110   105   108    1
   111   105   106    1
   112     2     5    1
   113   109   108    1
   114   109   111   ar
   115   106   107    2
   116   113   111   ar
