@<TRIPOS>MOLECULE
tmp/3ejlD00.pdb
 88 86 0 0 0
SMALL
GASTEIGER

@<TRIPOS>ATOM
      1  N        -75.1650  -21.3690   36.3080 N.3    25  ARG25      -0.1245
      2  CA       -74.7610  -20.9570   37.6370 C.3    25  ARG25       0.1563
      3  C        -73.8670  -21.9800   38.2800 C.2    25  ARG25       0.2260
      4  O        -72.6880  -21.7200   38.5090 O.2    25  ARG25      -0.2867
      5  CB       -75.9870  -20.7520   38.5120 C.3    25  ARG25       0.0307
      6  CG       -76.9540  -19.8450   37.8660 C.3    25  ARG25       0.0489
      7  CD       -77.8500  -20.6250   36.9830 C.3    25  ARG25       0.2205
      8  NE       -78.8240  -21.3600   37.7820 N.pl3  25  ARG25      -0.0865
      9  CZ       -79.0280  -22.6570   37.6400 C.cat  25  ARG25       0.5346
     10  NH1      -78.3110  -23.3090   36.7400 N.pl3  25  ARG25       0.1354
     11  NH2      -79.9340  -23.2920   38.3740 N.pl3  25  ARG25       0.1354
     12  N        -87.5880   -6.0620   41.1520 N.3   157  TRP157     -0.1241
     13  CA       -86.1350   -6.0160   41.0200 C.3   157  TRP157      0.1605
     14  C        -85.5490   -4.9280   41.9020 C.2   157  TRP157      0.2264
     15  O        -85.9300   -3.7710   41.7780 O.2   157  TRP157     -0.2867
     16  CB       -85.7540   -5.7410   39.5700 C.3   157  TRP157      0.0550
     17  CG       -84.2960   -5.8010   39.3320 C.ar  157  TRP157      0.0003
     18  CD1      -83.4430   -4.7510   39.2030 C.ar  157  TRP157      0.0946
     19  CD2      -83.5030   -6.9830   39.2100 C.ar  157  TRP157      0.0152
     20  NE1      -82.1610   -5.2020   39.0060 N.ar  157  TRP157     -0.2442
     21  CE2      -82.1680   -6.5750   39.0050 C.ar  157  TRP157      0.0810
     22  CE3      -83.7890   -8.3570   39.2470 C.ar  157  TRP157      0.0012
     23  CZ2      -81.1170   -7.4860   38.8410 C.ar  157  TRP157      0.0191
     24  CZ3      -82.7490   -9.2630   39.0790 C.ar  157  TRP157      0.0001
     25  CH2      -81.4290   -8.8220   38.8770 C.ar  157  TRP157      0.0015
     26  N        -80.2280   -6.1380   46.8590 N.3   162  LEU162     -0.1231
     27  CA       -79.8920   -7.3160   46.0720 C.3   162  LEU162      0.1678
     28  C        -78.9140   -8.2360   46.7960 C.2   162  LEU162      0.2434
     29  O        -79.1790   -9.4280   46.9360 O.2   162  LEU162     -0.2733
     30  CB       -79.3050   -6.8900   44.7220 C.3   162  LEU162      0.0284
     31  CG       -79.6860   -7.6750   43.4620 C.3   162  LEU162      0.0019
     32  CD1      -79.3350   -9.1460   43.6350 C.3   162  LEU162      0.0001
     33  CD2      -81.1730   -7.5030   43.1880 C.3   162  LEU162      0.0001
     34  N        -77.7700   -7.6970   47.2650 N.am  163  PRO163     -0.2729
     35  CA       -76.7670   -8.5040   47.9730 C.3   163  PRO163      0.1401
     36  C        -77.3350   -9.2420   49.1810 C.2   163  PRO163      0.2269
     37  O        -76.7030  -10.1520   49.7190 O.2   163  PRO163     -0.2865
     38  CB       -75.7140   -7.4730   48.3690 C.3   163  PRO163      0.0296
     39  CG       -75.8090   -6.4580   47.2670 C.3   163  PRO163      0.0237
     40  CD       -77.3020   -6.3050   47.1290 C.3   163  PRO163      0.0939
     41  N        -82.3980  -16.2070   47.2020 N.3   167  LEU167     -0.1231
     42  CA       -82.2680  -16.5580   45.7940 C.3   167  LEU167      0.1678
     43  C        -82.7380  -15.3940   44.9310 C.2   167  LEU167      0.2434
     44  O        -83.9250  -15.0920   44.8580 O.2   167  LEU167     -0.2733
     45  CB       -83.0800  -17.8130   45.4430 C.3   167  LEU167      0.0284
     46  CG       -83.1220  -18.1310   43.9340 C.3   167  LEU167      0.0019
     47  CD1      -81.7220  -18.0540   43.3360 C.3   167  LEU167      0.0001
     48  CD2      -83.7180  -19.5070   43.7000 C.3   167  LEU167      0.0001
     49  N        -81.8030  -14.7060   44.2730 N.am  168  PRO168     -0.2729
     50  CA       -82.1780  -13.5740   43.4170 C.3   168  PRO168      0.1401
     51  C        -83.2740  -14.0220   42.4220 C.2   168  PRO168      0.2269
     52  O        -83.1450  -15.0500   41.7640 O.2   168  PRO168     -0.2865
     53  CB       -80.8730  -13.1970   42.7310 C.3   168  PRO168      0.0296
     54  CG       -79.8200  -13.8050   43.5560 C.3   168  PRO168      0.0237
     55  CD       -80.3550  -14.9440   44.3120 C.3   168  PRO168      0.0939
     56  N        -86.3320  -14.5350   39.4230 N.3   170  CYS170     -0.1235
     57  CA       -86.5020  -14.7880   37.9470 C.3   170  CYS170      0.1677
     58  C        -87.7330  -14.1150   37.2500 C.2   170  CYS170      0.2270
     59  O        -87.7270  -13.9270   35.9900 O.2   170  CYS170     -0.2867
     60  CB       -86.6080  -16.2830   37.5870 C.3   170  CYS170      0.0956
     61  SG       -86.4030  -17.4040   38.9870 S.3   170  CYS170     -0.0801
     62  N        -86.2820  -13.5320   33.7080 N.3   190  ARG190     -0.1231
     63  CA       -84.8930  -13.2220   33.3690 C.3   190  ARG190      0.1694
     64  C        -84.1450  -14.5350   33.1410 C.2   190  ARG190      0.2592
     65  O        -83.2000  -14.5970   32.3430 O.2   190  ARG190     -0.2718
     66  CB       -84.2250  -12.4280   34.4870 C.3   190  ARG190      0.0321
     67  CG       -84.1580  -13.1600   35.8060 C.3   190  ARG190      0.0489
     68  CD       -83.0720  -12.5560   36.6840 C.3   190  ARG190      0.2205
     69  NE       -82.9120  -13.2690   37.9480 N.pl3 190  ARG190     -0.0865
     70  CZ       -82.4590  -14.5170   38.0640 C.cat 190  ARG190      0.5346
     71  NH1      -82.1130  -15.2080   36.9840 N.pl3 190  ARG190      0.1354
     72  NH2      -82.3470  -15.0790   39.2650 N.pl3 190  ARG190      0.1354
     73  N        -84.5940  -15.5780   33.8400 N.am  191  SER191     -0.1952
     74  CA       -84.0120  -16.9100   33.7420 C.3   191  SER191      0.1924
     75  C        -85.1520  -17.9030   33.6210 C.2   191  SER191      0.2314
     76  O        -85.8840  -18.1350   34.5750 O.2   191  SER191     -0.2863
     77  CB       -83.1870  -17.2150   34.9980 C.3   191  SER191      0.2116
     78  OG       -82.9410  -18.6080   35.1550 O.3   191  SER191     -0.2180
     79  N        -83.9870  -21.7100   28.9670 N.3   231  HIS231     -0.1241
     80  CA       -83.0570  -22.8300   28.8560 C.3   231  HIS231      0.1621
     81  C        -83.6040  -24.1950   29.2690 C.2   231  HIS231      0.2264
     82  O        -84.6180  -24.3230   29.9550 O.2   231  HIS231     -0.2867
     83  CB       -81.7970  -22.5510   29.6880 C.3   231  HIS231      0.0745
     84  CG       -82.0600  -22.4490   31.1610 C.ar  231  HIS231      0.0817
     85  ND1      -82.3190  -21.2560   31.7940 N.ar  231  HIS231     -0.2268
     86  CD2      -82.1450  -23.4110   32.1110 C.ar  231  HIS231      0.1154
     87  CE1      -82.5530  -21.4820   33.0770 C.ar  231  HIS231      0.1986
     88  NE2      -82.4540  -22.7780   33.2920 N.ar  231  HIS231     -0.2212
@<TRIPOS>BOND
     1    80    79    1
     2    80    81    1
     3    80    83    1
     4    81    82    2
     5    83    84    1
     6    84    85   ar
     7    84    86   ar
     8    85    87   ar
     9    86    88   ar
    10    65    64    2
    11    87    88   ar
    12    64    63    1
    13    64    73   am
    14    63    62    1
    15    63    66    1
    16    75    74    1
    17    75    76    2
    18    74    73    1
    19    74    77    1
    20    66    67    1
    21    77    78    1
    22    67    68    1
    23    59    58    2
    24     1     2    1
    25    68    69    1
    26    10     9    1
    27     7     8    1
    28     7     6    1
    29    71    70    1
    30    58    57    1
    31    60    57    1
    32    60    61    1
    33     2     3    1
    34     2     5    1
    35     9     8    2
    36     9    11    1
    37     6     5    1
    38    57    56    1
    39    69    70    2
    40    70    72    1
    41     3     4    2
    42    23    25   ar
    43    23    21   ar
    44    25    24   ar
    45    21    20   ar
    46    21    19   ar
    47    20    18   ar
    48    24    22   ar
    49    18    17   ar
    50    19    22   ar
    51    19    17   ar
    52    17    16    1
    53    16    13    1
    54    13    12    1
    55    13    14    1
    56    52    51    2
    57    15    14    2
    58    51    50    1
    59    53    50    1
    60    53    54    1
    61    33    31    1
    62    47    46    1
    63    50    49    1
    64    31    32    1
    65    31    30    1
    66    54    55    1
    67    48    46    1
    68    46    45    1
    69    49    55    1
    70    49    43   am
    71    30    27    1
    72    44    43    2
    73    43    42    1
    74    45    42    1
    75    42    41    1
    76    27    28    1
    77    27    26    1
    78    28    29    2
    79    28    34   am
    80    40    34    1
    81    40    39    1
    82    34    35    1
    83    39    38    1
    84    35    38    1
    85    35    36    1
    86    36    37    2
