@<TRIPOS>MOLECULE
tmp/3ejwA00.pdb
 145 144 0 0 0
SMALL
GASTEIGER

@<TRIPOS>ATOM
      1  N         22.7300   33.0020   44.2950 N.3     9  LYS9       -0.1245
      2  CA        23.1990   31.6440   44.5910 C.3     9  LYS9        0.1561
      3  C         23.3890   31.4900   46.0930 C.2     9  LYS9        0.2260
      4  O         23.0590   30.4580   46.6730 O.2     9  LYS9       -0.2867
      5  CB        24.5260   31.3490   43.8860 C.3     9  LYS9        0.0271
      6  CG        24.4040   31.1920   42.3700 C.3     9  LYS9        0.0035
      7  CD        25.7730   30.8090   41.7550 C.3     9  LYS9        0.0206
      8  CE        25.7460   30.9070   40.2400 C.3     9  LYS9        0.1093
      9  NZ        27.1420   30.7760   39.6870 N.3     9  LYS9       -0.1314
     10  N         29.6470   39.9290   45.0950 N.3    15  PHE15      -0.1227
     11  CA        28.9620   39.9200   43.8020 C.3    15  PHE15       0.1736
     12  C         27.4470   39.9410   43.9840 C.2    15  PHE15       0.2595
     13  O         26.7210   40.7110   43.3330 O.2    15  PHE15      -0.2718
     14  CB        29.3760   38.6870   42.9920 C.3    15  PHE15       0.0547
     15  CG        28.6480   38.5510   41.6850 C.ar   15  PHE15      -0.0202
     16  CD1       27.4820   37.8030   41.6000 C.ar   15  PHE15      -0.0042
     17  CD2       29.1280   39.1810   40.5360 C.ar   15  PHE15      -0.0042
     18  CE1       26.8000   37.6770   40.3970 C.ar   15  PHE15      -0.0003
     19  CE2       28.4440   39.0660   39.3290 C.ar   15  PHE15      -0.0003
     20  CZ        27.2830   38.3140   39.2570 C.ar   15  PHE15      -0.0000
     21  N         26.9600   39.0830   44.8670 N.am   16  PHE16      -0.1976
     22  CA        25.5220   38.9410   45.0360 C.3    16  PHE16       0.1639
     23  C         24.9360   40.0820   45.8610 C.2    16  PHE16       0.2290
     24  O         23.8320   40.5440   45.6040 O.2    16  PHE16      -0.2864
     25  CB        25.2000   37.5610   45.6170 C.3    16  PHE16       0.0560
     26  CG        25.4610   36.4490   44.6480 C.ar   16  PHE16      -0.0200
     27  CD1       24.6650   36.3140   43.5190 C.ar   16  PHE16      -0.0042
     28  CD2       26.5020   35.5560   44.8470 C.ar   16  PHE16      -0.0042
     29  CE1       24.9030   35.3060   42.5940 C.ar   16  PHE16      -0.0003
     30  CE2       26.7520   34.5390   43.9310 C.ar   16  PHE16      -0.0003
     31  CZ        25.9510   34.4120   42.7990 C.ar   16  PHE16      -0.0000
     32  N         22.3380   36.0310   35.9290 N.3    90  ASP90      -0.1239
     33  CA        23.6780   35.5270   36.2330 C.3    90  ASP90       0.1674
     34  C         23.8290   34.0730   35.7690 C.2    90  ASP90       0.2266
     35  O         24.4210   33.8030   34.7140 O.2    90  ASP90      -0.2867
     36  CB        23.9580   35.6940   37.7300 C.3    90  ASP90       0.1410
     37  CG        25.3240   35.1700   38.1400 C.2    90  ASP90       0.3668
     38  OD1       26.2970   35.3100   37.3580 O.co2  90  ASP90      -0.2456
     39  OD2       25.4120   34.5990   39.2460 O.co2  90  ASP90      -0.2456
     40  N         26.1560   28.5350   34.9390 N.3   140  ASP140     -0.1225
     41  CA        26.9360   29.5570   34.2560 C.3   140  ASP140      0.1805
     42  C         28.4040   29.1770   34.0970 C.2   140  ASP140      0.2597
     43  O         28.9400   29.1610   32.9880 O.2   140  ASP140     -0.2718
     44  CB        26.7770   30.9420   34.9070 C.3   140  ASP140      0.1424
     45  CG        27.2340   30.9920   36.3740 C.2   140  ASP140      0.3668
     46  OD1       27.3570   29.9320   37.0390 O.co2 140  ASP140     -0.2456
     47  OD2       27.4550   32.1240   36.8610 O.co2 140  ASP140     -0.2456
     48  N         29.0640   28.8710   35.2020 N.am  141  GLN141     -0.1979
     49  CA        30.5090   28.7000   35.1420 C.3   141  GLN141      0.1601
     50  C         30.9400   27.4980   34.3020 C.2   141  GLN141      0.2287
     51  O         31.9500   27.5640   33.6030 O.2   141  GLN141     -0.2864
     52  CB        31.0980   28.6420   36.5460 C.3   141  GLN141      0.0394
     53  CG        30.7540   29.8820   37.3570 C.3   141  GLN141      0.0908
     54  CD        31.2030   29.7650   38.7900 C.2   141  GLN141      0.2608
     55  OE1       31.8350   28.7720   39.1710 O.2   141  GLN141     -0.2717
     56  NE2       30.8790   30.7750   39.5990 N.am  141  GLN141     -0.0878
     57  N         30.7810   28.4890   30.6850 N.3   144  TRP144     -0.1241
     58  CA        31.9260   29.3330   30.3230 C.3   144  TRP144      0.1605
     59  C         33.2310   28.5490   30.2600 C.2   144  TRP144      0.2264
     60  O         34.0710   28.7680   29.3750 O.2   144  TRP144     -0.2867
     61  CB        32.1030   30.4890   31.3110 C.3   144  TRP144      0.0550
     62  CG        30.8790   31.2780   31.6010 C.ar  144  TRP144      0.0003
     63  CD1       29.7850   31.4610   30.7870 C.ar  144  TRP144      0.0946
     64  CD2       30.6210   32.0210   32.7960 C.ar  144  TRP144      0.0152
     65  NE1       28.8640   32.2630   31.4190 N.ar  144  TRP144     -0.2442
     66  CE2       29.3580   32.6260   32.6490 C.ar  144  TRP144      0.0810
     67  CE3       31.3380   32.2250   33.9820 C.ar  144  TRP144      0.0012
     68  CZ2       28.7980   33.4240   33.6390 C.ar  144  TRP144      0.0191
     69  CZ3       30.7830   33.0160   34.9610 C.ar  144  TRP144      0.0001
     70  CH2       29.5230   33.6070   34.7850 C.ar  144  TRP144      0.0015
     71  N         31.9200   28.0400   46.2890 N.3   169  ASN169     -0.1240
     72  CA        31.4650   29.3570   46.7460 C.3   169  ASN169      0.1653
     73  C         31.8220   29.5600   48.2110 C.2   169  ASN169      0.2266
     74  O         31.1390   30.2890   48.9350 O.2   169  ASN169     -0.2867
     75  CB        29.9460   29.5250   46.5670 C.3   169  ASN169      0.1155
     76  CG        29.4710   29.2070   45.1510 C.2   169  ASN169      0.2627
     77  OD1       29.5100   30.0610   44.2690 O.2   169  ASN169     -0.2716
     78  ND2       28.9820   27.9860   44.9450 N.am  169  ASN169     -0.0877
     79  N         36.8790   31.3610   37.0480 N.3   194  PRO194     -0.2102
     80  CA        35.6490   32.1090   36.7720 C.3   194  PRO194      0.1504
     81  C         34.6050   31.9960   37.8900 C.2   194  PRO194      0.2576
     82  O         33.4940   31.5100   37.6590 O.2   194  PRO194     -0.2718
     83  CB        35.1190   31.4500   35.4820 C.3   194  PRO194      0.0282
     84  CG        35.6580   30.0670   35.5150 C.3   194  PRO194      0.0208
     85  CD        36.9990   30.1390   36.2240 C.3   194  PRO194      0.0893
     86  N         34.9660   32.4640   39.0770 N.am  195  ASP195     -0.1960
     87  CA        34.0980   32.4110   40.2450 C.3   195  ASP195      0.1840
     88  C         34.5290   33.4120   41.2990 C.2   195  ASP195      0.2622
     89  O         35.7210   33.5170   41.6220 O.2   195  ASP195     -0.2715
     90  CB        34.1150   31.0360   40.8970 C.3   195  ASP195      0.1450
     91  CG        33.3110   31.0160   42.1920 C.2   195  ASP195      0.3671
     92  OD1       32.0700   31.0790   42.1260 O.co2 195  ASP195     -0.2456
     93  OD2       33.9210   30.9760   43.2750 O.co2 195  ASP195     -0.2456
     94  N         33.5460   34.0940   41.8810 N.am  196  ALA196     -0.1963
     95  CA        33.8150   35.2490   42.7360 C.3   196  ALA196      0.1728
     96  C         34.6300   34.9110   43.9850 C.2   196  ALA196      0.2616
     97  O         35.2980   35.7750   44.5350 O.2   196  ALA196     -0.2715
     98  CB        32.5180   35.9430   43.1060 C.3   196  ALA196      0.0334
     99  N         34.5530   33.6670   44.4310 N.am  197  ASN197     -0.1972
    100  CA        35.3080   33.2160   45.5990 C.3   197  ASN197      0.1688
    101  C         36.5930   32.5300   45.2080 C.2   197  ASN197      0.2292
    102  O         37.5980   32.6140   45.9150 O.2   197  ASN197     -0.2864
    103  CB        34.4750   32.2430   46.4300 C.3   197  ASN197      0.1181
    104  CG        33.3810   32.9330   47.1940 C.2   197  ASN197      0.2629
    105  OD1       33.6330   33.6120   48.1960 O.2   197  ASN197     -0.2716
    106  ND2       32.1560   32.7640   46.7370 N.am  197  ASN197     -0.0877
    107  N         36.8350   35.8750   37.3390 N.3   220  PHE220     -0.1227
    108  CA        35.7400   36.8160   37.5270 C.3   220  PHE220      0.1736
    109  C         35.4590   36.9790   39.0080 C.2   220  PHE220      0.2596
    110  O         35.1510   36.0020   39.6910 O.2   220  PHE220     -0.2718
    111  CB        34.4430   36.3170   36.8780 C.3   220  PHE220      0.0547
    112  CG        34.5270   36.0810   35.3940 C.ar  220  PHE220     -0.0202
    113  CD1       35.3170   36.8730   34.5730 C.ar  220  PHE220     -0.0042
    114  CD2       33.7470   35.0860   34.8150 C.ar  220  PHE220     -0.0042
    115  CE1       35.3510   36.6440   33.1860 C.ar  220  PHE220     -0.0003
    116  CE2       33.7780   34.8490   33.4430 C.ar  220  PHE220     -0.0003
    117  CZ        34.5790   35.6310   32.6310 C.ar  220  PHE220     -0.0000
    118  N         35.5460   38.2160   39.4850 N.am  221  SER221     -0.1952
    119  CA        35.1510   38.5610   40.8420 C.3   221  SER221      0.1924
    120  C         34.8590   40.0620   40.9060 C.2   221  SER221      0.2314
    121  O         34.8980   40.7430   39.8810 O.2   221  SER221     -0.2863
    122  CB        36.2450   38.1470   41.8430 C.3   221  SER221      0.2116
    123  OG        35.7440   38.1890   43.1750 O.3   221  SER221     -0.2180
    124  N         34.6990   41.3230   34.8750 N.3   240  LEU240     -0.1231
    125  CA        33.3280   41.1700   35.3420 C.3   240  LEU240      0.1693
    126  C         32.4460   42.0230   34.4340 C.2   240  LEU240      0.2592
    127  O         32.6770   42.0900   33.2270 O.2   240  LEU240     -0.2718
    128  CB        33.1640   41.5710   36.8130 C.3   240  LEU240      0.0284
    129  CG        31.9390   40.9500   37.5050 C.3   240  LEU240      0.0019
    130  CD1       32.1530   39.4560   37.7600 C.3   240  LEU240      0.0001
    131  CD2       31.5860   41.6840   38.8130 C.3   240  LEU240      0.0001
    132  N         31.4570   42.6830   35.0220 N.am  241  TRP241     -0.1976
    133  CA        30.4610   43.4360   34.2760 C.3   241  TRP241      0.1640
    134  C         29.6930   44.2360   35.3150 C.2   241  TRP241      0.2290
    135  O         29.9640   44.1150   36.5150 O.2   241  TRP241     -0.2864
    136  CB        29.5420   42.4770   33.5110 C.3   241  TRP241      0.0576
    137  CG        29.0180   41.3650   34.3830 C.ar  241  TRP241      0.0006
    138  CD1       27.9140   41.4060   35.1780 C.ar  241  TRP241      0.0946
    139  CD2       29.6100   40.0660   34.5810 C.ar  241  TRP241      0.0152
    140  NE1       27.7680   40.2090   35.8440 N.ar  241  TRP241     -0.2442
    141  CE2       28.7920   39.3690   35.4900 C.ar  241  TRP241      0.0810
    142  CE3       30.7400   39.4200   34.0540 C.ar  241  TRP241      0.0012
    143  CZ2       29.0780   38.0580   35.9110 C.ar  241  TRP241      0.0191
    144  CZ3       31.0180   38.1220   34.4570 C.ar  241  TRP241      0.0001
    145  CH2       30.1940   37.4570   35.3880 C.ar  241  TRP241      0.0015
@<TRIPOS>BOND
     1    60    59    2
     2    59    58    1
     3    58    57    1
     4    58    61    1
     5    63    65   ar
     6    63    62   ar
     7    61    62    1
     8    65    66   ar
     9    62    64   ar
    10   117   115   ar
    11   117   116   ar
    12    66    64   ar
    13    66    68   ar
    14    64    67   ar
    15    43    42    2
    16   115   113   ar
    17   127   126    2
    18   116   114   ar
    19   136   133    1
    20   136   137    1
    21    51    50    2
    22    68    70   ar
    23    67    69   ar
    24   142   144   ar
    25   142   139   ar
    26    42    41    1
    27    42    48   am
    28    41    44    1
    29    41    40    1
    30   133   132    1
    31   133   134    1
    32    50    49    1
    33   137   139   ar
    34   137   138   ar
    35   126   132   am
    36   126   125    1
    37   144   145   ar
    38   113   112   ar
    39   139   141   ar
    40    35    34    2
    41    70    69   ar
    42   114   112   ar
    43   124   125    1
    44    44    45    1
    45    49    48    1
    46    49    52    1
    47   138   140   ar
    48   134   135    2
    49   125   128    1
    50   145   143   ar
    51   112   111    1
    52    83    84    1
    53    83    80    1
    54   141   140   ar
    55   141   143   ar
    56    84    85    1
    57    34    33    1
    58    32    33    1
    59    85    79    1
    60    33    36    1
    61    45    47   ar
    62    45    46   ar
    63    52    53    1
    64    80    79    1
    65    80    81    1
    66   128   129    1
    67   111   108    1
    68   107   108    1
    69    53    54    1
    70    38    37   ar
    71   129   130    1
    72   129   131    1
    73   108   109    1
    74    82    81    2
    75    36    37    1
    76    81    86   am
    77    37    39   ar
    78    54    55    2
    79    54    56   am
    80   109   118   am
    81   109   110    2
    82    86    87    1
    83    20    19   ar
    84    20    18   ar
    85    19    17   ar
    86   118   119    1
    87     9     8    1
    88   121   120    2
    89     8     7    1
    90    87    90    1
    91    87    88    1
    92    18    16   ar
    93    17    15   ar
    94   119   120    1
    95   119   122    1
    96    90    91    1
    97    88    89    2
    98    88    94   am
    99    16    15   ar
   100    15    14    1
   101     7     6    1
   102   122   123    1
   103    94    95    1
   104    92    91   ar
   105    91    93   ar
   106     6     5    1
   107    29    31   ar
   108    29    27   ar
   109    95    98    1
   110    95    96    1
   111    31    30   ar
   112    14    11    1
   113    13    12    2
   114    27    26   ar
   115    11    12    1
   116    11    10    1
   117     5     2    1
   118    30    28   ar
   119    12    21   am
   120    96    99   am
   121    96    97    2
   122    77    76    2
   123     1     2    1
   124    99   100    1
   125     2     3    1
   126    26    28   ar
   127    26    25    1
   128    21    22    1
   129    78    76   am
   130    22    25    1
   131    22    23    1
   132    76    75    1
   133   101   100    1
   134   101   102    2
   135   100   103    1
   136    24    23    2
   137     3     4    2
   138    71    72    1
   139   103   104    1
   140    75    72    1
   141   106   104   am
   142    72    73    1
   143   104   105    2
   144    73    74    2
