@<TRIPOS>MOLECULE
tmp/3ek1A00.pdb
 114 106 0 0 0
SMALL
GASTEIGER

@<TRIPOS>ATOM
      1  N         21.9470    7.5630  -21.0930 N.3   111  GLU111     -0.1245
      2  CA        21.9730    7.9210  -19.6810 C.3   111  GLU111      0.1567
      3  C         21.1180    9.1790  -19.4120 C.2   111  GLU111      0.2260
      4  O         20.3970    9.2550  -18.4230 O.2   111  GLU111     -0.2867
      5  CB        23.3880    8.0820  -19.1270 C.3   111  GLU111      0.0388
      6  CG        23.3160    8.6600  -17.7540 C.3   111  GLU111      0.1160
      7  CD        24.6730    8.8990  -17.0850 C.2   111  GLU111      0.3649
      8  OE1       25.7400    8.4930  -17.6270 O.co2 111  GLU111     -0.2457
      9  OE2       24.6140    9.4920  -16.0090 O.co2 111  GLU111     -0.2457
     10  N         17.5570    8.1950  -19.2220 N.3   114  TYR114     -0.1241
     11  CA        17.4420    7.4930  -17.9590 C.3   114  TYR114      0.1605
     12  C         17.4690    8.4460  -16.7580 C.2   114  TYR114      0.2264
     13  O         16.5360    8.4020  -15.8890 O.2   114  TYR114     -0.2867
     14  CB        18.5450    6.4460  -17.9030 C.3   114  TYR114      0.0534
     15  CG        18.8180    5.7640  -16.5780 C.ar  114  TYR114     -0.0201
     16  CD1       17.9300    4.8190  -16.0310 C.ar  114  TYR114     -0.0009
     17  CD2       19.9980    5.9900  -15.9250 C.ar  114  TYR114     -0.0009
     18  CE1       18.2380    4.1580  -14.8170 C.ar  114  TYR114      0.0417
     19  CE2       20.3150    5.3270  -14.7520 C.ar  114  TYR114      0.0417
     20  CZ        19.4350    4.4180  -14.1980 C.ar  114  TYR114      0.1957
     21  OH        19.7710    3.8550  -12.9800 O.3   114  TYR114     -0.2866
     22  N         28.2040    7.6530  -13.8620 N.3   161  PHE161     -0.1241
     23  CA        26.9380    8.1160  -14.3990 C.3   161  PHE161      0.1605
     24  C         26.7280    9.5460  -13.9970 C.2   161  PHE161      0.2264
     25  O         25.9380    9.8260  -13.0990 O.2   161  PHE161     -0.2867
     26  CB        25.7810    7.2230  -13.9430 C.3   161  PHE161      0.0534
     27  CG        25.7300    5.9800  -14.7120 C.ar  161  PHE161     -0.0203
     28  CD1       25.0030    5.9040  -15.8710 C.ar  161  PHE161     -0.0042
     29  CD2       26.5210    4.9170  -14.3540 C.ar  161  PHE161     -0.0042
     30  CE1       25.0200    4.7650  -16.6480 C.ar  161  PHE161     -0.0003
     31  CE2       26.5090    3.7780  -15.1150 C.ar  161  PHE161     -0.0003
     32  CZ        25.7540    3.7210  -16.2700 C.ar  161  PHE161     -0.0000
     33  N         23.1330    9.6690  -11.4640 N.3   165  MET165     -0.1245
     34  CA        23.3920    9.6420  -10.0410 C.3   165  MET165      0.1570
     35  C         22.9000   10.9230   -9.3550 C.2   165  MET165      0.2261
     36  O         22.4230   10.8770   -8.2180 O.2   165  MET165     -0.2867
     37  CB        24.8700    9.3980   -9.7440 C.3   165  MET165      0.0387
     38  CG        25.3800    7.9610   -9.9420 C.3   165  MET165      0.0595
     39  SD        24.1110    6.7450   -9.8360 S.3   165  MET165     -0.1393
     40  CE        23.6150    6.5500  -11.5420 C.3   165  MET165      0.0692
     41  N         18.8210   10.8140   -9.6000 N.3   168  ARG168     -0.1245
     42  CA        18.2750    9.8230   -8.7150 C.3   168  ARG168      0.1563
     43  C         18.2020   10.2790   -7.2480 C.2   168  ARG168      0.2260
     44  O         17.4870    9.6700   -6.4640 O.2   168  ARG168     -0.2867
     45  CB        19.0960    8.5010   -8.7920 C.3   168  ARG168      0.0307
     46  CG        18.8530    7.7470  -10.0460 C.3   168  ARG168      0.0489
     47  CD        19.9170    6.6850  -10.3590 C.3   168  ARG168      0.2205
     48  NE        20.2170    5.8630   -9.1950 N.pl3 168  ARG168     -0.0865
     49  CZ        20.9140    4.7400   -9.2420 C.cat 168  ARG168      0.5346
     50  NH1       21.4030    4.2660  -10.4090 N.pl3 168  ARG168      0.1354
     51  NH2       21.1370    4.0910   -8.1030 N.pl3 168  ARG168      0.1354
     52  N         26.8880    7.9520   -3.4990 N.3   235  THR235     -0.1218
     53  CA        27.1290    6.8380   -4.3680 C.3   235  THR235      0.1862
     54  C         28.5860    6.8820   -4.7080 C.2   235  THR235      0.2287
     55  O         29.0800    7.8910   -5.1460 O.2   235  THR235     -0.2866
     56  CB        26.2200    6.8670   -5.6010 C.3   235  THR235      0.1770
     57  OG1       24.8640    6.7590   -5.1610 O.3   235  THR235     -0.2211
     58  CG2       26.4760    5.7090   -6.5100 C.3   235  THR235      0.0375
     59  N         29.2450   -2.3090  -21.1990 N.3   286  ARG286     -0.1245
     60  CA        28.6760   -0.9710  -21.1290 C.3   286  ARG286      0.1563
     61  C         29.5120   -0.0960  -20.2430 C.2   286  ARG286      0.2260
     62  O         29.9470   -0.5240  -19.2050 O.2   286  ARG286     -0.2867
     63  CB        27.2530   -0.9870  -20.5840 C.3   286  ARG286      0.0307
     64  CG        26.7100    0.4510  -20.3570 C.3   286  ARG286      0.0489
     65  CD        25.1740    0.4770  -20.2610 C.3   286  ARG286      0.2205
     66  NE        24.5750   -0.0760  -21.4850 N.pl3 286  ARG286     -0.0865
     67  CZ        23.2740   -0.2150  -21.6980 C.cat 286  ARG286      0.5346
     68  NH1       22.3950    0.1840  -20.7730 N.pl3 286  ARG286      0.1354
     69  NH2       22.8510   -0.7520  -22.8630 N.pl3 286  ARG286      0.1354
     70  N         30.5370    0.4300  -14.3570 N.3   291  THR291     -0.1203
     71  CA        29.2060    0.6880  -13.7520 C.3   291  THR291      0.1994
     72  C         29.1480   -0.1310  -12.4990 C.2   291  THR291      0.2618
     73  O         29.7890   -1.1570  -12.4120 O.2   291  THR291     -0.2717
     74  CB        28.0200    0.3140  -14.6620 C.3   291  THR291      0.1784
     75  OG1       27.6830   -1.0650  -14.4470 O.3   291  THR291     -0.2211
     76  CG2       28.3320    0.5940  -16.1490 C.3   291  THR291      0.0376
     77  N         28.4350    0.3140  -11.4750 N.am  292  CYS292     -0.1955
     78  CA        28.3550   -0.3630  -10.1730 C.3   292  CYS292      0.1843
     79  C         27.7540   -1.7630  -10.2610 C.2   292  CYS292      0.2625
     80  O         28.0620   -2.6450   -9.4850 O.2   292  CYS292     -0.2714
     81  CB        27.4760    0.4890   -9.2370 C.3   292  CYS292      0.0997
     82  SG        27.9740    2.2380   -9.2700 S.3   292  CYS292     -0.0797
     83  N         26.8170   -1.9090  -11.1930 N.am  293  VAL293     -0.1977
     84  CA        26.1560   -3.1880  -11.4260 C.3   293  VAL293      0.1596
     85  C         26.8440   -4.0420  -12.5410 C.2   293  VAL293      0.2287
     86  O         26.2960   -5.0450  -12.9820 O.2   293  VAL293     -0.2864
     87  CB        24.6600   -2.9710  -11.7260 C.3   293  VAL293      0.0276
     88  CG1       23.9680   -2.1490  -10.5590 C.3   293  VAL293      0.0022
     89  CG2       24.5080   -2.2990  -13.0430 C.3   293  VAL293      0.0022
     90  N         20.2670   -6.1720  -18.4890 N.3   445  LEU445     -0.1245
     91  CA        19.8150   -4.8190  -18.2040 C.3   445  LEU445      0.1561
     92  C         18.5770   -4.7520  -17.3100 C.2   445  LEU445      0.2260
     93  O         17.4590   -5.0600  -17.7300 O.2   445  LEU445     -0.2867
     94  CB        19.4110   -4.1280  -19.4950 C.3   445  LEU445      0.0270
     95  CG        20.5580   -3.9380  -20.4530 C.3   445  LEU445      0.0019
     96  CD1       19.9700   -3.5510  -21.8330 C.3   445  LEU445      0.0001
     97  CD2       21.5640   -2.9570  -19.8540 C.3   445  LEU445      0.0001
     98  N         18.1280   -1.7930  -15.2650 N.3   447  SER447     -0.1217
     99  CA        18.0270   -0.3930  -14.8140 C.3   447  SER447      0.1889
    100  C         16.7750    0.3310  -15.3090 C.2   447  SER447      0.2288
    101  O         16.4370    0.2930  -16.4880 O.2   447  SER447     -0.2866
    102  CB        19.3110    0.3460  -15.2530 C.3   447  SER447      0.2089
    103  OG        20.4110   -0.0850  -14.4330 O.3   447  SER447     -0.2183
    104  N         16.3160    0.3830   -6.4210 N.3   453  PHE453     -0.1241
    105  CA        17.7040    0.1410   -6.7330 C.3   453  PHE453      0.1605
    106  C         18.5270    0.3730   -5.5090 C.2   453  PHE453      0.2264
    107  O         18.4880    1.4730   -4.9030 O.2   453  PHE453     -0.2867
    108  CB        18.1980    1.1360   -7.7950 C.3   453  PHE453      0.0534
    109  CG        18.4960    0.4960   -9.1050 C.ar  453  PHE453     -0.0203
    110  CD1       19.7910    0.5020   -9.6020 C.ar  453  PHE453     -0.0042
    111  CD2       17.4770   -0.1220   -9.8350 C.ar  453  PHE453     -0.0042
    112  CE1       20.1110   -0.0840  -10.8290 C.ar  453  PHE453     -0.0003
    113  CE2       17.7530   -0.7310  -11.0820 C.ar  453  PHE453     -0.0003
    114  CZ        19.0920   -0.7090  -11.5790 C.ar  453  PHE453     -0.0000
@<TRIPOS>BOND
     1    69    67    1
     2    96    95    1
     3    67    66    2
     4    67    68    1
     5    66    65    1
     6    59    60    1
     7    60    63    1
     8    60    61    1
     9     1     2    1
    10    63    64    1
    11    95    97    1
    12    95    94    1
    13    64    65    1
    14    61    62    2
    15     2     3    1
    16     2     5    1
    17    94    91    1
    18     3     4    2
    19    10    11    1
    20     5     6    1
    21    90    91    1
    22    91    92    1
    23    11    14    1
    24    11    12    1
    25    14    15    1
    26     6     7    1
    27    93    92    2
    28     8     7   ar
    29     7     9   ar
    30    12    13    2
    31    30    32   ar
    32    30    28   ar
    33    15    16   ar
    34    15    17   ar
    35   101   100    2
    36    32    31   ar
    37    76    74    1
    38    16    18   ar
    39    17    19   ar
    40    28    27   ar
    41   100    99    1
    42    98    99    1
    43   102    99    1
    44   102   103    1
    45    31    29   ar
    46    18    20   ar
    47    19    20   ar
    48    27    29   ar
    49    27    26    1
    50    74    75    1
    51    74    71    1
    52    23    24    1
    53    23    26    1
    54    23    22    1
    55    70    71    1
    56    20    21    1
    57    24    25    2
    58    71    72    1
    59    89    87    1
    60    86    85    2
    61    85    84    1
    62    72    73    2
    63    72    77   am
    64    87    84    1
    65    87    88    1
    66   114   113   ar
    67   114   112   ar
    68    40    39    1
    69    77    78    1
    70    33    34    1
    71    84    83    1
    72    83    79   am
    73   113   111   ar
    74   112   110   ar
    75    50    49    1
    76    47    46    1
    77    47    48    1
    78    79    78    1
    79    79    80    2
    80    78    81    1
    81    46    45    1
    82    34    37    1
    83    34    35    1
    84    38    39    1
    85    38    37    1
    86   111   109   ar
    87   110   109   ar
    88    41    42    1
    89    35    36    2
    90    82    81    1
    91    49    48    2
    92    49    51    1
    93   109   108    1
    94    45    42    1
    95    42    43    1
    96   108   105    1
    97    43    44    2
    98   105   104    1
    99   105   106    1
   100    58    56    1
   101    56    57    1
   102    56    53    1
   103   106   107    2
   104    55    54    2
   105    54    53    1
   106    53    52    1
