@<TRIPOS>MOLECULE
tmp/3ek3A00.pdb
 122 119 0 0 0
SMALL
GASTEIGER

@<TRIPOS>ATOM
      1  N         -7.5060   39.4610   23.4330 N.3    11  ARG11      -0.1231
      2  CA        -6.8940   38.3570   22.6770 C.3    11  ARG11       0.1694
      3  C         -7.9450   37.3980   22.1550 C.2    11  ARG11       0.2592
      4  O         -8.7280   36.8330   22.9310 O.2    11  ARG11      -0.2718
      5  CB        -5.8830   37.5960   23.5290 C.3    11  ARG11       0.0321
      6  CG        -5.1450   36.4840   22.7900 C.3    11  ARG11       0.0489
      7  CD        -4.9540   35.2280   23.6190 C.3    11  ARG11       0.2205
      8  NE        -6.1920   34.7900   24.2430 N.pl3  11  ARG11      -0.0865
      9  CZ        -7.1620   34.1280   23.6180 C.cat  11  ARG11       0.5346
     10  NH1       -7.0500   33.7900   22.3520 N.pl3  11  ARG11       0.1354
     11  NH2       -8.2650   33.8410   24.2720 N.pl3  11  ARG11       0.1354
     12  N         -7.9240   37.1690   20.8450 N.am   12  ARG12      -0.1966
     13  CA        -8.8710   36.2510   20.2180 C.3    12  ARG12       0.1729
     14  C         -8.1560   35.3190   19.2550 C.2    12  ARG12       0.2616
     15  O         -7.0580   35.6120   18.7600 O.2    12  ARG12      -0.2715
     16  CB        -9.9850   37.0140   19.4760 C.3    12  ARG12       0.0348
     17  CG       -10.8910   37.9050   20.3530 C.3    12  ARG12       0.0492
     18  CD       -11.6440   37.1430   21.4240 C.3    12  ARG12       0.2205
     19  NE       -12.5410   36.1340   20.8640 N.pl3  12  ARG12      -0.0865
     20  CZ       -13.6970   36.3870   20.2570 C.cat  12  ARG12       0.5346
     21  NH1      -14.1280   37.6470   20.1240 N.pl3  12  ARG12       0.1354
     22  NH2      -14.4350   35.3810   19.7720 N.pl3  12  ARG12       0.1354
     23  N         -8.8010   34.1930   18.9730 N.am   13  SER13      -0.1950
     24  CA        -8.3330   33.2990   17.9470 C.3    13  SER13       0.1924
     25  C         -8.8450   33.7330   16.5790 C.2    13  SER13       0.2314
     26  O        -10.0510   33.7060   16.3020 O.2    13  SER13      -0.2863
     27  CB        -8.8140   31.8990   18.2580 C.3    13  SER13       0.2116
     28  OG        -8.1900   31.3830   19.4300 O.3    13  SER13      -0.2180
     29  N         -8.7940   33.4030   12.3590 N.3    15  ARG15      -0.1245
     30  CA        -8.6850   32.3080   11.3840 C.3    15  ARG15       0.1563
     31  C         -8.8450   32.7860    9.9520 C.2    15  ARG15       0.2260
     32  O         -9.1700   32.0170    9.0640 O.2    15  ARG15      -0.2867
     33  CB        -9.7220   31.2460   11.7170 C.3    15  ARG15       0.0307
     34  CG        -9.6260   30.7620   13.1720 C.3    15  ARG15       0.0489
     35  CD       -10.5130   29.5920   13.4420 C.3    15  ARG15       0.2205
     36  NE       -10.2710   29.0750   14.7870 N.pl3  15  ARG15      -0.0865
     37  CZ       -10.9740   29.3750   15.8670 C.cat  15  ARG15       0.5346
     38  NH1      -11.9870   30.2020   15.8000 N.pl3  15  ARG15       0.1354
     39  NH2      -10.6370   28.8430   17.0360 N.pl3  15  ARG15       0.1354
     40  N         -4.4090   24.0740    7.9190 N.3    86  CYS86      -0.1235
     41  CA        -4.5040   24.1050    9.3640 C.3    86  CYS86       0.1677
     42  C         -4.1170   25.4540    9.9480 C.2    86  CYS86       0.2270
     43  O         -4.6190   25.8080   11.0060 O.2    86  CYS86      -0.2867
     44  CB        -3.6980   22.9750   10.0120 C.3    86  CYS86       0.0956
     45  SG        -1.8930   23.0710    9.8260 S.3    86  CYS86      -0.0801
     46  N         -4.5760   28.4510    8.4100 N.3    88  TYR88      -0.1241
     47  CA        -5.4200   29.5160    7.8740 C.3    88  TYR88       0.1605
     48  C         -4.7020   30.5310    6.9780 C.2    88  TYR88       0.2264
     49  O         -5.1090   31.6700    6.9090 O.2    88  TYR88      -0.2867
     50  CB        -6.1480   30.2410    9.0180 C.3    88  TYR88       0.0534
     51  CG        -6.8640   29.2780    9.9370 C.ar   88  TYR88      -0.0201
     52  CD1       -7.9220   28.5260    9.4850 C.ar   88  TYR88      -0.0009
     53  CD2       -6.4710   29.1320   11.2460 C.ar   88  TYR88      -0.0009
     54  CE1       -8.6030   27.6270   10.3260 C.ar   88  TYR88       0.0417
     55  CE2       -7.1140   28.2420   12.1000 C.ar   88  TYR88       0.0417
     56  CZ        -8.1740   27.4850   11.6350 C.ar   88  TYR88       0.1957
     57  OH        -8.8270   26.6060   12.4890 O.3    88  TYR88      -0.2866
     58  N          0.7900   35.0070   22.1510 N.3   115  PHE115     -0.1241
     59  CA        -0.5510   35.5270   21.7920 C.3   115  PHE115      0.1605
     60  C         -0.7420   36.9460   22.3110 C.2   115  PHE115      0.2264
     61  O         -1.2000   37.8520   21.6080 O.2   115  PHE115     -0.2867
     62  CB        -1.6890   34.6980   22.3690 C.3   115  PHE115      0.0534
     63  CG        -1.8320   33.2830   21.7950 C.ar  115  PHE115     -0.0203
     64  CD1       -1.4300   32.9350   20.4860 C.ar  115  PHE115     -0.0042
     65  CD2       -2.4760   32.3210   22.5590 C.ar  115  PHE115     -0.0042
     66  CE1       -1.6210   31.6130   20.0060 C.ar  115  PHE115     -0.0003
     67  CE2       -2.6910   31.0140   22.0840 C.ar  115  PHE115     -0.0003
     68  CZ        -2.2540   30.6710   20.7970 C.ar  115  PHE115     -0.0000
     69  N         -3.5070   32.6160   16.4410 N.3   126  CYS126     -0.1221
     70  CA        -4.3360   31.4470   16.7580 C.3   126  CYS126      0.1808
     71  C         -3.4790   30.2570   17.1440 C.2   126  CYS126      0.2601
     72  O         -2.4240   30.0480   16.5470 O.2   126  CYS126     -0.2717
     73  CB        -5.1910   31.0760   15.5380 C.3   126  CYS126      0.0970
     74  SG        -6.5800   29.9440   15.8060 S.3   126  CYS126     -0.0800
     75  N         -3.9570   29.4520   18.1030 N.am  127  TRP127     -0.1962
     76  CA        -3.3760   28.1560   18.4070 C.3   127  TRP127      0.1771
     77  C         -3.6730   27.2450   17.2360 C.2   127  TRP127      0.2619
     78  O         -4.8200   27.0760   16.8620 O.2   127  TRP127     -0.2715
     79  CB        -4.0110   27.5460   19.6750 C.3   127  TRP127      0.0590
     80  CG        -3.2920   26.3550   20.1940 C.ar  127  TRP127      0.0006
     81  CD1       -3.1770   25.1360   19.6000 C.ar  127  TRP127      0.0946
     82  CD2       -2.6150   26.2510   21.4540 C.ar  127  TRP127      0.0152
     83  NE1       -2.4450   24.2960   20.3880 N.ar  127  TRP127     -0.2442
     84  CE2       -2.0950   24.9450   21.5460 C.ar  127  TRP127      0.0810
     85  CE3       -2.4170   27.1350   22.5200 C.ar  127  TRP127      0.0012
     86  CZ2       -1.3520   24.5220   22.6390 C.ar  127  TRP127      0.0191
     87  CZ3       -1.6950   26.7200   23.6070 C.ar  127  TRP127      0.0001
     88  CH2       -1.1860   25.4030   23.6760 C.ar  127  TRP127      0.0015
     89  N         -2.6340   26.6340   16.6860 N.am  128  ILE128     -0.1963
     90  CA        -2.7510   25.6000   15.6760 C.3   128  ILE128      0.1727
     91  C         -2.2450   24.2880   16.2950 C.2   128  ILE128      0.2616
     92  O         -1.0580   24.1800   16.6090 O.2   128  ILE128     -0.2715
     93  CB        -1.9350   26.0000   14.4150 C.3   128  ILE128      0.0290
     94  CG1       -2.2640   27.4700   14.0080 C.3   128  ILE128      0.0022
     95  CG2       -2.1730   25.0210   13.3040 C.3   128  ILE128      0.0023
     96  CD1       -3.7670   27.7040   13.6800 C.3   128  ILE128      0.0001
     97  N         -3.1650   23.3300   16.4980 N.am  129  ASN129     -0.1958
     98  CA        -2.8780   22.0910   17.2560 C.3   129  ASN129      0.1819
     99  C         -2.5610   20.8710   16.4180 C.2   129  ASN129      0.2621
    100  O         -2.3120   19.8170   16.9710 O.2   129  ASN129     -0.2715
    101  CB        -4.0570   21.7850   18.1810 C.3   129  ASN129      0.1195
    102  CG        -3.6370   21.1180   19.4950 C.2   129  ASN129      0.2630
    103  OD1       -2.5780   21.4220   20.0490 O.2   129  ASN129     -0.2716
    104  ND2       -4.4960   20.2600   20.0100 N.am  129  ASN129     -0.0877
    105  N         -2.5440   20.9880   15.0930 N.am  130  GLN130     -0.1977
    106  CA        -2.5400   19.7950   14.2470 C.3   130  GLN130      0.1601
    107  C         -1.2090   19.0540   14.2080 C.2   130  GLN130      0.2287
    108  O         -1.1750   17.8960   13.7770 O.2   130  GLN130     -0.2864
    109  CB        -3.0220   20.1140   12.8270 C.3   130  GLN130      0.0394
    110  CG        -4.5010   20.3380   12.7740 C.3   130  GLN130      0.0908
    111  CD        -4.9380   21.5400   13.5650 C.2   130  GLN130      0.2608
    112  OE1       -4.4200   22.6430   13.3660 O.2   130  GLN130     -0.2717
    113  NE2       -5.9350   21.3560   14.4610 N.am  130  GLN130     -0.0878
    114  N        -17.1070   38.0210   22.3260 N.3   173  LYS173     -0.1245
    115  CA       -16.6540   37.0810   23.3620 C.3   173  LYS173      0.1561
    116  C        -17.3770   37.2690   24.6860 C.2   173  LYS173      0.2260
    117  O        -17.4650   38.3660   25.2170 O.2   173  LYS173     -0.2867
    118  CB       -15.1350   37.1400   23.6060 C.3   173  LYS173      0.0271
    119  CG       -14.6560   36.2400   24.7600 C.3   173  LYS173      0.0035
    120  CD       -13.1950   35.8500   24.6400 C.3   173  LYS173      0.0206
    121  CE       -12.8060   34.7720   25.6430 C.3   173  LYS173      0.1093
    122  NZ       -11.3750   34.3260   25.4980 N.3   173  LYS173     -0.1314
@<TRIPOS>BOND
     1    49    48    2
     2    48    47    1
     3    47    46    1
     4    47    50    1
     5    40    41    1
     6    50    51    1
     7    32    31    2
     8    41    42    1
     9    41    44    1
    10    52    51   ar
    11    52    54   ar
    12    45    44    1
    13    51    53   ar
    14    42    43    2
    15    31    30    1
    16    54    56   ar
    17    53    55   ar
    18    30    33    1
    19    30    29    1
    20    56    55   ar
    21    56    57    1
    22    33    34    1
    23   110   109    1
    24   110   111    1
    25   109   106    1
    26    34    35    1
    27    95    93    1
    28   112   111    2
    29    35    36    1
    30   111   113   am
    31    96    94    1
    32   108   107    2
    33    94    93    1
    34   107   106    1
    35   106   105    1
    36    93    90    1
    37    36    37    2
    38   105    99   am
    39    73    74    1
    40    73    70    1
    41    90    91    1
    42    90    89    1
    43    38    37    1
    44    37    39    1
    45    91    97   am
    46    91    92    2
    47    26    25    2
    48    99   100    2
    49    99    98    1
    50    69    70    1
    51    97    98    1
    52    72    71    2
    53    25    24    1
    54    89    77   am
    55    70    71    1
    56    78    77    2
    57    71    75   am
    58    77    76    1
    59    98   101    1
    60    24    27    1
    61    24    23    1
    62    75    76    1
    63   101   102    1
    64    27    28    1
    65    76    79    1
    66    15    14    2
    67    23    14   am
    68    14    13    1
    69    16    13    1
    70    16    17    1
    71   102   104   am
    72   102   103    2
    73    81    80   ar
    74    81    83   ar
    75    79    80    1
    76    22    20    1
    77    66    64   ar
    78    66    68   ar
    79    21    20    1
    80    80    82   ar
    81    13    12    1
    82    20    19    2
    83    17    18    1
    84    83    84   ar
    85    64    63   ar
    86    68    67   ar
    87    12     3   am
    88    19    18    1
    89    82    84   ar
    90    82    85   ar
    91    84    86   ar
    92    61    60    2
    93    59    58    1
    94    59    60    1
    95    59    62    1
    96    63    62    1
    97    63    65   ar
    98    67    65   ar
    99     3     2    1
   100     3     4    2
   101   114   115    1
   102    10     9    1
   103    85    87   ar
   104    86    88   ar
   105     2     1    1
   106     2     5    1
   107     6     5    1
   108     6     7    1
   109   115   118    1
   110   115   116    1
   111   118   119    1
   112    87    88   ar
   113     9     8    2
   114     9    11    1
   115     7     8    1
   116   120   119    1
   117   120   121    1
   118   116   117    2
   119   122   121    1
