@<TRIPOS>MOLECULE
tmp/3ekgB00.pdb
 153 147 0 0 0
SMALL
GASTEIGER

@<TRIPOS>ATOM
      1  N         -5.0710  -39.2120  -73.4610 N.3    22  TYR22      -0.1227
      2  CA        -4.9740  -38.8150  -74.8620 C.3    22  TYR22       0.1736
      3  C         -3.6840  -39.2330  -75.5500 C.2    22  TYR22       0.2595
      4  O         -3.6970  -39.6220  -76.7160 O.2    22  TYR22      -0.2718
      5  CB        -5.0950  -37.2950  -74.9800 C.3    22  TYR22       0.0548
      6  CG        -6.2030  -36.6950  -74.1520 C.ar   22  TYR22      -0.0200
      7  CD1       -7.5100  -36.6480  -74.6290 C.ar   22  TYR22      -0.0009
      8  CD2       -5.9430  -36.1820  -72.8820 C.ar   22  TYR22      -0.0009
      9  CE1       -8.5320  -36.1010  -73.8620 C.ar   22  TYR22       0.0417
     10  CE2       -6.9580  -35.6370  -72.1070 C.ar   22  TYR22       0.0417
     11  CZ        -8.2480  -35.5980  -72.6020 C.ar   22  TYR22       0.1957
     12  OH        -9.2510  -35.0590  -71.8340 O.3    22  TYR22      -0.2866
     13  N         -2.5720  -39.1480  -74.8270 N.am   23  HIS23      -0.1975
     14  CA        -1.2700  -39.4640  -75.3960 C.3    23  HIS23       0.1656
     15  C         -0.7940  -40.9060  -75.2700 C.2    23  HIS23       0.2291
     16  O          0.3250  -41.2240  -75.6710 O.2    23  HIS23      -0.2864
     17  CB        -0.2230  -38.5190  -74.8040 C.3    23  HIS23       0.0771
     18  CG        -0.6820  -37.0960  -74.7240 C.ar   23  HIS23       0.0820
     19  ND1       -1.2500  -36.5600  -73.5880 N.ar   23  HIS23      -0.2267
     20  CD2       -0.7070  -36.1140  -75.6560 C.ar   23  HIS23       0.1154
     21  CE1       -1.6060  -35.3100  -73.8240 C.ar   23  HIS23       0.1986
     22  NE2       -1.2880  -35.0150  -75.0720 N.ar   23  HIS23      -0.2212
     23  N         -1.1390  -38.2130  -85.3880 N.3    30  TRP30      -0.1227
     24  CA        -0.7890  -36.7920  -85.4730 C.3    30  TRP30       0.1737
     25  C         -0.4710  -36.2110  -84.1000 C.2    30  TRP30       0.2595
     26  O          0.3360  -35.2880  -83.9770 O.2    30  TRP30      -0.2718
     27  CB        -1.9260  -35.9650  -86.0940 C.3    30  TRP30       0.0564
     28  CG        -3.1410  -35.8190  -85.2090 C.ar   30  TRP30       0.0003
     29  CD1       -4.2650  -36.5950  -85.2240 C.ar   30  TRP30       0.0946
     30  CD2       -3.3220  -34.8750  -84.1420 C.ar   30  TRP30       0.0152
     31  NE1       -5.1310  -36.1970  -84.2340 N.ar   30  TRP30      -0.2442
     32  CE2       -4.5770  -35.1450  -83.5530 C.ar   30  TRP30       0.0810
     33  CE3       -2.5420  -33.8290  -83.6240 C.ar   30  TRP30       0.0012
     34  CZ2       -5.0740  -34.4090  -82.4670 C.ar   30  TRP30       0.0191
     35  CZ3       -3.0340  -33.0980  -82.5460 C.ar   30  TRP30       0.0001
     36  CH2       -4.2880  -33.3930  -81.9790 C.ar   30  TRP30       0.0015
     37  N         -1.1040  -36.7520  -83.0670 N.am   31  ILE31      -0.1980
     38  CA        -0.9040  -36.2390  -81.7200 C.3    31  ILE31       0.1595
     39  C          0.4990  -36.5020  -81.1730 C.2    31  ILE31       0.2287
     40  O          0.8500  -36.0370  -80.0870 O.2    31  ILE31      -0.2864
     41  CB        -1.9890  -36.7990  -80.7590 C.3    31  ILE31       0.0276
     42  CG1       -2.2460  -35.8030  -79.6270 C.3    31  ILE31       0.0022
     43  CG2       -1.5580  -38.1490  -80.1940 C.3    31  ILE31       0.0022
     44  CD1       -3.4950  -36.1130  -78.8170 C.3    31  ILE31       0.0001
     45  N          5.2620  -32.6470  -82.2010 N.3    35  ILE35      -0.1245
     46  CA         4.5670  -31.5860  -81.4700 C.3    35  ILE35       0.1561
     47  C          5.6070  -30.8020  -80.6730 C.2    35  ILE35       0.2260
     48  O          6.4590  -31.3950  -80.0110 O.2    35  ILE35      -0.2867
     49  CB         3.5410  -32.1590  -80.4650 C.3    35  ILE35       0.0252
     50  CG1        2.5930  -33.1420  -81.1580 C.3    35  ILE35       0.0019
     51  CG2        2.7590  -31.0160  -79.8210 C.3    35  ILE35       0.0019
     52  CD1        1.6990  -32.5260  -82.2030 C.3    35  ILE35       0.0001
     53  N          6.6380  -37.0650  -78.4200 N.3    48  ARG48      -0.1245
     54  CA         6.4000  -36.7360  -77.0170 C.3    48  ARG48       0.1563
     55  C          6.4580  -38.0230  -76.1970 C.2    48  ARG48       0.2260
     56  O          6.7720  -38.0100  -75.0080 O.2    48  ARG48      -0.2867
     57  CB         5.0450  -36.0480  -76.8430 C.3    48  ARG48       0.0307
     58  CG         4.9800  -34.6870  -77.5150 C.3    48  ARG48       0.0489
     59  CD         3.8110  -33.8590  -77.0150 C.3    48  ARG48       0.2205
     60  NE         2.5350  -34.3370  -77.5330 N.pl3  48  ARG48      -0.0865
     61  CZ         1.3850  -33.6900  -77.3890 C.cat  48  ARG48       0.5346
     62  NH1        1.3500  -32.5340  -76.7340 N.pl3  48  ARG48       0.1354
     63  NH2        0.2750  -34.1880  -77.9180 N.pl3  48  ARG48       0.1354
     64  N         -9.6560  -30.1420  -82.6520 N.3   160  THR160     -0.1218
     65  CA        -8.2240  -30.0490  -82.4170 C.3   160  THR160      0.1862
     66  C         -7.5310  -31.2030  -83.1310 C.2   160  THR160      0.2287
     67  O         -7.8350  -32.3690  -82.8930 O.2   160  THR160     -0.2866
     68  CB        -7.9100  -30.1100  -80.9170 C.3   160  THR160      0.1770
     69  OG1       -8.5940  -29.0370  -80.2530 O.3   160  THR160     -0.2211
     70  CG2       -6.4100  -29.9810  -80.6770 C.3   160  THR160      0.0375
     71  N         -8.1840  -26.1130  -84.2370 N.3   175  LYS175     -0.1245
     72  CA        -6.9840  -25.7750  -83.4800 C.3   175  LYS175      0.1561
     73  C         -5.8730  -26.7260  -83.9080 C.2   175  LYS175      0.2260
     74  O         -6.0170  -27.9410  -83.7920 O.2   175  LYS175     -0.2867
     75  CB        -7.2410  -25.9080  -81.9830 C.3   175  LYS175      0.0271
     76  CG        -6.0360  -25.5240  -81.1300 C.3   175  LYS175      0.0035
     77  CD        -6.3980  -25.4170  -79.6550 C.3   175  LYS175      0.0206
     78  CE        -6.6210  -26.7770  -79.0080 C.3   175  LYS175      0.1093
     79  NZ        -7.1800  -26.6340  -77.6240 N.3   175  LYS175     -0.1314
     80  N         -1.7670  -28.1310  -83.8630 N.3   176  PRO176     -0.2116
     81  CA        -0.6350  -28.2370  -82.9430 C.3   176  PRO176      0.1372
     82  C          0.5790  -27.5180  -83.5370 C.2   176  PRO176      0.2244
     83  O          0.8510  -27.6320  -84.7330 O.2   176  PRO176     -0.2868
     84  CB        -0.4150  -29.7420  -82.8530 C.3   176  PRO176      0.0268
     85  CG        -0.7660  -30.2010  -84.2360 C.3   176  PRO176      0.0207
     86  CD        -2.0330  -29.4240  -84.5240 C.3   176  PRO176      0.0892
     87  N         -2.0430  -24.4010  -80.8300 N.3   209  ASP209     -0.1239
     88  CA        -1.8350  -24.9520  -79.4940 C.3   209  ASP209      0.1674
     89  C         -0.3210  -25.1210  -79.4070 C.2   209  ASP209      0.2266
     90  O          0.2790  -25.7820  -80.2530 O.2   209  ASP209     -0.2867
     91  CB        -2.5260  -26.3070  -79.3390 C.3   209  ASP209      0.1410
     92  CG        -2.4880  -26.8100  -77.9090 C.2   209  ASP209      0.3668
     93  OD1       -1.3780  -27.0850  -77.4080 O.co2 209  ASP209     -0.2456
     94  OD2       -3.5640  -26.9230  -77.2850 O.co2 209  ASP209     -0.2456
     95  N          1.4080  -26.1630  -76.4630 N.3   211  TRP211     -0.1241
     96  CA         1.7670  -27.0870  -75.3880 C.3   211  TRP211      0.1605
     97  C          2.9560  -26.6660  -74.5100 C.2   211  TRP211      0.2264
     98  O          3.9480  -27.3940  -74.3980 O.2   211  TRP211     -0.2867
     99  CB         2.0180  -28.4870  -75.9690 C.3   211  TRP211      0.0550
    100  CG         1.5330  -29.5900  -75.0770 C.ar  211  TRP211      0.0003
    101  CD1        0.2330  -29.9470  -74.8450 C.ar  211  TRP211      0.0946
    102  CD2        2.3370  -30.4520  -74.2620 C.ar  211  TRP211      0.0152
    103  NE1        0.1790  -30.9780  -73.9350 N.ar  211  TRP211     -0.2442
    104  CE2        1.4560  -31.3060  -73.5600 C.ar  211  TRP211      0.0810
    105  CE3        3.7160  -30.5840  -74.0560 C.ar  211  TRP211      0.0012
    106  CZ2        1.9100  -32.2810  -72.6620 C.ar  211  TRP211      0.0191
    107  CZ3        4.1710  -31.5550  -73.1630 C.ar  211  TRP211      0.0001
    108  CH2        3.2670  -32.3900  -72.4770 C.ar  211  TRP211      0.0015
    109  N         -2.7400  -20.7820  -77.7680 N.3   234  GLU234     -0.1245
    110  CA        -2.9030  -21.5580  -76.5410 C.3   234  GLU234      0.1567
    111  C         -1.6440  -22.1280  -75.8880 C.2   234  GLU234      0.2260
    112  O         -0.7460  -22.6330  -76.5680 O.2   234  GLU234     -0.2867
    113  CB        -3.8860  -22.7000  -76.8190 C.3   234  GLU234      0.0388
    114  CG        -4.2120  -23.5750  -75.6190 C.3   234  GLU234      0.1160
    115  CD        -5.2980  -24.5790  -75.9340 C.2   234  GLU234      0.3649
    116  OE1       -6.2020  -24.2270  -76.7170 O.co2 234  GLU234     -0.2457
    117  OE2       -5.2600  -25.7110  -75.3910 O.co2 234  GLU234     -0.2457
    118  N         -5.0290  -25.8540  -69.1660 N.3   260  GLU260     -0.1245
    119  CA        -5.2320  -27.3000  -69.1050 C.3   260  GLU260      0.1567
    120  C         -4.2840  -27.9670  -68.1090 C.2   260  GLU260      0.2260
    121  O         -4.5650  -29.0610  -67.6190 O.2   260  GLU260     -0.2867
    122  CB        -5.1060  -27.9420  -70.4930 C.3   260  GLU260      0.0388
    123  CG        -3.7170  -27.9770  -71.0800 C.3   260  GLU260      0.1160
    124  CD        -3.7530  -28.3530  -72.5440 C.2   260  GLU260      0.3649
    125  OE1       -4.4210  -27.6260  -73.3130 O.co2 260  GLU260     -0.2457
    126  OE2       -3.1320  -29.3700  -72.9250 O.co2 260  GLU260     -0.2457
    127  N        -10.6960  -28.2070  -71.5040 N.3   308  HIS308     -0.1241
    128  CA        -9.8550  -29.0360  -72.3560 C.3   308  HIS308      0.1621
    129  C        -10.5800  -30.3670  -72.5540 C.2   308  HIS308      0.2264
    130  O        -10.5620  -31.2330  -71.6730 O.2   308  HIS308     -0.2867
    131  CB        -8.4940  -29.2470  -71.6750 C.3   308  HIS308      0.0745
    132  CG        -7.6490  -30.3120  -72.3030 C.ar  308  HIS308      0.0817
    133  ND1       -7.8420  -31.6550  -72.0600 N.ar  308  HIS308     -0.2268
    134  CD2       -6.5930  -30.2320  -73.1460 C.ar  308  HIS308      0.1154
    135  CE1       -6.9410  -32.3560  -72.7260 C.ar  308  HIS308      0.1986
    136  NE2       -6.1700  -31.5160  -73.3930 N.ar  308  HIS308     -0.2212
    137  N        -14.4200  -27.8810  -76.9770 N.3   328  GLU328     -0.1245
    138  CA       -13.3370  -28.5160  -77.7110 C.3   328  GLU328      0.1567
    139  C        -13.6330  -29.9830  -77.9600 C.2   328  GLU328      0.2260
    140  O        -14.1460  -30.6790  -77.0830 O.2   328  GLU328     -0.2867
    141  CB       -12.0100  -28.4330  -76.9440 C.3   328  GLU328      0.0388
    142  CG       -10.9170  -29.3000  -77.5910 C.3   328  GLU328      0.1160
    143  CD        -9.5620  -29.2170  -76.9050 C.2   328  GLU328      0.3649
    144  OE1       -9.5210  -29.0880  -75.6660 O.co2 328  GLU328     -0.2457
    145  OE2       -8.5330  -29.3130  -77.6110 O.co2 328  GLU328     -0.2457
    146  N        -11.4020  -33.1110  -79.3700 N.3   330  LEU330     -0.1245
    147  CA       -10.0950  -33.5760  -79.8070 C.3   330  LEU330      0.1561
    148  C        -10.2990  -34.6700  -80.8530 C.2   330  LEU330      0.2260
    149  O        -11.0940  -35.5880  -80.6520 O.2   330  LEU330     -0.2867
    150  CB        -9.3170  -34.1220  -78.6050 C.3   330  LEU330      0.0270
    151  CG        -7.8150  -34.4030  -78.7320 C.3   330  LEU330      0.0019
    152  CD1       -7.0810  -33.1890  -79.2770 C.3   330  LEU330      0.0001
    153  CD2       -7.2690  -34.7740  -77.3600 C.3   330  LEU330      0.0001
@<TRIPOS>BOND
     1    27    24    1
     2    27    28    1
     3    24    23    1
     4    24    25    1
     5    29    28   ar
     6    29    31   ar
     7    28    30   ar
     8    83    82    2
     9    86    85    1
    10    86    80    1
    11    71    72    1
    12    85    84    1
    13    31    32   ar
    14    30    33   ar
    15    30    32   ar
    16    25    26    2
    17    25    37   am
    18    73    74    2
    19    73    72    1
    20    80    81    1
    21    33    35   ar
    22    32    34   ar
    23    82    81    1
    24    72    75    1
    25    66    67    2
    26    66    65    1
    27    37    38    1
    28    81    84    1
    29    64    65    1
    30    35    36   ar
    31    34    36   ar
    32    65    68    1
    33    52    50    1
    34    45    46    1
    35    75    76    1
    36    38    39    1
    37    38    41    1
    38    46    47    1
    39    46    49    1
    40    39    40    2
    41    50    49    1
    42    76    77    1
    43    68    70    1
    44    68    69    1
    45   148   149    2
    46   148   147    1
    47    87    88    1
    48    41    43    1
    49    41    42    1
    50    47    48    2
    51    49    51    1
    52    90    89    2
    53   147   146    1
    54   147   150    1
    55    77    78    1
    56    42    44    1
    57    88    89    1
    58    88    91    1
    59    91    92    1
    60   152   151    1
    61    78    79    1
    62   151   150    1
    63   151   153    1
    64    53    54    1
    65   139   138    1
    66   139   140    2
    67    63    61    1
    68    92    93   ar
    69    92    94   ar
    70   109   110    1
    71   138   137    1
    72   138   141    1
    73   145   143   ar
    74   142   141    1
    75   142   143    1
    76    60    61    2
    77    60    59    1
    78    58    59    1
    79    58    57    1
    80    61    62    1
    81    54    57    1
    82    54    55    1
    83   143   144   ar
    84   113   110    1
    85   113   114    1
    86   116   115   ar
    87     4     3    2
    88   112   111    2
    89   110   111    1
    90    95    96    1
    91    55    56    2
    92    99    96    1
    93    99   100    1
    94   115   114    1
    95   115   117   ar
    96    16    15    2
    97    20    22   ar
    98    20    18   ar
    99     3     2    1
   100     3    13   am
   101    14    15    1
   102    14    13    1
   103    14    17    1
   104    96    97    1
   105   100   101   ar
   106   100   102   ar
   107    22    21   ar
   108     5     2    1
   109     5     6    1
   110     2     1    1
   111   101   103   ar
   112    17    18    1
   113    18    19   ar
   114     7     6   ar
   115     7     9   ar
   116    97    98    2
   117   102   105   ar
   118   102   104   ar
   119     6     8   ar
   120   105   107   ar
   121   103   104   ar
   122     9    11   ar
   123    21    19   ar
   124   104   106   ar
   125   136   134   ar
   126   136   135   ar
   127   125   124   ar
   128   107   108   ar
   129   134   132   ar
   130   126   124   ar
   131     8    10   ar
   132   135   133   ar
   133   106   108   ar
   134    11    10   ar
   135    11    12    1
   136   129   128    1
   137   129   130    2
   138   124   123    1
   139   128   131    1
   140   128   127    1
   141   132   133   ar
   142   132   131    1
   143   123   122    1
   144   122   119    1
   145   118   119    1
   146   119   120    1
   147   120   121    2
