@<TRIPOS>MOLECULE
tmp/3ekiA00.pdb
 169 165 0 0 0
SMALL
GASTEIGER

@<TRIPOS>ATOM
      1  N         38.2070   30.6780   26.1840 N.3    88  ALA88      -0.1245
      2  CA        38.6600   31.3790   27.3920 C.3    88  ALA88       0.1562
      3  C         39.9420   32.1390   27.0810 C.2    88  ALA88       0.2260
      4  O         40.8160   31.5980   26.3880 O.2    88  ALA88      -0.2867
      5  CB        38.8530   30.3680   28.5040 C.3    88  ALA88       0.0290
      6  N         43.5860   30.5750   28.4320 N.3    91  LYS91      -0.1245
      7  CA        43.9720   29.3950   27.6670 C.3    91  LYS91       0.1561
      8  C         44.4290   29.7880   26.2590 C.2    91  LYS91       0.2260
      9  O         45.3500   29.2310   25.6810 O.2    91  LYS91      -0.2867
     10  CB        42.8060   28.4260   27.5730 C.3    91  LYS91       0.0271
     11  CG        42.5100   27.7130   28.8850 C.3    91  LYS91       0.0035
     12  CD        41.1720   27.0080   28.8490 C.3    91  LYS91       0.0206
     13  CE        41.0660   26.0400   30.0330 C.3    91  LYS91       0.1093
     14  NZ        39.7630   26.2200   30.7170 N.3    91  LYS91      -0.1314
     15  N         30.6540   40.7140   29.9300 N.3   111  THR111     -0.1218
     16  CA        29.5630   40.1080   30.7030 C.3   111  THR111      0.1862
     17  C         28.9310   41.1530   31.6100 C.2   111  THR111      0.2287
     18  O         29.6240   42.0980   32.0000 O.2   111  THR111     -0.2866
     19  CB        30.1460   38.9000   31.4670 C.3   111  THR111      0.1770
     20  OG1       29.1070   38.0970   32.0310 O.3   111  THR111     -0.2211
     21  CG2       31.0410   39.3170   32.6270 C.3   111  THR111      0.0375
     22  N         18.6500   30.8990   33.5390 N.3   162  ASN162     -0.1225
     23  CA        20.0530   31.0920   33.2260 C.3   162  ASN162      0.1785
     24  C         20.9110   31.5330   34.4160 C.2   162  ASN162      0.2597
     25  O         21.8770   30.8650   34.7930 O.2   162  ASN162     -0.2718
     26  CB        20.1430   32.1420   32.1130 C.3   162  ASN162      0.1169
     27  CG        21.5420   32.2370   31.5430 C.2   162  ASN162      0.2627
     28  OD1       22.2330   31.2190   31.4520 O.2   162  ASN162     -0.2716
     29  ND2       21.9420   33.4350   31.1630 N.am  162  ASN162     -0.0877
     30  N         20.5650   32.6750   34.9930 N.am  163  VAL163     -0.1980
     31  CA        21.2180   33.3010   36.1200 C.3   163  VAL163      0.1595
     32  C         20.1900   33.8560   37.1200 C.2   163  VAL163      0.2287
     33  O         19.0280   34.0900   36.7950 O.2   163  VAL163     -0.2864
     34  CB        22.0980   34.5060   35.7340 C.3   163  VAL163      0.0276
     35  CG1       23.1500   34.1020   34.7040 C.3   163  VAL163      0.0022
     36  CG2       21.2530   35.6430   35.2250 C.3   163  VAL163      0.0022
     37  N         23.4270   40.8890   39.5550 N.3   168  TYR168     -0.1241
     38  CA        24.0960   41.6020   38.4950 C.3   168  TYR168      0.1605
     39  C         23.6240   43.0370   38.2940 C.2   168  TYR168      0.2264
     40  O         22.4830   43.3800   38.6190 O.2   168  TYR168     -0.2867
     41  CB        23.8300   40.8890   37.1640 C.3   168  TYR168      0.0534
     42  CG        24.3280   39.4840   37.0470 C.ar  168  TYR168     -0.0201
     43  CD1       23.6250   38.3870   37.5000 C.ar  168  TYR168     -0.0009
     44  CD2       25.5640   39.2650   36.4220 C.ar  168  TYR168     -0.0009
     45  CE1       24.1230   37.1030   37.3570 C.ar  168  TYR168      0.0417
     46  CE2       26.0750   37.9950   36.2780 C.ar  168  TYR168      0.0417
     47  CZ        25.3540   36.9160   36.7490 C.ar  168  TYR168      0.1957
     48  OH        25.8490   35.6500   36.6030 O.3   168  TYR168     -0.2866
     49  N         36.7420   38.8480   34.2890 N.3   177  TYR177     -0.1241
     50  CA        36.1780   38.0270   35.3490 C.3   177  TYR177      0.1605
     51  C         37.3520   37.6890   36.2750 C.2   177  TYR177      0.2264
     52  O         38.5260   37.9640   35.9930 O.2   177  TYR177     -0.2867
     53  CB        35.4320   36.7840   34.8810 C.3   177  TYR177      0.0534
     54  CG        36.3110   35.6590   34.3800 C.ar  177  TYR177     -0.0201
     55  CD1       37.2120   35.8540   33.3340 C.ar  177  TYR177     -0.0009
     56  CD2       36.2530   34.3960   34.9360 C.ar  177  TYR177     -0.0009
     57  CE1       38.0130   34.8340   32.8670 C.ar  177  TYR177      0.0417
     58  CE2       37.0490   33.3680   34.4980 C.ar  177  TYR177      0.0417
     59  CZ        37.9280   33.5850   33.4610 C.ar  177  TYR177      0.1957
     60  OH        38.7260   32.5570   33.0350 O.3   177  TYR177     -0.2866
     61  N         43.3350   25.5240   34.0090 N.3   217  SER217     -0.1202
     62  CA        42.2760   26.4800   34.2510 C.3   217  SER217      0.2020
     63  C         42.7960   27.8090   34.7970 C.2   217  SER217      0.2619
     64  O         43.6040   27.8370   35.7320 O.2   217  SER217     -0.2717
     65  CB        41.2450   25.9250   35.2410 C.3   217  SER217      0.2103
     66  OG        40.2740   26.9270   35.5310 O.3   217  SER217     -0.2182
     67  N         42.3460   28.9460   34.2750 N.am  218  SER218     -0.1937
     68  CA        42.6880   30.2210   34.8990 C.3   218  SER218      0.2055
     69  C         41.9120   30.3870   36.2080 C.2   218  SER218      0.2644
     70  O         42.5320   30.5560   37.2770 O.2   218  SER218     -0.2714
     71  CB        42.4210   31.4150   33.9870 C.3   218  SER218      0.2130
     72  OG        43.0980   31.2990   32.7510 O.3   218  SER218     -0.2179
     73  N         40.5940   30.3580   36.1590 N.am  219  SER219     -0.1935
     74  CA        39.7550   30.7040   37.2990 C.3   219  SER219      0.2055
     75  C         39.5670   29.5680   38.3010 C.2   219  SER219      0.2642
     76  O         38.9490   29.8360   39.3550 O.2   219  SER219     -0.2714
     77  CB        38.3750   31.1900   36.8600 C.3   219  SER219      0.2130
     78  OG        37.6300   30.1890   36.2110 O.3   219  SER219     -0.2179
     79  N         40.0140   28.3650   38.0390 N.am  220  LYS220     -0.1977
     80  CA        39.9080   27.2500   38.9900 C.3   220  LYS220      0.1596
     81  C         41.2740   26.6910   39.3440 C.2   220  LYS220      0.2287
     82  O         41.4090   25.6330   39.9680 O.2   220  LYS220     -0.2864
     83  CB        38.9510   26.1840   38.4570 C.3   220  LYS220      0.0298
     84  CG        37.5290   26.7260   38.3530 C.3   220  LYS220      0.0038
     85  CD        36.6680   25.8990   37.4110 C.3   220  LYS220      0.0206
     86  CE        36.9920   26.2150   35.9660 C.3   220  LYS220      0.1093
     87  NZ        36.1940   27.3680   35.4990 N.3   220  LYS220     -0.1314
     88  N         35.2450   30.0420   39.8090 N.3   270  GLU270     -0.1245
     89  CA        34.9510   31.3260   39.2160 C.3   270  GLU270      0.1567
     90  C         34.2920   32.2310   40.2490 C.2   270  GLU270      0.2260
     91  O         33.4550   31.7530   41.0130 O.2   270  GLU270     -0.2867
     92  CB        33.9760   31.1360   38.0420 C.3   270  GLU270      0.0388
     93  CG        34.3480   30.0920   37.0160 C.3   270  GLU270      0.1160
     94  CD        33.8030   28.7170   37.3040 C.2   270  GLU270      0.3649
     95  OE1       33.6220   27.9560   36.3140 O.co2 270  GLU270     -0.2457
     96  OE2       33.5510   28.3800   38.4880 O.co2 270  GLU270     -0.2457
     97  N         25.0270   31.5070   38.4880 N.3   276  TRP276     -0.1241
     98  CA        24.4460   30.7360   37.4010 C.3   276  TRP276      0.1605
     99  C         24.1980   29.2920   37.7670 C.2   276  TRP276      0.2264
    100  O         24.0940   28.4140   36.8930 O.2   276  TRP276     -0.2867
    101  CB        25.3570   30.8260   36.1820 C.3   276  TRP276      0.0550
    102  CG        26.7620   30.3570   36.2820 C.ar  276  TRP276      0.0003
    103  CD1       27.2120   29.0740   36.1930 C.ar  276  TRP276      0.0946
    104  CD2       27.9200   31.1810   36.4880 C.ar  276  TRP276      0.0152
    105  NE1       28.5800   29.0530   36.3360 N.ar  276  TRP276     -0.2442
    106  CE2       29.0340   30.3260   36.5160 C.ar  276  TRP276      0.0810
    107  CE3       28.1080   32.5540   36.6490 C.ar  276  TRP276      0.0012
    108  CZ2       30.3380   30.7900   36.7000 C.ar  276  TRP276      0.0191
    109  CZ3       29.4050   33.0040   36.8320 C.ar  276  TRP276      0.0001
    110  CH2       30.4800   32.1410   36.8550 C.ar  276  TRP276      0.0015
    111  N         37.2740   38.4500   29.6650 N.3   305  TYR305     -0.1227
    112  CA        36.2880   37.4280   29.3360 C.3   305  TYR305      0.1736
    113  C         36.6870   36.7610   28.0180 C.2   305  TYR305      0.2595
    114  O         37.7630   37.0330   27.4830 O.2   305  TYR305     -0.2718
    115  CB        34.8700   38.0050   29.2800 C.3   305  TYR305      0.0548
    116  CG        33.8330   37.1730   29.9820 C.ar  305  TYR305     -0.0200
    117  CD1       32.7540   36.5980   29.3510 C.ar  305  TYR305     -0.0009
    118  CD2       33.9400   36.9300   31.3560 C.ar  305  TYR305     -0.0009
    119  CE1       31.8200   35.8290   30.0310 C.ar  305  TYR305      0.0417
    120  CE2       33.0160   36.1790   32.0370 C.ar  305  TYR305      0.0417
    121  CZ        31.9450   35.6220   31.3820 C.ar  305  TYR305      0.1957
    122  OH        31.0180   34.8590   32.0710 O.3   305  TYR305     -0.2866
    123  N         35.8490   35.8770   27.4970 N.am  306  ASP306     -0.1974
    124  CA        36.2420   35.0120   26.3870 C.3   306  ASP306      0.1709
    125  C         36.4830   35.8130   25.1020 C.2   306  ASP306      0.2293
    126  O         35.9410   36.8910   24.9070 O.2   306  ASP306     -0.2864
    127  CB        35.1860   33.9470   26.1820 C.3   306  ASP306      0.1436
    128  CG        35.1330   32.8720   27.2480 C.2   306  ASP306      0.3671
    129  OD1       35.7700   33.0780   28.3100 O.co2 306  ASP306     -0.2456
    130  OD2       34.4580   31.8400   27.0090 O.co2 306  ASP306     -0.2456
    131  N         24.1410   35.2620   25.7180 N.3   339  PRO339     -0.2102
    132  CA        23.7930   35.4420   27.1510 C.3   339  PRO339      0.1504
    133  C         23.6700   34.1190   27.8790 C.2   339  PRO339      0.2576
    134  O         23.8220   34.0890   29.1170 O.2   339  PRO339     -0.2718
    135  CB        22.4800   36.2140   27.1060 C.3   339  PRO339      0.0282
    136  CG        22.5180   36.8900   25.7690 C.3   339  PRO339      0.0208
    137  CD        23.0810   35.8280   24.8700 C.3   339  PRO339      0.0893
    138  N         23.4780   32.9960   27.2030 N.am  340  LEU340     -0.1966
    139  CA        23.4250   31.6920   27.8590 C.3   340  LEU340      0.1728
    140  C         24.7870   31.2310   28.3750 C.2   340  LEU340      0.2616
    141  O         24.9100   30.3470   29.2200 O.2   340  LEU340     -0.2715
    142  CB        22.8320   30.6220   26.9320 C.3   340  LEU340      0.0311
    143  CG        21.3680   30.8510   26.5580 C.3   340  LEU340      0.0022
    144  CD1       20.9010   29.7900   25.5810 C.3   340  LEU340      0.0001
    145  CD2       20.4850   30.8420   27.8010 C.3   340  LEU340      0.0001
    146  N         25.8230   31.8590   27.8490 N.am  341  LEU341     -0.1963
    147  CA        27.1960   31.5940   28.1990 C.3   341  LEU341      0.1728
    148  C         27.7940   32.7120   29.0370 C.2   341  LEU341      0.2617
    149  O         28.9640   32.6640   29.4310 O.2   341  LEU341     -0.2715
    150  CB        28.0360   31.4100   26.9170 C.3   341  LEU341      0.0311
    151  CG        28.0060   30.0270   26.2710 C.3   341  LEU341      0.0022
    152  CD1       26.6190   29.6480   25.7890 C.3   341  LEU341      0.0001
    153  CD2       28.9950   29.9930   25.1140 C.3   341  LEU341      0.0001
    154  N         27.0330   33.7680   29.3050 N.am  342  GLY342     -0.1940
    155  CA        27.5830   34.8990   30.0210 C.3   342  GLY342      0.2014
    156  C         28.0400   36.0250   29.1220 C.2   342  GLY342      0.2638
    157  O         28.6240   37.0120   29.5540 O.2   342  GLY342     -0.2714
    158  N         27.8070   35.9090   27.8000 N.am  343  TYR343     -0.1973
    159  CA        28.2600   36.9410   26.8780 C.3   343  TYR343      0.1639
    160  C         27.1260   37.9400   26.6520 C.2   343  TYR343      0.2290
    161  O         26.2180   37.6700   25.8650 O.2   343  TYR343     -0.2864
    162  CB        28.7250   36.3740   25.5370 C.3   343  TYR343      0.0560
    163  CG        29.6660   35.2150   25.5860 C.ar  343  TYR343     -0.0198
    164  CD1       30.5870   35.0470   26.6220 C.ar  343  TYR343     -0.0009
    165  CD2       29.6700   34.2300   24.5930 C.ar  343  TYR343     -0.0009
    166  CE1       31.4540   33.9730   26.6620 C.ar  343  TYR343      0.0417
    167  CE2       30.5410   33.1640   24.6530 C.ar  343  TYR343      0.0417
    168  CZ        31.4390   33.0190   25.6830 C.ar  343  TYR343      0.1957
    169  OH        32.2790   31.9260   25.6770 O.3   343  TYR343     -0.2866
@<TRIPOS>BOND
     1   165   167   ar
     2   165   163   ar
     3   167   168   ar
     4   137   131    1
     5   137   136    1
     6   126   125    2
     7   125   124    1
     8   153   151    1
     9   162   163    1
    10   162   159    1
    11   144   143    1
    12   163   164   ar
    13   169   168    1
    14     9     8    2
    15   168   166   ar
    16   131   132    1
    17   136   135    1
    18   152   151    1
    19   161   160    2
    20   127   124    1
    21   127   128    1
    22     1     2    1
    23     8     7    1
    24   151   150    1
    25   124   123    1
    26     4     3    2
    27   143   142    1
    28   143   145    1
    29   164   166   ar
    30   160   159    1
    31   159   158    1
    32   150   147    1
    33   142   139    1
    34   130   128   ar
    35     3     2    1
    36   135   132    1
    37   132   133    1
    38   138   139    1
    39   138   133   am
    40   128   129   ar
    41     2     5    1
    42   114   113    2
    43   123   113   am
    44    10     7    1
    45    10    11    1
    46     7     6    1
    47   158   156   am
    48   146   147    1
    49   146   140   am
    50   139   140    1
    51   133   134    2
    52   113   112    1
    53   147   148    1
    54   140   141    2
    55    12    11    1
    56    12    13    1
    57   148   154   am
    58   148   149    2
    59   156   157    2
    60   156   155    1
    61   115   112    1
    62   115   116    1
    63   154   155    1
    64   112   111    1
    65   117   116   ar
    66   117   119   ar
    67    15    16    1
    68   116   118   ar
    69   119   121   ar
    70    13    14    1
    71    16    19    1
    72    16    17    1
    73    29    27   am
    74   118   120   ar
    75   121   120   ar
    76   121   122    1
    77    28    27    2
    78    19    20    1
    79    19    21    1
    80    27    26    1
    81    17    18    2
    82    26    23    1
    83    72    71    1
    84    57    55   ar
    85    57    59   ar
    86    60    59    1
    87    23    22    1
    88    23    24    1
    89    55    54   ar
    90    59    58   ar
    91    71    68    1
    92    61    62    1
    93    62    63    1
    94    62    65    1
    95    67    63   am
    96    67    68    1
    97    49    50    1
    98    54    53    1
    99    54    56   ar
   100    24    25    2
   101    24    30   am
   102    58    56   ar
   103    35    34    1
   104    63    64    2
   105    53    50    1
   106    68    69    1
   107    30    31    1
   108    36    34    1
   109    65    66    1
   110    50    51    1
   111    87    86    1
   112    34    31    1
   113    86    85    1
   114    52    51    2
   115    31    32    1
   116    73    69   am
   117    73    74    1
   118   101   102    1
   119   101    98    1
   120   103   102   ar
   121   103   105   ar
   122    69    70    2
   123    78    77    1
   124    46    44   ar
   125    46    47   ar
   126   102   104   ar
   127    95    94   ar
   128   105   106   ar
   129    44    42   ar
   130   104   106   ar
   131   104   107   ar
   132   106   108   ar
   133    48    47    1
   134   107   109   ar
   135   108   110   ar
   136    47    45   ar
   137    33    32    2
   138   109   110   ar
   139    77    74    1
   140   100    99    2
   141    93    94    1
   142    93    92    1
   143    42    41    1
   144    42    43   ar
   145    41    38    1
   146    74    75    1
   147    94    96   ar
   148    45    43   ar
   149    98    99    1
   150    98    97    1
   151    85    84    1
   152    79    75   am
   153    79    80    1
   154    92    89    1
   155    39    38    1
   156    39    40    2
   157    75    76    2
   158    84    83    1
   159    83    80    1
   160    38    37    1
   161    80    81    1
   162    89    88    1
   163    89    90    1
   164    81    82    2
   165    90    91    2
