@<TRIPOS>MOLECULE
tmp/3ekkA00.pdb
 180 169 0 0 0
SMALL
GASTEIGER

@<TRIPOS>ATOM
      1  N         -2.1240   27.8640  -21.3140 N.3    23  LEU23      -0.1231
      2  CA        -2.5510   26.5850  -21.8680 C.3    23  LEU23       0.1693
      3  C         -3.7520   26.7750  -22.7940 C.2    23  LEU23       0.2593
      4  O         -3.8640   26.1030  -23.8180 O.2    23  LEU23      -0.2718
      5  CB        -2.8520   25.5670  -20.7560 C.3    23  LEU23       0.0284
      6  CG        -1.6940   25.1270  -19.8540 C.3    23  LEU23       0.0019
      7  CD1       -2.1840   24.1570  -18.7780 C.3    23  LEU23       0.0001
      8  CD2       -0.5520   24.5090  -20.6650 C.3    23  LEU23       0.0001
      9  N         -4.6380   27.7000  -22.4310 N.am   24  GLY24      -0.1942
     10  CA        -5.7890   28.0420  -23.2640 C.3    24  GLY24       0.2014
     11  C         -6.9620   28.5550  -22.4550 C.2    24  GLY24       0.2639
     12  O         -6.9020   28.6140  -21.2230 O.2    24  GLY24      -0.2714
     13  N         -8.0340   28.9180  -23.1530 N.am   25  GLN25      -0.1963
     14  CA        -9.2380   29.4460  -22.5150 C.3    25  GLN25       0.1733
     15  C        -10.0890   28.3700  -21.8450 C.2    25  GLN25       0.2617
     16  O        -10.5870   27.4510  -22.5030 O.2    25  GLN25      -0.2715
     17  CB       -10.0830   30.2360  -23.5200 C.3    25  GLN25       0.0408
     18  CG        -9.5130   31.6050  -23.8690 C.3    25  GLN25       0.0908
     19  CD        -9.5650   32.5830  -22.7040 C.2    25  GLN25       0.2608
     20  OE1      -10.5250   32.5990  -21.9280 O.2    25  GLN25      -0.2717
     21  NE2       -8.5370   33.4120  -22.5850 N.am   25  GLN25      -0.0878
     22  N        -10.2480   28.4950  -20.5290 N.am   26  GLY26      -0.1940
     23  CA       -11.1630   27.6520  -19.7700 C.3    26  GLY26       0.2014
     24  C        -12.5430   28.2770  -19.7220 C.2    26  GLY26       0.2639
     25  O        -12.8170   29.2490  -20.4330 O.2    26  GLY26      -0.2714
     26  N        -13.4150   27.7190  -18.8840 N.am   27  SER27      -0.1949
     27  CA       -14.7890   28.2020  -18.7490 C.3    27  SER27       0.1924
     28  C        -14.8410   29.6740  -18.3400 C.2    27  SER27       0.2314
     29  O        -15.5340   30.4780  -18.9720 O.2    27  SER27      -0.2863
     30  CB       -15.5640   27.3420  -17.7410 C.3    27  SER27       0.2116
     31  OG       -15.0080   27.3600  -16.4440 O.3    27  SER27      -0.2180
     32  N         -6.3890   29.4540  -18.6230 N.3    31  VAL31      -0.1245
     33  CA        -5.7560   28.4150  -17.8200 C.3    31  VAL31       0.1561
     34  C         -4.2570   28.4470  -18.1160 C.2    31  VAL31       0.2260
     35  O         -3.8470   28.4970  -19.2830 O.2    31  VAL31      -0.2867
     36  CB        -6.3480   27.0140  -18.1170 C.3    31  VAL31       0.0252
     37  CG1       -5.6810   25.9400  -17.2510 C.3    31  VAL31       0.0019
     38  CG2       -7.8710   27.0060  -17.8950 C.3    31  VAL31       0.0019
     39  N         -0.2200   26.8470  -17.2010 N.3    33  GLU33      -0.1245
     40  CA         0.6250   25.8660  -16.5520 C.3    33  GLU33       0.1567
     41  C          1.4480   26.6150  -15.5220 C.2    33  GLU33       0.2260
     42  O          1.9660   27.7020  -15.7960 O.2    33  GLU33      -0.2867
     43  CB         1.5540   25.1520  -17.5350 C.3    33  GLU33       0.0388
     44  CG         2.3360   24.0200  -16.8780 C.3    33  GLU33       0.1160
     45  CD         3.4970   23.5190  -17.7120 C.2    33  GLU33       0.3649
     46  OE1        3.5980   23.8950  -18.9010 O.co2  33  GLU33      -0.2457
     47  OE2        4.3150   22.7460  -17.1660 O.co2  33  GLU33      -0.2457
     48  N          3.8700   20.5330  -10.1440 N.3    47  ARG47      -0.1245
     49  CA         3.3440   21.0400  -11.4080 C.3    47  ARG47       0.1563
     50  C          1.8520   21.2240  -11.2270 C.2    47  ARG47       0.2260
     51  O          1.1800   20.3490  -10.6880 O.2    47  ARG47      -0.2867
     52  CB         3.5950   20.0530  -12.5430 C.3    47  ARG47       0.0307
     53  CG         5.0550   19.7480  -12.8070 C.3    47  ARG47       0.0489
     54  CD         5.1970   18.8960  -14.0560 C.3    47  ARG47       0.2205
     55  NE         4.9480   19.6730  -15.2710 N.pl3  47  ARG47      -0.0865
     56  CZ         4.6970   19.1450  -16.4650 C.cat  47  ARG47       0.5346
     57  NH1        4.6500   17.8270  -16.6200 N.pl3  47  ARG47       0.1354
     58  NH2        4.4850   19.9420  -17.5040 N.pl3  47  ARG47       0.1354
     59  N         -2.0310   23.2320  -12.7660 N.3    49  ALA49      -0.1245
     60  CA        -2.8120   24.0710  -13.6600 C.3    49  ALA49       0.1562
     61  C         -3.3850   25.2070  -12.8170 C.2    49  ALA49       0.2260
     62  O         -3.8700   24.9760  -11.7050 O.2    49  ALA49      -0.2867
     63  CB        -3.9250   23.2810  -14.2930 C.3    49  ALA49       0.0290
     64  N         -6.1280   28.2500  -12.8880 N.3    51  LYS51      -0.1245
     65  CA        -7.2770   28.8820  -13.5260 C.3    51  LYS51       0.1561
     66  C         -7.4670   30.3050  -13.0260 C.2    51  LYS51       0.2260
     67  O         -7.2460   30.6030  -11.8490 O.2    51  LYS51      -0.2867
     68  CB        -8.5580   28.0770  -13.2860 C.3    51  LYS51       0.0271
     69  CG        -8.5690   26.6960  -13.9380 C.3    51  LYS51       0.0035
     70  CD        -9.9520   26.0540  -13.8750 C.3    51  LYS51       0.0206
     71  CE       -10.4080   25.8190  -12.4440 C.3    51  LYS51       0.1093
     72  NZ       -11.7280   25.1350  -12.4020 N.3    51  LYS51      -0.1314
     73  N        -10.5550   15.5030  -11.7730 N.3    81  VAL81      -0.1245
     74  CA        -9.5050   16.5240  -11.6370 C.3    81  VAL81       0.1561
     75  C         -9.6940   17.3120  -10.3220 C.2    81  VAL81       0.2260
     76  O        -10.7600   17.8830  -10.0780 O.2    81  VAL81      -0.2867
     77  CB        -9.4540   17.4670  -12.8750 C.3    81  VAL81       0.0252
     78  CG1       -8.4340   18.5880  -12.6840 C.3    81  VAL81       0.0019
     79  CG2       -9.1340   16.6730  -14.1600 C.3    81  VAL81       0.0019
     80  N         -5.1960   23.7510   -9.6030 N.3    97  MET97      -0.1230
     81  CA        -5.6860   22.3990   -9.8450 C.3    97  MET97       0.1702
     82  C         -4.5000   21.4960  -10.1280 C.2    97  MET97       0.2592
     83  O         -3.4440   21.9730  -10.5530 O.2    97  MET97      -0.2718
     84  CB        -6.6010   22.3710  -11.0820 C.3    97  MET97       0.0401
     85  CG        -7.7650   23.3520  -11.0810 C.3    97  MET97       0.0596
     86  SD        -8.9490   23.0200   -9.7700 S.3    97  MET97      -0.1393
     87  CE        -9.7540   21.5250  -10.3720 C.3    97  MET97       0.0692
     88  N         -4.6710   20.1950   -9.9130 N.am   98  GLU98      -0.1966
     89  CA        -3.6830   19.2280  -10.3930 C.3    98  GLU98       0.1733
     90  C         -3.4950   19.3960  -11.9030 C.2    98  GLU98       0.2616
     91  O         -4.4600   19.6290  -12.6460 O.2    98  GLU98      -0.2715
     92  CB        -4.0830   17.7890  -10.0400 C.3    98  GLU98       0.0429
     93  CG        -5.2870   17.2600  -10.7870 C.3    98  GLU98       0.1163
     94  CD        -5.5470   15.7910  -10.5220 C.2    98  GLU98       0.3649
     95  OE1       -4.6390   14.9550  -10.7230 O.co2  98  GLU98      -0.2457
     96  OE2       -6.6740   15.4700  -10.1170 O.co2  98  GLU98      -0.2457
     97  N         -2.2500   19.3140  -12.3520 N.am   99  LEU99      -0.1963
     98  CA        -1.9760   19.3980  -13.7760 C.3    99  LEU99       0.1728
     99  C         -2.2740   18.0700  -14.4610 C.2    99  LEU99       0.2616
    100  O         -1.9300   16.9980  -13.9510 O.2    99  LEU99      -0.2715
    101  CB        -0.5230   19.8150  -14.0420 C.3    99  LEU99       0.0311
    102  CG        -0.1400   20.0790  -15.5050 C.3    99  LEU99       0.0022
    103  CD1       -0.8550   21.3180  -16.0700 C.3    99  LEU99       0.0001
    104  CD2        1.3740   20.2070  -15.6460 C.3    99  LEU99       0.0001
    105  N         -2.9130   18.1600  -15.6230 N.am  100  MET100     -0.1963
    106  CA        -3.1540   17.0070  -16.4710 C.3   100  MET100      0.1736
    107  C         -2.3250   17.2070  -17.7290 C.2   100  MET100      0.2616
    108  O         -2.7690   17.8370  -18.6820 O.2   100  MET100     -0.2715
    109  CB        -4.6500   16.8790  -16.7850 C.3   100  MET100      0.0427
    110  CG        -5.5310   16.7890  -15.5340 C.3   100  MET100      0.0599
    111  SD        -5.2380   15.2930  -14.5710 S.3   100  MET100     -0.1393
    112  CE        -6.0660   14.1070  -15.6180 C.3   100  MET100      0.0692
    113  N         -1.1120   16.6580  -17.7110 N.am  101  ALA101     -0.1963
    114  CA        -0.0580   16.9990  -18.6750 C.3   101  ALA101      0.1728
    115  C         -0.3390   16.6390  -20.1360 C.2   101  ALA101      0.2616
    116  O          0.2200   17.2620  -21.0390 O.2   101  ALA101     -0.2715
    117  CB         1.2760   16.4010  -18.2290 C.3   101  ALA101      0.0334
    118  N         -1.1810   15.6370  -20.3750 N.am  102  HIS102     -0.1959
    119  CA        -1.5190   15.2610  -21.7480 C.3   102  HIS102      0.1787
    120  C         -2.8010   15.9100  -22.2730 C.2   102  HIS102      0.2621
    121  O         -3.2810   15.5580  -23.3500 O.2   102  HIS102     -0.2715
    122  CB        -1.5300   13.7410  -21.9280 C.3   102  HIS102      0.0785
    123  CG        -0.1630   13.1360  -21.9120 C.ar  102  HIS102      0.0821
    124  ND1        0.6860   13.1960  -22.9940 N.ar  102  HIS102     -0.2267
    125  CD2        0.5140   12.4840  -20.9370 C.ar  102  HIS102      0.1154
    126  CE1        1.8240   12.5950  -22.6910 C.ar  102  HIS102      0.1986
    127  NE2        1.7460   12.1580  -21.4480 N.ar  102  HIS102     -0.2212
    128  N         -3.3390   16.8600  -21.5120 N.am  103  GLY103     -0.1940
    129  CA        -4.4800   17.6570  -21.9580 C.3   103  GLY103      0.2014
    130  C         -5.8070   16.9250  -22.0410 C.2   103  GLY103      0.2638
    131  O         -6.0180   15.9050  -21.3750 O.2   103  GLY103     -0.2714
    132  N         -6.7200   17.4590  -22.8440 N.am  104  ASP104     -0.1971
    133  CA        -8.0490   16.8690  -22.9430 C.3   104  ASP104      0.1709
    134  C         -7.9890   15.5830  -23.7680 C.2   104  ASP104      0.2293
    135  O         -7.1120   15.4190  -24.6210 O.2   104  ASP104     -0.2864
    136  CB        -9.0490   17.8560  -23.5450 C.3   104  ASP104      0.1436
    137  CG        -8.8080   18.0910  -25.0100 C.2   104  ASP104      0.3671
    138  OD1       -7.8620   18.8360  -25.3420 O.co2 104  ASP104     -0.2456
    139  OD2       -9.5590   17.5230  -25.8270 O.co2 104  ASP104     -0.2456
    140  N         -8.3100   15.7520  -27.9270 N.3   107  SER107     -0.1217
    141  CA        -7.0590   16.1170  -28.5840 C.3   107  SER107      0.1889
    142  C         -6.0190   14.9990  -28.4810 C.2   107  SER107      0.2288
    143  O         -5.3030   14.7220  -29.4460 O.2   107  SER107     -0.2866
    144  CB        -6.5020   17.4190  -28.0050 C.3   107  SER107      0.2089
    145  OG        -7.4290   18.4810  -28.1400 O.3   107  SER107     -0.2183
    146  N        -13.6700   15.9460  -24.9990 N.3   157  ARG157     -0.1231
    147  CA       -13.1310   17.3030  -24.7890 C.3   157  ARG157      0.1694
    148  C        -13.1410   17.7360  -23.3110 C.2   157  ARG157      0.2592
    149  O        -12.3880   18.6270  -22.9220 O.2   157  ARG157     -0.2718
    150  CB       -13.8820   18.3370  -25.6550 C.3   157  ARG157      0.0321
    151  CG       -15.3510   18.5520  -25.2690 C.3   157  ARG157      0.0489
    152  CD       -16.0590   19.6330  -26.1050 C.3   157  ARG157      0.2205
    153  NE       -17.4970   19.6430  -25.8110 N.pl3 157  ARG157     -0.0865
    154  CZ       -18.3950   18.8210  -26.3610 C.cat 157  ARG157      0.5346
    155  NH1      -18.0340   17.9240  -27.2720 N.pl3 157  ARG157      0.1354
    156  NH2      -19.6670   18.8960  -26.0020 N.pl3 157  ARG157      0.1354
    157  N        -13.9880   17.0900  -22.5050 N.am  158  ASN158     -0.1974
    158  CA       -14.1580   17.4120  -21.0830 C.3   158  ASN158      0.1688
    159  C        -13.5540   16.3940  -20.1210 C.2   158  ASN158      0.2292
    160  O        -13.6860   16.5150  -18.8970 O.2   158  ASN158     -0.2864
    161  CB       -15.6450   17.6300  -20.7670 C.3   158  ASN158      0.1181
    162  CG       -16.1740   18.9050  -21.3750 C.2   158  ASN158      0.2629
    163  OD1      -15.4820   19.9240  -21.3870 O.2   158  ASN158     -0.2716
    164  ND2      -17.3940   18.8590  -21.8990 N.am  158  ASN158     -0.0877
    165  N         -9.8350   14.6690  -19.0670 N.3   160  MET160     -0.1245
    166  CA        -8.4390   15.0870  -19.0880 C.3   160  MET160      0.1570
    167  C         -7.5200   13.8930  -18.9090 C.2   160  MET160      0.2261
    168  O         -7.9150   12.8980  -18.3070 O.2   160  MET160     -0.2867
    169  CB        -8.1740   16.1110  -17.9820 C.3   160  MET160      0.0387
    170  CG        -8.9870   17.3960  -18.1080 C.3   160  MET160      0.0595
    171  SD        -8.6350   18.2870  -19.6330 S.3   160  MET160     -0.1393
    172  CE        -6.9670   18.8280  -19.3280 C.3   160  MET160      0.0692
    173  N        -13.9340   19.6650  -16.1310 N.3   171  ASP171     -0.1239
    174  CA       -14.9180   20.7000  -15.7490 C.3   171  ASP171      0.1674
    175  C        -16.3760   20.3160  -16.0070 C.2   171  ASP171      0.2266
    176  O        -16.7190   19.8250  -17.0900 O.2   171  ASP171     -0.2867
    177  CB       -14.6280   22.0010  -16.5020 C.3   171  ASP171      0.1410
    178  CG       -13.6760   22.9180  -15.7590 C.2   171  ASP171      0.3668
    179  OD1      -13.4650   22.7420  -14.5390 O.co2 171  ASP171     -0.2456
    180  OD2      -13.1440   23.8440  -16.4050 O.co2 171  ASP171     -0.2456
@<TRIPOS>BOND
     1   143   142    2
     2   141   142    1
     3   141   144    1
     4   141   140    1
     5   145   144    1
     6   155   154    1
     7   154   156    1
     8   154   153    2
     9   152   153    1
    10   152   151    1
    11   139   137   ar
    12   150   151    1
    13   150   147    1
    14   138   137   ar
    15   137   136    1
    16   146   147    1
    17   147   148    1
    18   135   134    2
    19    18    17    1
    20    18    19    1
    21     4     3    2
    22   134   133    1
    23   136   133    1
    24    17    14    1
    25   121   120    2
    26   148   149    2
    27   148   157   am
    28    10    11    1
    29    10     9    1
    30    13    14    1
    31    13    11   am
    32   124   126   ar
    33   124   123   ar
    34   133   132    1
    35   132   130   am
    36     3     9   am
    37     3     2    1
    38    19    21   am
    39    19    20    2
    40   126   127   ar
    41    14    15    1
    42   157   158    1
    43    16    15    2
    44    11    12    2
    45   120   119    1
    46   120   128   am
    47   130   129    1
    48   130   131    2
    49   129   128    1
    50   122   123    1
    51   122   119    1
    52   123   125   ar
    53   164   162   am
    54     2     1    1
    55     2     5    1
    56    15    22   am
    57   119   118    1
    58   127   125   ar
    59   163   162    2
    60   162   161    1
    61   158   161    1
    62   158   159    1
    63   116   115    2
    64     5     6    1
    65     8     6    1
    66    22    23    1
    67    25    24    2
    68   118   115   am
    69   115   114    1
    70   159   160    2
    71     6     7    1
    72    23    24    1
    73    24    26   am
    74   171   172    1
    75   171   170    1
    76    35    34    2
    77   166   165    1
    78   166   167    1
    79   166   169    1
    80    29    28    2
    81   167   168    2
    82    46    45   ar
    83    26    27    1
    84    27    28    1
    85    27    30    1
    86   108   107    2
    87   114   117    1
    88   114   113    1
    89    32    33    1
    90    36    38    1
    91    36    33    1
    92    36    37    1
    93    34    33    1
    94   170   169    1
    95    30    31    1
    96   107   113   am
    97   107   106    1
    98    45    47   ar
    99    45    44    1
   100    43    44    1
   101    43    40    1
   102    58    56    1
   103    39    40    1
   104   176   175    2
   105   109   106    1
   106   109   110    1
   107    57    56    1
   108    40    41    1
   109   177   178    1
   110   177   174    1
   111   106   105    1
   112    56    55    2
   113   180   178   ar
   114   173   174    1
   115   103   102    1
   116   175   174    1
   117    42    41    2
   118   178   179   ar
   119   104   102    1
   120   105    99   am
   121   112   111    1
   122   110   111    1
   123   102   101    1
   124    55    54    1
   125    99   100    2
   126    99    98    1
   127    63    60    1
   128    79    77    1
   129    54    53    1
   130   101    98    1
   131    69    70    1
   132    69    68    1
   133    70    71    1
   134    98    97    1
   135    60    61    1
   136    60    59    1
   137    65    68    1
   138    65    66    1
   139    65    64    1
   140    66    67    2
   141    77    78    1
   142    77    74    1
   143    61    62    2
   144    53    52    1
   145    91    90    2
   146    52    49    1
   147    71    72    1
   148    97    90   am
   149    90    89    1
   150    73    74    1
   151    74    75    1
   152    49    50    1
   153    49    48    1
   154    50    51    2
   155    84    85    1
   156    84    81    1
   157    85    86    1
   158    93    94    1
   159    93    92    1
   160    95    94   ar
   161    83    82    2
   162    94    96   ar
   163    89    92    1
   164    89    88    1
   165    87    86    1
   166    75    76    2
   167    82    88   am
   168    82    81    1
   169    81    80    1
