@<TRIPOS>MOLECULE
tmp/3ekmF00.pdb
 126 117 0 0 0
SMALL
GASTEIGER

@<TRIPOS>ATOM
      1  N          8.3850   12.9330   35.1500 N.3    27  ASN27      -0.1240
      2  CA         7.1930   13.7430   34.8860 C.3    27  ASN27       0.1653
      3  C          7.1200   13.6770   33.3660 C.2    27  ASN27       0.2266
      4  O          7.8150   14.4100   32.6800 O.2    27  ASN27      -0.2867
      5  CB         7.4570   15.1740   35.3740 C.3    27  ASN27       0.1155
      6  CG         6.1900   16.0050   35.5300 C.2    27  ASN27       0.2627
      7  OD1        6.2650   17.2140   35.7350 O.2    27  ASN27      -0.2716
      8  ND2        5.0290   15.3640   35.4510 N.am   27  ASN27      -0.0877
      9  N          5.4090   13.7630   29.4800 N.3    29  PHE29      -0.1241
     10  CA         4.4520   14.5640   28.7230 C.3    29  PHE29       0.1605
     11  C          4.4120   14.1690   27.2720 C.2    29  PHE29       0.2264
     12  O          5.3250   13.5550   26.7350 O.2    29  PHE29      -0.2867
     13  CB         4.8220   16.0470   28.7760 C.3    29  PHE29       0.0534
     14  CG         4.9640   16.5870   30.1570 C.ar   29  PHE29      -0.0203
     15  CD1        6.1810   16.5080   30.8260 C.ar   29  PHE29      -0.0042
     16  CD2        3.8770   17.1720   30.7980 C.ar   29  PHE29      -0.0042
     17  CE1        6.3150   17.0070   32.1180 C.ar   29  PHE29      -0.0003
     18  CE2        4.0000   17.6740   32.0910 C.ar   29  PHE29      -0.0003
     19  CZ         5.2230   17.5900   32.7520 C.ar   29  PHE29      -0.0000
     20  N          0.0860   24.1820   28.0800 N.3    78  ILE78      -0.1245
     21  CA         0.0430   22.8130   28.5580 C.3    78  ILE78       0.1561
     22  C         -1.3000   22.5140   29.1700 C.2    78  ILE78       0.2260
     23  O         -1.9400   23.3800   29.7510 O.2    78  ILE78      -0.2867
     24  CB         1.1610   22.5710   29.6010 C.3    78  ILE78       0.0252
     25  CG1        0.8160   21.3660   30.4780 C.3    78  ILE78       0.0019
     26  CG2        1.3690   23.8210   30.4440 C.3    78  ILE78       0.0019
     27  CD1        1.8730   21.0390   31.5130 C.3    78  ILE78       0.0001
     28  N         -3.1050   19.7400   31.7760 N.3    80  ASN80      -0.1240
     29  CA        -2.8100   18.7040   32.7670 C.3    80  ASN80       0.1653
     30  C         -3.5090   17.4350   32.3190 C.2    80  ASN80       0.2266
     31  O         -4.3410   17.4640   31.4210 O.2    80  ASN80      -0.2867
     32  CB        -3.3280   19.0960   34.1520 C.3    80  ASN80       0.1155
     33  CG        -2.4450   20.1150   34.8450 C.2    80  ASN80       0.2627
     34  OD1       -1.2200   19.9870   34.8550 O.2    80  ASN80      -0.2716
     35  ND2       -3.0680   21.1230   35.4500 N.am   80  ASN80      -0.0877
     36  N         -2.6340   24.7310   33.2510 N.3    86  PRO86      -0.2116
     37  CA        -1.7870   25.4440   34.2130 C.3    86  PRO86       0.1372
     38  C         -1.0550   26.5440   33.4630 C.2    86  PRO86       0.2244
     39  O         -1.0550   26.5550   32.2390 O.2    86  PRO86      -0.2868
     40  CB        -0.8490   24.3550   34.7100 C.3    86  PRO86       0.0268
     41  CG        -0.6670   23.5120   33.4920 C.3    86  PRO86       0.0207
     42  CD        -2.0780   23.3980   32.9590 C.3    86  PRO86       0.0892
     43  N          2.3030   27.2040   33.7400 N.3    88  MET88      -0.1230
     44  CA         3.7210   26.9120   33.4890 C.3    88  MET88       0.1702
     45  C          4.0330   25.4950   33.9150 C.2    88  MET88       0.2592
     46  O          3.2780   24.8700   34.6420 O.2    88  MET88      -0.2718
     47  CB         4.6290   27.8840   34.2510 C.3    88  MET88       0.0401
     48  CG         5.6940   28.5790   33.3930 C.3    88  MET88       0.0596
     49  SD         6.7920   27.5000   32.4240 S.3    88  MET88      -0.1393
     50  CE         8.0520   27.0820   33.5980 C.3    88  MET88       0.0692
     51  N          5.1700   24.9900   33.4560 N.am   89  CYS89      -0.1956
     52  CA         5.6040   23.6370   33.7840 C.3    89  CYS89       0.1843
     53  C          7.1080   23.5870   33.6400 C.2    89  CYS89       0.2626
     54  O          7.6420   23.7250   32.5450 O.2    89  CYS89      -0.2714
     55  CB         4.9450   22.6180   32.8450 C.3    89  CYS89       0.0997
     56  SG         5.5130   20.9180   33.1100 S.3    89  CYS89      -0.0797
     57  N          7.7920   23.3870   34.7620 N.am   90  GLY90      -0.1940
     58  CA         9.2440   23.3430   34.7640 C.3    90  GLY90       0.2014
     59  C          9.8670   22.1670   34.0440 C.2    90  GLY90       0.2638
     60  O         10.7230   22.3510   33.1830 O.2    90  GLY90      -0.2714
     61  N          9.4580   20.9550   34.4030 N.am   91  ASN91      -0.1972
     62  CA        10.0000   19.7670   33.7550 C.3    91  ASN91       0.1688
     63  C          9.5930   19.8140   32.2980 C.2    91  ASN91       0.2292
     64  O         10.3480   19.4310   31.4160 O.2    91  ASN91      -0.2864
     65  CB         9.4470   18.4950   34.4050 C.3    91  ASN91       0.1181
     66  CG         9.9050   18.3230   35.8390 C.2    91  ASN91       0.2629
     67  OD1       11.0800   18.4750   36.1440 O.2    91  ASN91      -0.2716
     68  ND2        8.9730   17.9860   36.7240 N.am   91  ASN91      -0.0877
     69  N          1.9810   29.3570   38.4950 N.3   178  ASN178     -0.1240
     70  CA         0.9680   28.4670   39.0410 C.3   178  ASN178      0.1653
     71  C          1.1260   28.4980   40.5510 C.2   178  ASN178      0.2266
     72  O          2.1940   28.8180   41.0660 O.2   178  ASN178     -0.2867
     73  CB         1.1340   27.0460   38.4840 C.3   178  ASN178      0.1155
     74  CG         2.5420   26.5120   38.6340 C.2   178  ASN178      0.2627
     75  OD1        3.4650   27.2470   38.9700 O.2   178  ASN178     -0.2716
     76  ND2        2.7130   25.2200   38.3710 N.am  178  ASN178     -0.0877
     77  N         -0.9270   23.3320   43.9380 N.3   217  ASN217     -0.1240
     78  CA         0.0080   22.2260   43.9140 C.3   217  ASN217      0.1653
     79  C          0.5030   22.2250   45.3370 C.2   217  ASN217      0.2266
     80  O          0.5710   23.2900   45.9520 O.2   217  ASN217     -0.2867
     81  CB         1.1700   22.5160   42.9620 C.3   217  ASN217      0.1155
     82  CG         0.7370   22.5790   41.5080 C.2   217  ASN217      0.2627
     83  OD1        0.3650   21.5680   40.9160 O.2   217  ASN217     -0.2716
     84  ND2        0.7830   23.7750   40.9270 N.am  217  ASN217     -0.0877
     85  N          0.2540   17.2900   42.7770 N.3   235  GLU235     -0.1231
     86  CA        -0.0150   18.3630   41.8310 C.3   235  GLU235      0.1699
     87  C         -1.4660   18.6010   41.6060 C.2   235  GLU235      0.2592
     88  O         -2.2980   17.6950   41.6860 O.2   235  GLU235     -0.2718
     89  CB         0.5860   18.0640   40.4630 C.3   235  GLU235      0.0402
     90  CG         2.0610   17.8340   40.4160 C.3   235  GLU235      0.1161
     91  CD         2.5570   17.7790   38.9810 C.2   235  GLU235      0.3649
     92  OE1        3.6560   17.2340   38.7510 O.co2 235  GLU235     -0.2457
     93  OE2        1.8490   18.2940   38.0820 O.co2 235  GLU235     -0.2457
     94  N         -1.7580   19.8550   41.2760 N.am  236  ARG236     -0.1980
     95  CA        -3.1010   20.2610   40.9310 C.3   236  ARG236      0.1597
     96  C         -3.3830   19.5380   39.6340 C.2   236  ARG236      0.2287
     97  O         -2.5710   19.5750   38.7120 O.2   236  ARG236     -0.2864
     98  CB        -3.1580   21.7770   40.6950 C.3   236  ARG236      0.0334
     99  CG        -4.4510   22.2540   40.0340 C.3   236  ARG236      0.0492
    100  CD        -4.4870   23.7700   39.8670 C.3   236  ARG236      0.2205
    101  NE        -3.3910   24.2690   39.0370 N.pl3 236  ARG236     -0.0865
    102  CZ        -3.2180   25.5500   38.7180 C.cat 236  ARG236      0.5346
    103  NH1       -4.0700   26.4690   39.1560 N.pl3 236  ARG236      0.1354
    104  NH2       -2.1920   25.9110   37.9590 N.pl3 236  ARG236      0.1354
    105  N         -3.0020   16.5870   38.5380 N.3   238  ALA238     -0.1245
    106  CA        -2.1000   15.5680   37.9960 C.3   238  ALA238      0.1562
    107  C         -1.7740   14.5260   39.0450 C.2   238  ALA238      0.2260
    108  O         -1.2390   13.4660   38.7180 O.2   238  ALA238     -0.2867
    109  CB        -0.8200   16.2110   37.4880 C.3   238  ALA238      0.0290
    110  N          8.2680   17.7730   39.9840 N.3   244  CYS244     -0.1221
    111  CA         7.5950   19.0200   39.6210 C.3   244  CYS244      0.1808
    112  C          8.6200   20.1300   39.6710 C.2   244  CYS244      0.2602
    113  O          9.0940   20.4990   40.7420 O.2   244  CYS244     -0.2717
    114  CB         6.4410   19.4490   40.5530 C.3   244  CYS244      0.0970
    115  SG         5.3840   20.6140   39.7010 S.3   244  CYS244     -0.0800
    116  N          8.9620   20.6630   38.5010 N.am  245  GLY245     -0.1942
    117  CA         9.9470   21.7270   38.4120 C.3   245  GLY245      0.2014
    118  C          9.5610   23.0210   39.1040 C.2   245  GLY245      0.2639
    119  O         10.3310   23.5430   39.9150 O.2   245  GLY245     -0.2714
    120  N          8.3810   23.5500   38.7870 N.am  246  THR246     -0.1950
    121  CA         7.9350   24.7910   39.4110 C.3   246  THR246      0.1897
    122  C          7.8080   24.5590   40.9000 C.2   246  THR246      0.2313
    123  O          8.0530   25.4590   41.6890 O.2   246  THR246     -0.2863
    124  CB         6.5710   25.2750   38.8520 C.3   246  THR246      0.1794
    125  OG1        5.6030   24.2180   38.9400 O.3   246  THR246     -0.2208
    126  CG2        6.7170   25.7210   37.4060 C.3   246  THR246      0.0378
@<TRIPOS>BOND
     1    12    11    2
     2    11    10    1
     3    20    21    1
     4    21    22    1
     5    21    24    1
     6    10    13    1
     7    10     9    1
     8    13    14    1
     9    22    23    2
    10    24    26    1
    11    24    25    1
    12    14    16   ar
    13    14    15   ar
    14    25    27    1
    15    16    18   ar
    16    15    17   ar
    17    64    63    2
    18    31    30    2
    19    28    29    1
    20    18    19   ar
    21    17    19   ar
    22    39    38    2
    23    63    62    1
    24    30    29    1
    25    49    48    1
    26    49    50    1
    27    54    53    2
    28     4     3    2
    29    29    32    1
    30    55    56    1
    31    55    52    1
    32    42    36    1
    33    42    41    1
    34    60    59    2
    35    36    37    1
    36     3     2    1
    37    48    47    1
    38    51    52    1
    39    51    45   am
    40    38    37    1
    41    44    43    1
    42    44    45    1
    43    44    47    1
    44    41    40    1
    45    53    52    1
    46    53    57   am
    47    62    61    1
    48    62    65    1
    49    45    46    2
    50    59    61   am
    51    59    58    1
    52    32    33    1
    53    37    40    1
    54    65    66    1
    55    57    58    1
    56    33    34    2
    57    33    35   am
    58     2     1    1
    59     2     5    1
    60     5     6    1
    61     8     6   am
    62     6     7    2
    63    66    67    2
    64    66    68   am
    65   126   124    1
    66   109   106    1
    67   104   102    1
    68   106   105    1
    69   106   107    1
    70    93    91   ar
    71    76    74   am
    72   117   116    1
    73   117   118    1
    74    73    74    1
    75    73    70    1
    76    69    70    1
    77   116   112   am
    78    74    75    2
    79    97    96    2
    80   108   107    2
    81   102   101    2
    82   102   103    1
    83    92    91   ar
    84   120   118   am
    85   120   121    1
    86   124   125    1
    87   124   121    1
    88    91    90    1
    89   101   100    1
    90    70    71    1
    91   118   119    2
    92   121   122    1
    93   111   112    1
    94   111   110    1
    95   111   114    1
    96    96    95    1
    97   112   113    2
    98   115   114    1
    99   100    99    1
   100    99    98    1
   101    90    89    1
   102    89    86    1
   103    71    72    2
   104    98    95    1
   105   122   123    2
   106    83    82    2
   107    84    82   am
   108    95    94    1
   109    94    87   am
   110    82    81    1
   111    87    88    2
   112    87    86    1
   113    86    85    1
   114    81    78    1
   115    78    77    1
   116    78    79    1
   117    79    80    2
