@<TRIPOS>MOLECULE
tmp/3eknA00.pdb
 212 200 0 0 0
SMALL
GASTEIGER

@<TRIPOS>ATOM
      1  N         -3.3200   28.1920   19.2880 N.3    17  ARG17      -0.1231
      2  CA        -2.7320   28.3410   20.6220 C.3    17  ARG17       0.1694
      3  C         -1.2090   28.2690   20.5670 C.2    17  ARG17       0.2592
      4  O         -0.6450   27.7360   19.6120 O.2    17  ARG17      -0.2718
      5  CB        -3.2700   27.2760   21.5980 C.3    17  ARG17       0.0321
      6  CG        -2.8900   25.8220   21.2760 C.3    17  ARG17       0.0489
      7  CD        -2.8050   24.9850   22.5540 C.3    17  ARG17       0.2205
      8  NE        -2.5200   23.5700   22.3060 N.pl3  17  ARG17      -0.0865
      9  CZ        -2.1520   22.6920   23.2430 C.cat  17  ARG17       0.5346
     10  NH1       -1.9220   21.4310   22.9090 N.pl3  17  ARG17       0.1354
     11  NH2       -2.0050   23.0650   24.5120 N.pl3  17  ARG17       0.1354
     12  N         -0.5600   28.7890   21.6020 N.am   18  GLU18      -0.1966
     13  CA         0.8800   28.6650   21.7970 C.3    18  GLU18       0.1733
     14  C          1.1990   27.2630   22.2690 C.2    18  GLU18       0.2616
     15  O          0.5510   26.7470   23.2010 O.2    18  GLU18      -0.2715
     16  CB         1.3610   29.6520   22.8710 C.3    18  GLU18       0.0429
     17  CG         1.4860   31.0790   22.3870 C.3    18  GLU18       0.1163
     18  CD         1.8280   32.0610   23.4820 C.2    18  GLU18       0.3649
     19  OE1        2.0220   31.6610   24.6510 O.co2  18  GLU18      -0.2457
     20  OE2        1.9090   33.2610   23.1610 O.co2  18  GLU18      -0.2457
     21  N          2.2110   26.6580   21.6540 N.am   19  LEU19      -0.1963
     22  CA         2.7120   25.3660   22.1020 C.3    19  LEU19       0.1728
     23  C          3.9220   25.5020   23.0360 C.2    19  LEU19       0.2617
     24  O          4.0540   24.7550   24.0170 O.2    19  LEU19      -0.2715
     25  CB         3.0640   24.4810   20.9080 C.3    19  LEU19       0.0311
     26  CG         1.9220   24.1190   19.9570 C.3    19  LEU19       0.0022
     27  CD1        2.4390   23.2010   18.8430 C.3    19  LEU19       0.0001
     28  CD2        0.7410   23.5010   20.7250 C.3    19  LEU19       0.0001
     29  N          4.7970   26.4540   22.7320 N.am   20  GLY20      -0.1940
     30  CA         5.9940   26.6810   23.5240 C.3    20  GLY20       0.2014
     31  C          7.0670   27.3290   22.6720 C.2    20  GLY20       0.2639
     32  O          6.8760   27.5170   21.4650 O.2    20  GLY20      -0.2714
     33  N          8.1850   27.6640   23.3130 N.am   21  GLN21      -0.1963
     34  CA         9.3320   28.2980   22.6770 C.3    21  GLN21       0.1733
     35  C         10.1680   27.2940   21.9280 C.2    21  GLN21       0.2617
     36  O         10.7210   26.3700   22.5280 O.2    21  GLN21      -0.2715
     37  CB        10.2280   28.9650   23.7270 C.3    21  GLN21       0.0408
     38  CG         9.7770   30.3530   24.1660 C.3    21  GLN21       0.0908
     39  CD         9.8770   31.4000   23.0580 C.2    21  GLN21       0.2608
     40  OE1       10.7960   31.3740   22.2270 O.2    21  GLN21      -0.2717
     41  NE2        8.9250   32.3290   23.0430 N.am   21  GLN21      -0.0878
     42  N         10.2710   27.4910   20.6200 N.am   22  GLY22      -0.1940
     43  CA        11.1580   26.6860   19.7790 C.3    22  GLY22       0.2014
     44  C         12.5330   27.3090   19.8400 C.2    22  GLY22       0.2639
     45  O         12.7250   28.2870   20.5560 O.2    22  GLY22      -0.2714
     46  N         13.4930   26.7760   19.0910 N.am   23  SER23      -0.1949
     47  CA        14.8510   27.3360   19.1480 C.3    23  SER23       0.1924
     48  C         14.9080   28.7930   18.6570 C.2    23  SER23       0.2314
     49  O         15.7120   29.5810   19.1670 O.2    23  SER23      -0.2863
     50  CB        15.8670   26.4530   18.4100 C.3    23  SER23       0.2116
     51  OG        15.5040   26.3010   17.0540 O.3    23  SER23      -0.2180
     52  N          6.3560   28.6710   19.0220 N.3    27  VAL27      -0.1245
     53  CA         5.7110   27.7250   18.1230 C.3    27  VAL27       0.1561
     54  C          4.2230   27.6880   18.4660 C.2    27  VAL27       0.2260
     55  O          3.8280   27.7110   19.6460 O.2    27  VAL27      -0.2867
     56  CB         6.3120   26.2980   18.2020 C.3    27  VAL27       0.0252
     57  CG1        5.6790   25.3840   17.1410 C.3    27  VAL27       0.0019
     58  CG2        7.8290   26.3380   18.0160 C.3    27  VAL27       0.0019
     59  N          0.2280   25.9900   17.5290 N.3    29  GLU29      -0.1245
     60  CA        -0.6320   25.0380   16.8600 C.3    29  GLU29       0.1567
     61  C         -1.5770   25.8450   15.9920 C.2    29  GLU29       0.2260
     62  O         -2.0930   26.8860   16.4180 O.2    29  GLU29      -0.2867
     63  CB        -1.4550   24.2340   17.8680 C.3    29  GLU29       0.0388
     64  CG        -2.3090   23.1420   17.2120 C.3    29  GLU29       0.1160
     65  CD        -3.2490   22.4600   18.1690 C.2    29  GLU29       0.3649
     66  OE1       -2.9150   22.3570   19.3740 O.co2  29  GLU29      -0.2457
     67  OE2       -4.3270   22.0220   17.7180 O.co2  29  GLU29      -0.2457
     68  N         -3.8540   19.9670   10.3330 N.3    43  ARG43      -0.1245
     69  CA        -3.3440   20.4090   11.6330 C.3    43  ARG43       0.1563
     70  C         -1.8500   20.6580   11.5040 C.2    43  ARG43       0.2260
     71  O         -1.1060   19.7920   11.0380 O.2    43  ARG43      -0.2867
     72  CB        -3.6300   19.3750   12.7200 C.3    43  ARG43       0.0307
     73  CG        -5.1130   19.0500   12.9040 C.3    43  ARG43       0.0489
     74  CD        -5.3380   18.1370   14.0990 C.3    43  ARG43       0.2205
     75  NE        -4.9980   18.8070   15.3560 N.pl3  43  ARG43      -0.0865
     76  CZ        -4.8750   18.1940   16.5340 C.cat  43  ARG43       0.5346
     77  NH1       -5.0510   16.8850   16.6390 N.pl3  43  ARG43       0.1354
     78  NH2       -4.5620   18.8920   17.6130 N.pl3  43  ARG43       0.1354
     79  N          1.9280   22.7110   13.0150 N.3    45  ALA45      -0.1245
     80  CA         2.7090   23.5030   13.9360 C.3    45  ALA45       0.1562
     81  C          3.3210   24.6430   13.1360 C.2    45  ALA45       0.2260
     82  O          3.8940   24.4260   12.0570 O.2    45  ALA45      -0.2867
     83  CB         3.7920   22.6730   14.5830 C.3    45  ALA45       0.0290
     84  N          6.0800   27.5710   13.2700 N.3    47  LYS47      -0.1245
     85  CA         7.2460   28.1570   13.9020 C.3    47  LYS47       0.1561
     86  C          7.3070   29.6300   13.5230 C.2    47  LYS47       0.2260
     87  O          6.9280   30.0370   12.4100 O.2    47  LYS47      -0.2867
     88  CB         8.5430   27.3910   13.5370 C.3    47  LYS47       0.0271
     89  CG         8.4870   25.8760   13.9240 C.3    47  LYS47       0.0035
     90  CD         9.8430   25.1300   13.9480 C.3    47  LYS47       0.0206
     91  CE        10.3120   24.8140   12.5340 C.3    47  LYS47       0.1093
     92  NZ        11.3080   23.6840   12.4010 N.3    47  LYS47      -0.1314
     93  N         10.1280   14.9480   11.4270 N.3    77  VAL77      -0.1245
     94  CA         8.9900   15.8810   11.3320 C.3    77  VAL77       0.1561
     95  C          9.1490   16.7140   10.0570 C.2    77  VAL77       0.2260
     96  O         10.2250   17.2740    9.7950 O.2    77  VAL77      -0.2867
     97  CB         8.8430   16.7720   12.6010 C.3    77  VAL77       0.0252
     98  CG1        7.7850   17.8210   12.4030 C.3    77  VAL77       0.0019
     99  CG2        8.4860   15.9240   13.8090 C.3    77  VAL77       0.0019
    100  N          4.8260   23.2630    9.7400 N.3    93  MET93      -0.1230
    101  CA         5.2600   21.8750    9.9030 C.3    93  MET93       0.1702
    102  C          4.0690   20.9410   10.1000 C.2    93  MET93       0.2592
    103  O          2.9810   21.3910   10.4730 O.2    93  MET93      -0.2718
    104  CB         6.1700   21.7550   11.1370 C.3    93  MET93       0.0401
    105  CG         7.3320   22.7460   11.2150 C.3    93  MET93       0.0596
    106  SD         8.5860   22.4810    9.9460 S.3    93  MET93      -0.1393
    107  CE         9.2720   20.9060   10.4520 C.3    93  MET93       0.0692
    108  N          4.2550   19.6400    9.8780 N.am   94  GLU94      -0.1966
    109  CA         3.2190   18.6800   10.2890 C.3    94  GLU94       0.1733
    110  C          3.0740   18.8000   11.8100 C.2    94  GLU94       0.2616
    111  O          4.0820   18.8540   12.5110 O.2    94  GLU94      -0.2715
    112  CB         3.5710   17.2370    9.8860 C.3    94  GLU94       0.0429
    113  CG         4.5970   16.5660   10.7680 C.3    94  GLU94       0.1163
    114  CD         4.9330   15.1510   10.3180 C.2    94  GLU94       0.3649
    115  OE1        4.0680   14.2500   10.4330 O.co2  94  GLU94      -0.2457
    116  OE2        6.0740   14.9440    9.8570 O.co2  94  GLU94      -0.2457
    117  N          1.8370   18.8850   12.3070 N.am   95  LEU95      -0.1963
    118  CA         1.6250   18.9470   13.7500 C.3    95  LEU95       0.1728
    119  C          1.9780   17.5970   14.3710 C.2    95  LEU95       0.2616
    120  O          1.6520   16.5400   13.8270 O.2    95  LEU95      -0.2715
    121  CB         0.1810   19.3270   14.1090 C.3    95  LEU95       0.0311
    122  CG        -0.0970   19.3980   15.6250 C.3    95  LEU95       0.0022
    123  CD1        0.6750   20.5340   16.3040 C.3    95  LEU95       0.0001
    124  CD2       -1.5780   19.4860   15.9230 C.3    95  LEU95       0.0001
    125  N          2.6660   17.6280   15.5010 N.am   96  MET96      -0.1963
    126  CA         2.9000   16.3990   16.2470 C.3    96  MET96       0.1736
    127  C          2.0240   16.4700   17.4820 C.2    96  MET96       0.2616
    128  O          2.4150   17.0190   18.5080 O.2    96  MET96      -0.2715
    129  CB         4.3810   16.2440   16.5720 C.3    96  MET96       0.0427
    130  CG         5.2520   16.1450   15.3370 C.3    96  MET96       0.0599
    131  SD         4.8670   14.6460   14.4100 S.3    96  MET96      -0.1393
    132  CE         5.7100   13.3960   15.3760 C.3    96  MET96       0.0692
    133  N          0.8230   15.9080   17.3630 N.am   97  ALA97      -0.1963
    134  CA        -0.2620   16.2060   18.3100 C.3    97  ALA97       0.1728
    135  C         -0.0470   15.7320   19.7580 C.2    97  ALA97       0.2616
    136  O         -0.7010   16.2200   20.6630 O.2    97  ALA97      -0.2715
    137  CB        -1.6110   15.7490   17.7500 C.3    97  ALA97       0.0334
    138  N          0.8900   14.8150   19.9900 N.am   98  HIS98      -0.1959
    139  CA         1.1690   14.4020   21.3770 C.3    98  HIS98       0.1787
    140  C          2.4090   15.0510   21.9880 C.2    98  HIS98       0.2621
    141  O          2.8970   14.6500   23.0420 O.2    98  HIS98      -0.2715
    142  CB         1.1530   12.8740   21.5310 C.3    98  HIS98       0.0785
    143  CG        -0.2320   12.3030   21.5630 C.ar   98  HIS98       0.0821
    144  ND1       -1.0910   12.5030   22.6220 N.ar   98  HIS98      -0.2267
    145  CD2       -0.9190   11.5730   20.6520 C.ar   98  HIS98       0.1154
    146  CE1       -2.2420   11.9050   22.3710 C.ar   98  HIS98       0.1986
    147  NE2       -2.1640   11.3360   21.1800 N.ar   98  HIS98      -0.2212
    148  N          2.8910   16.0900   21.3200 N.am   99  GLY99      -0.1940
    149  CA         3.9470   16.9230   21.8660 C.3    99  GLY99       0.2014
    150  C          5.3290   16.3420   21.7520 C.2    99  GLY99       0.2638
    151  O          5.5620   15.3900   20.9780 O.2    99  GLY99      -0.2714
    152  N          6.2550   16.9220   22.5110 N.am  100  ASP100     -0.1971
    153  CA         7.6170   16.4200   22.5320 C.3   100  ASP100      0.1709
    154  C          7.6540   15.1280   23.3400 C.2   100  ASP100      0.2293
    155  O          6.8290   14.9230   24.2390 O.2   100  ASP100     -0.2864
    156  CB         8.5620   17.4570   23.1290 C.3   100  ASP100      0.1436
    157  CG         8.3260   17.6750   24.6060 C.2   100  ASP100      0.3671
    158  OD1        7.4420   18.4880   24.9580 O.co2 100  ASP100     -0.2456
    159  OD2        9.0430   17.0410   25.4040 O.co2 100  ASP100     -0.2456
    160  N          7.7570   15.4750   27.4580 N.3   103  SER103     -0.1217
    161  CA         6.4830   15.8210   28.0930 C.3   103  SER103      0.1889
    162  C          5.4680   14.6850   27.9830 C.2   103  SER103      0.2288
    163  O          4.6180   14.5070   28.8510 O.2   103  SER103     -0.2866
    164  CB         5.8890   17.0810   27.4570 C.3   103  SER103      0.2089
    165  OG         6.7890   18.1710   27.5360 O.3   103  SER103     -0.2183
    166  N         -1.8240   15.3880   34.4320 N.3   114  ASN114     -0.1240
    167  CA        -2.2700   15.3670   33.0470 C.3   114  ASN114      0.1653
    168  C         -2.2460   13.9530   32.4420 C.2   114  ASN114      0.2266
    169  O         -2.1330   13.7900   31.2230 O.2   114  ASN114     -0.2867
    170  CB        -1.4170   16.3330   32.2150 C.3   114  ASN114      0.1155
    171  CG         0.0530   15.9240   32.1570 C.2   114  ASN114      0.2627
    172  OD1        0.6210   15.4360   33.1390 O.2   114  ASN114     -0.2716
    173  ND2        0.6750   16.1320   31.0030 N.am  114  ASN114     -0.0877
    174  N         13.2150   15.5430   24.5270 N.3   153  ARG153     -0.1231
    175  CA        12.4890   16.7940   24.2710 C.3   153  ARG153      0.1694
    176  C         12.5930   17.2470   22.8100 C.2   153  ARG153      0.2592
    177  O         11.7850   18.0470   22.3560 O.2   153  ARG153     -0.2718
    178  CB        12.9430   17.9110   25.2060 C.3   153  ARG153      0.0321
    179  CG        14.3070   18.4810   24.8880 C.3   153  ARG153      0.0489
    180  CD        14.4930   19.7980   25.6120 C.3   153  ARG153      0.2205
    181  NE        15.7990   20.3990   25.3560 N.pl3 153  ARG153     -0.0865
    182  CZ        16.9160   20.1020   26.0170 C.cat 153  ARG153      0.5346
    183  NH1       16.9120   19.1840   26.9800 N.pl3 153  ARG153      0.1354
    184  NH2       18.0490   20.7220   25.7020 N.pl3 153  ARG153      0.1354
    185  N         13.5810   16.7120   22.0940 N.am  154  ASN154     -0.1974
    186  CA        13.8150   17.0740   20.7050 C.3   154  ASN154      0.1688
    187  C         13.2000   16.1050   19.7040 C.2   154  ASN154      0.2292
    188  O         13.3480   16.2540   18.4760 O.2   154  ASN154     -0.2864
    189  CB        15.3110   17.3050   20.4690 C.3   154  ASN154      0.1181
    190  CG        15.7850   18.6080   21.0930 C.2   154  ASN154      0.2629
    191  OD1       15.0930   19.6300   21.0110 O.2   154  ASN154     -0.2716
    192  ND2       16.9500   18.5840   21.7300 N.am  154  ASN154     -0.0877
    193  N          9.5410   14.1410   18.6700 N.3   156  MET156     -0.1245
    194  CA         8.1220   14.4630   18.7780 C.3   156  MET156      0.1570
    195  C          7.2490   13.2180   18.6940 C.2   156  MET156      0.2261
    196  O          7.7270   12.1530   18.2900 O.2   156  MET156     -0.2867
    197  CB         7.7410   15.4860   17.7230 C.3   156  MET156      0.0387
    198  CG         8.5430   16.7850   17.7770 C.3   156  MET156      0.0595
    199  SD         8.0490   17.9510   19.0550 S.3   156  MET156     -0.1393
    200  CE         6.3010   17.8690   18.9070 C.3   156  MET156      0.0692
    201  N         12.4210   15.7820   15.5930 N.3   166  GLY166     -0.1210
    202  CA        11.8560   17.1160   15.4050 C.3   166  GLY166      0.1956
    203  C         12.5450   17.9390   14.3320 C.2   166  GLY166      0.2611
    204  O         11.8890   18.6390   13.5610 O.2   166  GLY166     -0.2717
    205  N         13.8710   17.8810   14.2930 N.am  167  ASP167     -0.1973
    206  CA        14.6300   18.5910   13.2530 C.3   167  ASP167      0.1709
    207  C         16.0050   17.9520   13.0450 C.2   167  ASP167      0.2293
    208  O         16.2900   16.9100   13.6270 O.2   167  ASP167     -0.2864
    209  CB        14.7220   20.1060   13.5630 C.3   167  ASP167      0.1436
    210  CG        15.1100   20.3940   15.0180 C.2   167  ASP167      0.3671
    211  OD1       16.0400   19.7360   15.5540 O.co2 167  ASP167     -0.2456
    212  OD2       14.4750   21.2990   15.6200 O.co2 167  ASP167     -0.2456
@<TRIPOS>BOND
     1   100   101    1
     2    96    95    2
     3   116   114   ar
     4   108   102   am
     5   108   109    1
     6   112   109    1
     7   112   113    1
     8   101   102    1
     9   101   104    1
    10   106   107    1
    11   106   105    1
    12    95    94    1
    13   102   103    2
    14   109   110    1
    15   114   115   ar
    16   114   113    1
    17    68    69    1
    18    71    70    2
    19   104   105    1
    20    94    93    1
    21    94    97    1
    22    70    69    1
    23    69    72    1
    24   110   117   am
    25   110   111    2
    26    82    81    2
    27   117   118    1
    28    92    91    1
    29    98    97    1
    30    87    86    2
    31    91    90    1
    32    97    99    1
    33    72    73    1
    34    73    74    1
    35    79    80    1
    36   207   206    1
    37   207   208    2
    38    81    80    1
    39   206   209    1
    40   206   205    1
    41    84    85    1
    42    86    85    1
    43    88    85    1
    44    88    89    1
    45   204   203    2
    46   209   210    1
    47   118   121    1
    48   118   119    1
    49   120   119    2
    50    89    90    1
    51    80    83    1
    52    74    75    1
    53   121   122    1
    54   205   203   am
    55   203   202    1
    56   119   125   am
    57   131   130    1
    58   131   132    1
    59   210   211   ar
    60   210   212   ar
    61   130   129    1
    62    75    76    2
    63   202   201    1
    64   125   126    1
    65   122   124    1
    66   122   123    1
    67    61    62    2
    68    61    60    1
    69   126   129    1
    70   126   127    1
    71    76    77    1
    72    76    78    1
    73    60    59    1
    74    60    63    1
    75    51    50    1
    76    57    56    1
    77    64    63    1
    78    64    65    1
    79   133   127   am
    80   133   134    1
    81   127   128    2
    82    67    65   ar
    83   197   198    1
    84   197   194    1
    85   137   134    1
    86   198   199    1
    87    58    56    1
    88    53    56    1
    89    53    54    1
    90    53    52    1
    91    65    66   ar
    92   196   195    2
    93   134   135    1
    94    50    47    1
    95    54    55    2
    96   188   187    2
    97    48    47    1
    98    48    49    2
    99   193   194    1
   100   195   194    1
   101    27    26    1
   102   200   199    1
   103    46    47    1
   104    46    44   am
   105     1     2    1
   106     4     3    2
   107   187   186    1
   108   135   138   am
   109   135   136    2
   110    43    44    1
   111    43    42    1
   112    44    45    2
   113    26    28    1
   114    26    25    1
   115   138   139    1
   116   189   186    1
   117   189   190    1
   118     3     2    1
   119     3    12   am
   120    42    35   am
   121     2     5    1
   122   145   147   ar
   123   145   143   ar
   124   186   185    1
   125    25    22    1
   126   151   150    2
   127   191   190    2
   128   190   192   am
   129   147   146   ar
   130     6     5    1
   131     6     7    1
   132   148   149    1
   133   148   140   am
   134   139   142    1
   135   139   140    1
   136    32    31    2
   137   142   143    1
   138   143   144   ar
   139    12    13    1
   140    21    22    1
   141    21    14   am
   142   150   149    1
   143   150   152   am
   144    13    14    1
   145    13    16    1
   146    35    36    2
   147    35    34    1
   148   140   141    2
   149   185   176   am
   150    22    23    1
   151    40    39    2
   152    14    15    2
   153     8     7    1
   154     8     9    2
   155   177   176    2
   156   146   144   ar
   157    17    16    1
   158    17    18    1
   159   152   153    1
   160   153   156    1
   161   153   154    1
   162    31    33   am
   163    31    30    1
   164    34    33    1
   165    34    37    1
   166    29    23   am
   167    29    30    1
   168   176   175    1
   169    10     9    1
   170    23    24    2
   171    41    39   am
   172    39    38    1
   173   156   157    1
   174    20    18   ar
   175     9    11    1
   176   154   155    2
   177    18    19   ar
   178    37    38    1
   179   175   174    1
   180   175   178    1
   181   157   158   ar
   182   157   159   ar
   183   179   178    1
   184   179   180    1
   185   181   180    1
   186   181   182    2
   187   184   182    1
   188   182   183    1
   189   164   165    1
   190   164   161    1
   191   160   161    1
   192   162   161    1
   193   162   163    2
   194   173   171   am
   195   169   168    2
   196   171   170    1
   197   171   172    2
   198   170   167    1
   199   168   167    1
   200   167   166    1
