@<TRIPOS>MOLECULE
tmp/3ekoA00.pdb
 120 110 0 0 0
SMALL
GASTEIGER

@<TRIPOS>ATOM
      1  N         15.1900    7.1520   52.5290 N.3    39  LEU39      -0.1245
      2  CA        15.5440    6.2350   51.4490 C.3    39  LEU39       0.1561
      3  C         17.0540    6.0400   51.3410 C.2    39  LEU39       0.2260
      4  O         17.5250    4.9280   51.1070 O.2    39  LEU39      -0.2867
      5  CB        14.9690    6.7400   50.1220 C.3    39  LEU39       0.0270
      6  CG        13.4360    6.7400   50.0950 C.3    39  LEU39       0.0019
      7  CD1       12.9480    7.2950   48.7640 C.3    39  LEU39       0.0001
      8  CD2       12.9130    5.3230   50.3110 C.3    39  LEU39       0.0001
      9  N         17.9790    3.6860   54.0640 N.3    42  ASN42      -0.1225
     10  CA        17.6810    2.3090   53.6860 C.3    42  ASN42       0.1785
     11  C         18.7580    1.7620   52.7520 C.2    42  ASN42       0.2597
     12  O         19.1850    0.6160   52.8920 O.2    42  ASN42      -0.2718
     13  CB        16.3200    2.2200   52.9920 C.3    42  ASN42       0.1169
     14  CG        15.1560    2.3550   53.9570 C.2    42  ASN42       0.2627
     15  OD1       15.3390    2.4930   55.1650 O.2    42  ASN42      -0.2716
     16  ND2       13.9440    2.3150   53.4180 N.am   42  ASN42      -0.0877
     17  N         19.1910    2.5790   51.7960 N.am   43  SER43      -0.1952
     18  CA        20.2300    2.1590   50.8630 C.3    43  SER43       0.1924
     19  C         21.5190    1.8560   51.6070 C.2    43  SER43       0.2314
     20  O         22.1890    0.8680   51.3160 O.2    43  SER43      -0.2863
     21  CB        20.4940    3.2440   49.8200 C.3    43  SER43       0.2116
     22  OG        19.4120    3.3560   48.9130 O.3    43  SER43      -0.2180
     23  N         21.8470    0.8910   54.6730 N.3    45  ASP45      -0.1225
     24  CA        21.6820   -0.3660   55.3940 C.3    45  ASP45       0.1805
     25  C         21.8720   -1.5560   54.4540 C.2    45  ASP45       0.2597
     26  O         22.5160   -2.5420   54.8100 O.2    45  ASP45      -0.2718
     27  CB        20.2940   -0.4330   56.0400 C.3    45  ASP45       0.1424
     28  CG        20.1260    0.5530   57.1900 C.2    45  ASP45       0.3668
     29  OD1       21.1280    1.1540   57.6340 O.co2  45  ASP45      -0.2456
     30  OD2       18.9790    0.7240   57.6530 O.co2  45  ASP45      -0.2456
     31  N         21.3130   -1.4650   53.2510 N.am   46  ALA46      -0.1979
     32  CA        21.4440   -2.5420   52.2750 C.3    46  ALA46       0.1597
     33  C         22.8990   -2.7140   51.8500 C.2    46  ALA46       0.2287
     34  O         23.3570   -3.8330   51.6210 O.2    46  ALA46      -0.2864
     35  CB        20.5720   -2.2510   51.0540 C.3    46  ALA46       0.0319
     36  N         24.8770   -4.5070   54.4410 N.3    49  LYS49      -0.1245
     37  CA        24.6190   -5.9380   54.4580 C.3    49  LYS49       0.1561
     38  C         25.4670   -6.6890   53.4420 C.2    49  LYS49       0.2260
     39  O         26.0670   -7.7130   53.7700 O.2    49  LYS49      -0.2867
     40  CB        23.1300   -6.2140   54.2200 C.3    49  LYS49       0.0271
     41  CG        22.2600   -5.8120   55.3980 C.3    49  LYS49       0.0035
     42  CD        20.7870   -6.1120   55.1590 C.3    49  LYS49       0.0206
     43  CE        19.9360   -5.5670   56.2980 C.3    49  LYS49       0.1093
     44  NZ        18.5000   -5.9530   56.1990 N.3    49  LYS49      -0.1314
     45  N         20.9040    2.0680   44.5910 N.3    84  ASP84      -0.1239
     46  CA        22.0600    1.6170   45.3560 C.3    84  ASP84       0.1674
     47  C         22.5340    0.2590   44.8690 C.2    84  ASP84       0.2266
     48  O         21.8100   -0.4550   44.1700 O.2    84  ASP84      -0.2867
     49  CB        21.7410    1.5690   46.8610 C.3    84  ASP84       0.1410
     50  CG        20.7040    0.5180   47.2140 C.2    84  ASP84       0.3668
     51  OD1       20.9820   -0.6830   47.0300 O.co2  84  ASP84      -0.2456
     52  OD2       19.6100    0.8930   47.6900 O.co2  84  ASP84      -0.2456
     53  N         22.5660   -5.1330   48.9270 N.3    87  ILE87      -0.1231
     54  CA        22.3620   -6.5710   48.8490 C.3    87  ILE87       0.1692
     55  C         21.1440   -6.9420   47.9980 C.2    87  ILE87       0.2593
     56  O         21.0540   -8.0550   47.4830 O.2    87  ILE87      -0.2718
     57  CB        22.2190   -7.1680   50.2700 C.3    87  ILE87       0.0266
     58  CG1       22.2830   -8.6940   50.2160 C.3    87  ILE87       0.0019
     59  CG2       20.9110   -6.7230   50.8950 C.3    87  ILE87       0.0020
     60  CD1       22.6250   -9.3180   51.5570 C.3    87  ILE87       0.0001
     61  N         20.2150   -6.0050   47.8380 N.am   88  GLY88      -0.1942
     62  CA        19.0450   -6.2750   47.0210 C.3    88  GLY88       0.2014
     63  C         18.0390   -7.1760   47.7180 C.2    88  GLY88       0.2638
     64  O         18.2230   -7.5580   48.8780 O.2    88  GLY88      -0.2714
     65  N         16.9700   -7.5220   47.0060 N.am   89  MET89      -0.1976
     66  CA        15.8900   -8.3180   47.5820 C.3    89  MET89       0.1605
     67  C         15.4730   -9.4410   46.6510 C.2    89  MET89       0.2287
     68  O         15.4110   -9.2580   45.4360 O.2    89  MET89      -0.2864
     69  CB        14.6730   -7.4340   47.8620 C.3    89  MET89       0.0413
     70  CG        14.8570   -6.4890   49.0290 C.3    89  MET89       0.0598
     71  SD        13.3890   -5.4930   49.3420 S.3    89  MET89      -0.1393
     72  CE        13.5890   -4.1910   48.1240 C.3    89  MET89       0.0692
     73  N          8.6530   -8.1360   52.9220 N.3    97  ASN97      -0.1225
     74  CA         9.1820   -6.9520   53.5870 C.3    97  ASN97       0.1785
     75  C          8.6010   -5.6450   53.0660 C.2    97  ASN97       0.2597
     76  O          8.6940   -4.6140   53.7330 O.2    97  ASN97      -0.2718
     77  CB        10.7060   -6.9220   53.4630 C.3    97  ASN97       0.1169
     78  CG        11.3590   -8.1450   54.0720 C.2    97  ASN97       0.2627
     79  OD1       10.7360   -8.8730   54.8470 O.2    97  ASN97      -0.2716
     80  ND2       12.6180   -8.3790   53.7250 N.am   97  ASN97      -0.0877
     81  N          8.0050   -5.6800   51.8770 N.am   98  LEU98      -0.1980
     82  CA         7.3470   -4.4960   51.3420 C.3    98  LEU98       0.1596
     83  C          5.8460   -4.6660   51.1480 C.2    98  LEU98       0.2287
     84  O          5.2980   -4.2360   50.1330 O.2    98  LEU98      -0.2864
     85  CB         7.9770   -4.0690   50.0100 C.3    98  LEU98       0.0297
     86  CG         9.3340   -3.3620   50.0440 C.3    98  LEU98       0.0022
     87  CD1        9.6190   -2.7740   48.6670 C.3    98  LEU98       0.0001
     88  CD2        9.3390   -2.2660   51.0980 C.3    98  LEU98       0.0001
     89  N         10.6530    3.5430   54.5490 N.3   129  PHE129     -0.1241
     90  CA        10.4130    3.4080   53.1140 C.3   129  PHE129      0.1605
     91  C          9.1090    4.0890   52.7060 C.2   129  PHE129      0.2264
     92  O          9.0300    4.7470   51.6670 O.2   129  PHE129     -0.2867
     93  CB        10.3530    1.9290   52.7240 C.3   129  PHE129      0.0534
     94  CG         9.7990    1.6890   51.3460 C.ar  129  PHE129     -0.0203
     95  CD1       10.5990    1.8370   50.2220 C.ar  129  PHE129     -0.0042
     96  CD2        8.4710    1.3280   51.1750 C.ar  129  PHE129     -0.0042
     97  CE1       10.0830    1.6320   48.9510 C.ar  129  PHE129     -0.0003
     98  CE2        7.9480    1.1210   49.9080 C.ar  129  PHE129     -0.0003
     99  CZ         8.7520    1.2720   48.7940 C.ar  129  PHE129     -0.0000
    100  N          9.8000   -0.1520   42.6980 N.3   141  VAL141     -0.1245
    101  CA        11.0650   -0.6340   43.2340 C.3   141  VAL141      0.1561
    102  C         11.5900   -1.7420   42.3340 C.2   141  VAL141      0.2260
    103  O         10.9310   -2.7670   42.1510 O.2   141  VAL141     -0.2867
    104  CB        10.8950   -1.1820   44.6720 C.3   141  VAL141      0.0252
    105  CG1       12.2240   -1.7110   45.1930 C.3   141  VAL141      0.0019
    106  CG2       10.3660   -0.0910   45.5860 C.3   141  VAL141      0.0019
    107  N         19.1540   -2.1240   44.4970 N.3   175  THR175     -0.1218
    108  CA        17.7620   -1.7050   44.4870 C.3   175  THR175      0.1862
    109  C         17.6270   -0.2970   43.9430 C.2   175  THR175      0.2287
    110  O         18.4210    0.5850   44.2640 O.2   175  THR175     -0.2866
    111  CB        17.1710   -1.7730   45.9100 C.3   175  THR175      0.1770
    112  OG1       17.0960   -3.1470   46.3120 O.3   175  THR175     -0.2211
    113  CG2       15.7700   -1.1620   45.9590 C.3   175  THR175      0.0375
    114  N         14.7450    2.6780   43.7160 N.3   177  VAL177     -0.1245
    115  CA        13.4340    3.1790   44.1110 C.3   177  VAL177      0.1561
    116  C         13.0660    4.3650   43.2310 C.2   177  VAL177      0.2260
    117  O         13.7100    5.4230   43.2890 O.2   177  VAL177     -0.2867
    118  CB        13.4180    3.6300   45.5920 C.3   177  VAL177      0.0252
    119  CG1       12.0400    4.1820   45.9510 C.3   177  VAL177      0.0019
    120  CG2       13.7670    2.4630   46.4970 C.3   177  VAL177      0.0019
@<TRIPOS>BOND
     1   103   102    2
     2   102   101    1
     3   100   101    1
     4   116   117    2
     5   116   115    1
     6   101   104    1
     7   114   115    1
     8   109   110    2
     9   109   108    1
    10   115   118    1
    11    48    47    2
    12   108   107    1
    13   108   111    1
    14    45    46    1
    15   104   105    1
    16   104   106    1
    17    47    46    1
    18    46    49    1
    19    68    67    2
    20   118   119    1
    21   118   120    1
    22   111   113    1
    23   111   112    1
    24    67    66    1
    25    49    50    1
    26    65    66    1
    27    65    63   am
    28    62    63    1
    29    62    61    1
    30    51    50   ar
    31    50    52   ar
    32    56    55    2
    33    66    69    1
    34    63    64    2
    35    61    55   am
    36    69    70    1
    37    55    54    1
    38    72    71    1
    39    87    86    1
    40     7     6    1
    41    99    97   ar
    42    99    98   ar
    43    54    53    1
    44    54    57    1
    45    22    21    1
    46    97    95   ar
    47    70    71    1
    48    21    18    1
    49    98    96   ar
    50    85    86    1
    51    85    82    1
    52    86    88    1
    53     6     5    1
    54     6     8    1
    55     5     2    1
    56    84    83    2
    57    58    57    1
    58    58    60    1
    59    95    94   ar
    60    57    59    1
    61    18    19    1
    62    18    17    1
    63    35    32    1
    64     4     3    2
    65    83    82    1
    66    96    94   ar
    67    20    19    2
    68     3     2    1
    69    82    81    1
    70    94    93    1
    71     2     1    1
    72    34    33    2
    73    92    91    2
    74    17    11   am
    75    33    32    1
    76    81    75   am
    77    32    31    1
    78    91    90    1
    79    93    90    1
    80    11    12    2
    81    11    10    1
    82    73    74    1
    83    13    10    1
    84    13    14    1
    85    75    74    1
    86    75    76    2
    87    90    89    1
    88    31    25   am
    89    16    14   am
    90    38    39    2
    91    38    37    1
    92    77    74    1
    93    77    78    1
    94    10     9    1
    95    80    78   am
    96    14    15    2
    97    78    79    2
    98    40    37    1
    99    40    41    1
   100    36    37    1
   101    25    26    2
   102    25    24    1
   103    23    24    1
   104    42    41    1
   105    42    43    1
   106    24    27    1
   107    27    28    1
   108    44    43    1
   109    28    29   ar
   110    28    30   ar
