@<TRIPOS>MOLECULE
tmp/3ekrB00.pdb
 132 120 0 0 0
SMALL
GASTEIGER

@<TRIPOS>ATOM
      1  N         14.8840   47.6160   41.7510 N.3    40  LEU40      -0.1245
      2  CA        15.1180   46.6540   40.6760 C.3    40  LEU40       0.1561
      3  C         16.5950   46.2860   40.5350 C.2    40  LEU40       0.2260
      4  O         16.9340   45.1280   40.3000 O.2    40  LEU40      -0.2867
      5  CB        14.5940   47.2090   39.3480 C.3    40  LEU40       0.0270
      6  CG        13.0690   47.3490   39.3050 C.3    40  LEU40       0.0019
      7  CD1       12.6370   47.9560   37.9810 C.3    40  LEU40       0.0001
      8  CD2       12.4340   45.9730   39.4970 C.3    40  LEU40       0.0001
      9  N         17.4250   43.9470   43.2890 N.3    43  ASN43      -0.1225
     10  CA        16.9760   42.5970   42.9510 C.3    43  ASN43       0.1785
     11  C         17.9460   41.8960   42.0030 C.2    43  ASN43       0.2597
     12  O         18.2470   40.7150   42.1750 O.2    43  ASN43      -0.2718
     13  CB        15.5870   42.6410   42.3060 C.3    43  ASN43       0.1169
     14  CG        14.4700   42.7840   43.3260 C.2    43  ASN43       0.2627
     15  OD1       14.7160   43.0170   44.5090 O.2    43  ASN43      -0.2716
     16  ND2       13.2310   42.6400   42.8670 N.am   43  ASN43      -0.0877
     17  N         18.4290   42.6240   40.9990 N.am   44  SER44      -0.1952
     18  CA        19.3970   42.0710   40.0600 C.3    44  SER44       0.1924
     19  C         20.6950   41.7170   40.7780 C.2    44  SER44       0.2314
     20  O         21.3090   40.6880   40.4990 O.2    44  SER44      -0.2863
     21  CB        19.6860   43.0750   38.9370 C.3    44  SER44       0.2116
     22  OG        18.5310   43.3110   38.1450 O.3    44  SER44      -0.2180
     23  N         21.0200   40.8860   43.9370 N.3    46  ASP46      -0.1225
     24  CA        20.7220   39.6570   44.6700 C.3    46  ASP46       0.1805
     25  C         20.8280   38.4500   43.7350 C.2    46  ASP46       0.2597
     26  O         21.4680   37.4430   44.0670 O.2    46  ASP46      -0.2718
     27  CB        19.3070   39.7030   45.2670 C.3    46  ASP46       0.1424
     28  CG        19.1740   40.7060   46.4120 C.2    46  ASP46       0.3668
     29  OD1       20.1720   41.3700   46.7640 O.co2  46  ASP46      -0.2456
     30  OD2       18.0560   40.8250   46.9590 O.co2  46  ASP46      -0.2456
     31  N         20.2070   38.5480   42.5640 N.am   47  ALA47      -0.1979
     32  CA        20.2180   37.4310   41.6190 C.3    47  ALA47       0.1597
     33  C         21.6400   37.1180   41.1570 C.2    47  ALA47       0.2287
     34  O         22.0140   35.9480   41.0120 O.2    47  ALA47      -0.2864
     35  CB        19.3240   37.7480   40.4110 C.3    47  ALA47       0.0319
     36  N         23.5260   35.3020   43.8340 N.3    50  LYS50      -0.1245
     37  CA        23.1110   33.9110   43.9370 C.3    50  LYS50       0.1561
     38  C         23.8310   33.0010   42.9460 C.2    50  LYS50       0.2260
     39  O         24.3120   31.9290   43.3240 O.2    50  LYS50      -0.2867
     40  CB        21.5990   33.7950   43.7410 C.3    50  LYS50       0.0271
     41  CG        20.7870   34.3390   44.9070 C.3    50  LYS50       0.0035
     42  CD        19.3090   34.0350   44.7320 C.3    50  LYS50       0.0206
     43  CE        18.5130   34.4410   45.9600 C.3    50  LYS50       0.1093
     44  NZ        17.1280   33.8820   45.9170 N.3    50  LYS50      -0.1314
     45  N         15.5520   46.7720   32.3460 N.3    83  ILE83      -0.1245
     46  CA        16.6700   46.4430   33.2270 C.3    83  ILE83       0.1561
     47  C         17.0220   44.9760   33.0090 C.2    83  ILE83       0.2260
     48  O         16.1870   44.0980   33.2260 O.2    83  ILE83      -0.2867
     49  CB        16.3000   46.6340   34.7270 C.3    83  ILE83       0.0252
     50  CG1       15.9280   48.0940   35.0080 C.3    83  ILE83       0.0019
     51  CG2       17.4750   46.2160   35.6110 C.3    83  ILE83       0.0019
     52  CD1       14.4710   48.4210   34.7520 C.3    83  ILE83       0.0001
     53  N         19.7290   41.7410   33.7710 N.3    85  ASP85      -0.1239
     54  CA        20.8610   41.1950   34.5090 C.3    85  ASP85       0.1674
     55  C         21.1750   39.7670   34.0870 C.2    85  ASP85       0.2266
     56  O         20.3590   39.0960   33.4510 O.2    85  ASP85      -0.2867
     57  CB        20.6140   41.2740   36.0290 C.3    85  ASP85       0.1410
     58  CG        19.4820   40.3650   36.5020 C.2    85  ASP85       0.3668
     59  OD1       19.6090   39.1270   36.3790 O.co2  85  ASP85      -0.2456
     60  OD2       18.4680   40.8940   37.0090 O.co2  85  ASP85      -0.2456
     61  N         20.8860   34.6330   38.4520 N.3    88  ILE88      -0.1231
     62  CA        20.5160   33.2220   38.4330 C.3    88  ILE88       0.1692
     63  C         19.2150   32.9560   37.6750 C.2    88  ILE88       0.2593
     64  O         18.9730   31.8360   37.2270 O.2    88  ILE88      -0.2718
     65  CB        20.3860   32.6740   39.8740 C.3    88  ILE88       0.0266
     66  CG1       20.1790   31.1550   39.8510 C.3    88  ILE88       0.0019
     67  CG2       19.2230   33.3590   40.5840 C.3    88  ILE88       0.0020
     68  CD1       20.5040   30.4910   41.1850 C.3    88  ILE88       0.0001
     69  N         18.3860   33.9850   37.5190 N.am   89  GLY89      -0.1942
     70  CA        17.1240   33.8060   36.8210 C.3    89  GLY89       0.2014
     71  C         16.0960   33.0650   37.6580 C.2    89  GLY89       0.2638
     72  O         16.3610   32.7150   38.8090 O.2    89  GLY89      -0.2714
     73  N         14.9190   32.8280   37.0860 N.am   90  MET90      -0.1976
     74  CA        13.8440   32.1450   37.8020 C.3    90  MET90       0.1605
     75  C         13.3190   30.9340   37.0240 C.2    90  MET90       0.2287
     76  O         13.0600   31.0190   35.8240 O.2    90  MET90      -0.2864
     77  CB        12.6870   33.1240   38.0730 C.3    90  MET90       0.0413
     78  CG        13.0440   34.2730   39.0100 C.3    90  MET90       0.0598
     79  SD        11.7120   35.4890   39.2310 S.3    90  MET90      -0.1393
     80  CE        11.8640   36.4430   37.7070 C.3    90  MET90       0.0692
     81  N          7.4210   33.3080   43.6460 N.3    98  ASN98      -0.1225
     82  CA         8.1190   34.4670   44.1870 C.3    98  ASN98       0.1785
     83  C          7.7820   35.7910   43.5020 C.2    98  ASN98       0.2597
     84  O          8.1930   36.8500   43.9740 O.2    98  ASN98      -0.2718
     85  CB         9.6310   34.2290   44.1360 C.3    98  ASN98       0.1169
     86  CG        10.0570   33.0500   44.9820 C.2    98  ASN98       0.2627
     87  OD1        9.4370   32.7570   46.0050 O.2    98  ASN98      -0.2716
     88  ND2       11.1120   32.3620   44.5600 N.am   98  ASN98      -0.0877
     89  N          7.0490   35.7360   42.3940 N.am   99  LEU99      -0.1980
     90  CA         6.5910   36.9600   41.7320 C.3    99  LEU99       0.1596
     91  C          5.0710   37.0670   41.6300 C.2    99  LEU99       0.2287
     92  O          4.5460   37.4520   40.5790 O.2    99  LEU99      -0.2864
     93  CB         7.1750   37.0740   40.3170 C.3    99  LEU99       0.0297
     94  CG         8.3490   38.0220   40.0410 C.3    99  LEU99       0.0022
     95  CD1        8.2110   38.5790   38.6240 C.3    99  LEU99       0.0001
     96  CD2        8.3770   39.1550   41.0480 C.3    99  LEU99       0.0001
     97  N         10.5220   42.8070   51.2120 N.3   127  GLY127     -0.1225
     98  CA        10.6160   41.7380   50.2370 C.3   127  GLY127      0.1811
     99  C          9.7230   41.9240   49.0270 C.2   127  GLY127      0.2280
    100  O          9.5610   41.0000   48.2290 O.2   127  GLY127     -0.2866
    101  N         10.0940   44.8100   44.1420 N.3   130  PHE130     -0.1241
    102  CA         9.8290   44.6820   42.7070 C.3   130  PHE130      0.1605
    103  C          8.5910   45.4700   42.3040 C.2   130  PHE130      0.2264
    104  O          8.5440   46.0650   41.2300 O.2   130  PHE130     -0.2867
    105  CB         9.6320   43.2120   42.3250 C.3   130  PHE130      0.0534
    106  CG         9.0310   43.0110   40.9540 C.ar  130  PHE130     -0.0203
    107  CD1        9.8210   43.0950   39.8140 C.ar  130  PHE130     -0.0042
    108  CD2        7.6850   42.6990   40.8090 C.ar  130  PHE130     -0.0042
    109  CE1        9.2800   42.8690   38.5540 C.ar  130  PHE130     -0.0003
    110  CE2        7.1350   42.4720   39.5590 C.ar  130  PHE130     -0.0003
    111  CZ         7.9350   42.5560   38.4250 C.ar  130  PHE130     -0.0000
    112  N          8.3440   40.6530   32.3940 N.3   142  VAL142     -0.1245
    113  CA         9.5870   40.0840   32.8940 C.3   142  VAL142      0.1561
    114  C          9.9510   38.8420   32.0970 C.2   142  VAL142      0.2260
    115  O          9.2020   37.8710   32.0710 O.2   142  VAL142     -0.2867
    116  CB         9.4720   39.7120   34.3920 C.3   142  VAL142      0.0252
    117  CG1       10.7660   39.0420   34.8650 C.3   142  VAL142      0.0019
    118  CG2        9.1940   40.9750   35.2250 C.3   142  VAL142      0.0019
    119  N         17.5500   37.7110   34.1410 N.3   176  THR176     -0.1218
    120  CA        16.2260   38.3020   34.1540 C.3   176  THR176      0.1862
    121  C         16.2120   39.6800   33.5210 C.2   176  THR176      0.2287
    122  O         17.1080   40.4970   33.7420 O.2   176  THR176     -0.2866
    123  CB        15.6850   38.3840   35.5940 C.3   176  THR176      0.1770
    124  OG1       15.4270   37.0560   36.0700 O.3   176  THR176     -0.2211
    125  CG2       14.3970   39.2050   35.6460 C.3   176  THR176      0.0375
    126  N         13.6680   42.9300   32.9630 N.3   178  VAL178     -0.1245
    127  CA        12.4390   43.5870   33.3750 C.3   178  VAL178      0.1561
    128  C         12.1490   44.7480   32.4330 C.2   178  VAL178      0.2260
    129  O         12.9300   45.6990   32.3490 O.2   178  VAL178     -0.2867
    130  CB        12.5730   44.1100   34.8110 C.3   178  VAL178      0.0252
    131  CG1       11.3020   44.8450   35.2320 C.3   178  VAL178      0.0019
    132  CG2       12.8690   42.9390   35.7450 C.3   178  VAL178      0.0019
@<TRIPOS>BOND
     1   115   114    2
     2   114   113    1
     3    45    46    1
     4   129   128    2
     5   112   113    1
     6   128   127    1
     7   113   116    1
     8   126   127    1
     9    47    48    2
    10    47    46    1
    11    46    49    1
    12   127   130    1
    13    56    55    2
    14   121   122    2
    15   121   120    1
    16    53    54    1
    17    55    54    1
    18   119   120    1
    19   120   123    1
    20   116   117    1
    21   116   118    1
    22    54    57    1
    23    49    50    1
    24    49    51    1
    25    52    50    1
    26   130   131    1
    27   130   132    1
    28   123   125    1
    29   123   124    1
    30    76    75    2
    31    57    58    1
    32    59    58   ar
    33    58    60   ar
    34    70    69    1
    35    70    71    1
    36    75    74    1
    37    73    71   am
    38    73    74    1
    39    64    63    2
    40    69    63   am
    41    71    72    2
    42    63    62    1
    43    80    79    1
    44    74    77    1
    45     7     6    1
    46    77    78    1
    47    22    21    1
    48   111   109   ar
    49   111   110   ar
    50    62    61    1
    51    62    65    1
    52   109   107   ar
    53    95    94    1
    54    21    18    1
    55    78    79    1
    56     6     5    1
    57     6     8    1
    58     5     2    1
    59   110   108   ar
    60   107   106   ar
    61    66    65    1
    62    66    68    1
    63    65    67    1
    64    94    93    1
    65    94    96    1
    66    18    19    1
    67    18    17    1
    68     4     3    2
    69    93    90    1
    70    35    32    1
    71    20    19    2
    72     3     2    1
    73    92    91    2
    74     2     1    1
    75   108   106   ar
    76   106   105    1
    77    17    11   am
    78    34    33    2
    79    33    32    1
    80   104   103    2
    81    32    31    1
    82    91    90    1
    83    90    89    1
    84    11    12    2
    85    11    10    1
    86   103   102    1
    87    13    10    1
    88    13    14    1
    89   105   102    1
    90    89    83   am
    91    31    25   am
    92   102   101    1
    93    16    14   am
    94    38    39    2
    95    38    37    1
    96    10     9    1
    97    14    15    2
    98    83    84    2
    99    83    82    1
   100    81    82    1
   101    25    26    2
   102    25    24    1
   103    40    37    1
   104    40    41    1
   105    36    37    1
   106    23    24    1
   107    85    82    1
   108    85    86    1
   109    88    86   am
   110    24    27    1
   111    42    41    1
   112    42    43    1
   113    86    87    2
   114    27    28    1
   115    44    43    1
   116    28    29   ar
   117    28    30   ar
   118   100    99    2
   119    99    98    1
   120    98    97    1
