@<TRIPOS>MOLECULE
tmp/3eksA01.pdb
 183 178 0 0 0
SMALL
GASTEIGER

@<TRIPOS>ATOM
      1  N        150.0880   -7.6500   28.1060 N.3   132  TYR132     -0.1227
      2  CA       150.9800   -8.5510   28.8030 C.3   132  TYR132      0.1736
      3  C        152.1560   -7.7390   29.2900 C.2   132  TYR132      0.2595
      4  O        152.4830   -6.7010   28.7110 O.2   132  TYR132     -0.2718
      5  CB       151.4910   -9.6450   27.8670 C.3   132  TYR132      0.0548
      6  CG       152.0930  -10.8310   28.5840 C.ar  132  TYR132     -0.0200
      7  CD1      151.3200  -11.9400   28.8900 C.ar  132  TYR132     -0.0009
      8  CD2      153.4410  -10.8460   28.9500 C.ar  132  TYR132     -0.0009
      9  CE1      151.8630  -13.0400   29.5340 C.ar  132  TYR132      0.0417
     10  CE2      154.0000  -11.9460   29.6030 C.ar  132  TYR132      0.0417
     11  CZ       153.2020  -13.0350   29.8850 C.ar  132  TYR132      0.1957
     12  OH       153.7400  -14.1240   30.5220 O.3   132  TYR132     -0.2866
     13  N        152.7770   -8.2250   30.3540 N.am  133  VAL133     -0.1966
     14  CA       153.9380   -7.5790   30.9510 C.3   133  VAL133      0.1727
     15  C        155.0290   -8.6350   30.9920 C.2   133  VAL133      0.2616
     16  O        154.8890   -9.6530   31.6740 O.2   133  VAL133     -0.2715
     17  CB       153.6390   -7.1010   32.3930 C.3   133  VAL133      0.0290
     18  CG1      154.8090   -6.2810   32.9150 C.3   133  VAL133      0.0023
     19  CG2      152.3780   -6.2600   32.4070 C.3   133  VAL133      0.0023
     20  N        156.1140   -8.4030   30.2590 N.am  134  ALA134     -0.1963
     21  CA       157.2040   -9.3680   30.2080 C.3   134  ALA134      0.1728
     22  C        158.4920   -8.7990   30.7820 C.2   134  ALA134      0.2616
     23  O        158.6780   -7.5890   30.8120 O.2   134  ALA134     -0.2715
     24  CB       157.4240   -9.8210   28.7620 C.3   134  ALA134      0.0334
     25  N        159.3730   -9.6810   31.2410 N.am  135  ILE135     -0.1977
     26  CA       160.6450   -9.2570   31.8130 C.3   135  ILE135      0.1596
     27  C        161.6430   -8.9440   30.7080 C.2   135  ILE135      0.2287
     28  O        161.8920   -9.7600   29.8200 O.2   135  ILE135     -0.2864
     29  CB       161.2190  -10.3370   32.7580 C.3   135  ILE135      0.0276
     30  CG1      160.3250  -10.4460   34.0000 C.3   135  ILE135      0.0022
     31  CG2      162.6320   -9.9680   33.1890 C.3   135  ILE135      0.0022
     32  CD1      160.8480  -11.3820   35.0710 C.3   135  ILE135      0.0001
     33  N        164.5240  -11.4090   29.7050 N.3   138  VAL138     -0.1231
     34  CA       164.0570  -12.5390   28.9220 C.3   138  VAL138      0.1692
     35  C        163.8840  -12.2300   27.4330 C.2   138  VAL138      0.2591
     36  O        164.2380  -13.0530   26.5820 O.2   138  VAL138     -0.2718
     37  CB       162.7350  -13.0840   29.4990 C.3   138  VAL138      0.0266
     38  CG1      162.1650  -14.1550   28.5790 C.3   138  VAL138      0.0020
     39  CG2      162.9790  -13.6550   30.8980 C.3   138  VAL138      0.0020
     40  N        163.3370  -11.0560   27.1160 N.am  139  LEU139     -0.1980
     41  CA       163.1470  -10.6850   25.7270 C.3   139  LEU139      0.1596
     42  C        164.4920  -10.5500   25.0350 C.2   139  LEU139      0.2287
     43  O        164.6350  -10.9020   23.8620 O.2   139  LEU139     -0.2864
     44  CB       162.3640   -9.3720   25.6240 C.3   139  LEU139      0.0297
     45  CG       161.0050   -9.4330   26.3150 C.3   139  LEU139      0.0022
     46  CD1      160.2450   -8.1630   26.0660 C.3   139  LEU139      0.0001
     47  CD2      160.2300  -10.6330   25.8010 C.3   139  LEU139      0.0001
     48  N        165.7980  -13.8840   24.1430 N.3   142  TYR142     -0.1241
     49  CA       165.0470  -14.3510   22.9870 C.3   142  TYR142      0.1605
     50  C        165.5170  -13.6960   21.6930 C.2   142  TYR142      0.2264
     51  O        165.6400  -14.3670   20.6790 O.2   142  TYR142     -0.2867
     52  CB       163.5460  -14.0910   23.1510 C.3   142  TYR142      0.0534
     53  CG       162.8580  -14.9280   24.2080 C.ar  142  TYR142     -0.0201
     54  CD1      163.4810  -16.0440   24.7690 C.ar  142  TYR142     -0.0009
     55  CD2      161.5650  -14.6130   24.6320 C.ar  142  TYR142     -0.0009
     56  CE1      162.8330  -16.8290   25.7360 C.ar  142  TYR142      0.0417
     57  CE2      160.9070  -15.3870   25.5870 C.ar  142  TYR142      0.0417
     58  CZ       161.5450  -16.4900   26.1370 C.ar  142  TYR142      0.1957
     59  OH       160.8950  -17.2370   27.0970 O.3   142  TYR142     -0.2866
     60  N        164.2220  -21.3190   28.3610 N.3   167  GLY167     -0.1210
     61  CA       163.0800  -20.4610   28.0930 C.3   167  GLY167      0.1956
     62  C        162.5290  -19.6700   29.2650 C.2   167  GLY167      0.2612
     63  O        161.9630  -18.5930   29.0650 O.2   167  GLY167     -0.2717
     64  N        162.6810  -20.1920   30.4790 N.am  168  TYR168     -0.1962
     65  CA       162.1740  -19.5240   31.6800 C.3   168  TYR168      0.1771
     66  C        163.2790  -18.9400   32.5360 C.2   168  TYR168      0.2619
     67  O        164.3940  -19.4590   32.5610 O.2   168  TYR168     -0.2715
     68  CB       161.3630  -20.4990   32.5430 C.3   168  TYR168      0.0574
     69  CG       160.1400  -21.0560   31.8520 C.ar  168  TYR168     -0.0198
     70  CD1      160.2650  -21.9130   30.7600 C.ar  168  TYR168     -0.0009
     71  CD2      158.8610  -20.6930   32.2600 C.ar  168  TYR168     -0.0009
     72  CE1      159.1460  -22.3920   30.0860 C.ar  168  TYR168      0.0417
     73  CE2      157.7340  -21.1660   31.5940 C.ar  168  TYR168      0.0417
     74  CZ       157.8840  -22.0110   30.5080 C.ar  168  TYR168      0.1957
     75  OH       156.7790  -22.4550   29.8210 O.3   168  TYR168     -0.2866
     76  N        162.9500  -17.8720   33.2580 N.am  169  ALA169     -0.1977
     77  CA       163.9000  -17.2030   34.1420 C.3   169  ALA169      0.1597
     78  C        163.8790  -17.8110   35.5510 C.2   169  ALA169      0.2287
     79  O        162.8560  -18.3270   36.0000 O.2   169  ALA169     -0.2864
     80  CB       163.5750  -15.7070   34.2130 C.3   169  ALA169      0.0319
     81  N        163.8630  -16.8140   39.0860 N.3   171  PRO171     -0.2116
     82  CA       163.5510  -15.7270   40.0200 C.3   171  PRO171      0.1372
     83  C        164.5400  -15.4870   41.1540 C.2   171  PRO171      0.2244
     84  O        164.9640  -14.3570   41.3940 O.2   171  PRO171     -0.2868
     85  CB       162.1740  -16.1130   40.5480 C.3   171  PRO171      0.0268
     86  CG       161.5720  -16.8420   39.4070 C.3   171  PRO171      0.0207
     87  CD       162.6990  -17.7060   38.9240 C.3   171  PRO171      0.0892
     88  N        168.1640  -14.1370   40.1810 N.3   174  ILE174     -0.1245
     89  CA       168.2680  -12.8090   39.5840 C.3   174  ILE174      0.1561
     90  C        168.8480  -11.7860   40.5590 C.2   174  ILE174      0.2260
     91  O        168.4440  -11.7160   41.7200 O.2   174  ILE174     -0.2867
     92  CB       166.8880  -12.3230   39.0840 C.3   174  ILE174      0.0252
     93  CG1      166.4440  -13.1850   37.9030 C.3   174  ILE174      0.0019
     94  CG2      166.9560  -10.8520   38.6940 C.3   174  ILE174      0.0019
     95  CD1      165.0430  -12.8700   37.3870 C.3   174  ILE174      0.0001
     96  N        158.3950  -12.2680   20.4180 N.3   345  LEU345     -0.1245
     97  CA       157.4890  -12.9830   21.3090 C.3   345  LEU345      0.1561
     98  C        156.0190  -12.7560   20.9760 C.2   345  LEU345      0.2260
     99  O        155.2350  -13.7050   20.8980 O.2   345  LEU345     -0.2867
    100  CB       157.7480  -12.5700   22.7690 C.3   345  LEU345      0.0270
    101  CG       156.8800  -13.2780   23.8180 C.3   345  LEU345      0.0019
    102  CD1      157.0990  -14.7660   23.6860 C.3   345  LEU345      0.0001
    103  CD2      157.2340  -12.8110   25.2350 C.3   345  LEU345      0.0001
    104  N        154.7850  -14.9570   18.4100 N.3   348  LEU348     -0.1245
    105  CA       154.8680  -16.4010   18.6480 C.3   348  LEU348      0.1561
    106  C        153.5380  -17.1280   18.8260 C.2   348  LEU348      0.2260
    107  O        152.6200  -16.6270   19.4720 O.2   348  LEU348     -0.2867
    108  CB       155.7510  -16.6800   19.8640 C.3   348  LEU348      0.0270
    109  CG       157.1890  -17.0930   19.5610 C.3   348  LEU348      0.0019
    110  CD1      158.0180  -17.0890   20.8460 C.3   348  LEU348      0.0001
    111  CD2      157.1780  -18.4830   18.9340 C.3   348  LEU348      0.0001
    112  N        152.8690  -20.0710   20.5340 N.3   350  THR350     -0.1203
    113  CA       152.6190  -20.5200   21.9050 C.3   350  THR350      0.1994
    114  C        152.4540  -19.3770   22.8910 C.2   350  THR350      0.2617
    115  O        152.0800  -19.5940   24.0470 O.2   350  THR350     -0.2717
    116  CB       153.7350  -21.4350   22.4390 C.3   350  THR350      0.1784
    117  OG1      155.0010  -20.8060   22.2340 O.3   350  THR350     -0.2211
    118  CG2      153.7020  -22.7860   21.7530 C.3   350  THR350      0.0376
    119  N        152.7280  -18.1630   22.4440 N.am  351  PHE351     -0.1975
    120  CA       152.5900  -17.0010   23.3060 C.3   351  PHE351      0.1639
    121  C        151.1700  -16.4210   23.2730 C.2   351  PHE351      0.2290
    122  O        150.7450  -15.7600   24.2150 O.2   351  PHE351     -0.2864
    123  CB       153.5980  -15.9100   22.9050 C.3   351  PHE351      0.0560
    124  CG       153.4280  -14.6210   23.6720 C.ar  351  PHE351     -0.0200
    125  CD1      152.8210  -13.5150   23.0850 C.ar  351  PHE351     -0.0042
    126  CD2      153.8010  -14.5470   25.0150 C.ar  351  PHE351     -0.0042
    127  CE1      152.5800  -12.3590   23.8150 C.ar  351  PHE351     -0.0003
    128  CE2      153.5620  -13.3900   25.7540 C.ar  351  PHE351     -0.0003
    129  CZ       152.9540  -12.3010   25.1570 C.ar  351  PHE351     -0.0000
    130  N        148.2450  -17.6220   23.8120 N.3   353  GLN353     -0.1231
    131  CA       147.4070  -18.0120   24.9510 C.3   353  GLN353      0.1698
    132  C        147.8160  -17.2440   26.2020 C.2   353  GLN353      0.2592
    133  O        147.0850  -17.2060   27.2010 O.2   353  GLN353     -0.2718
    134  CB       147.5380  -19.5160   25.2170 C.3   353  GLN353      0.0381
    135  CG       148.9730  -19.9490   25.4950 C.3   353  GLN353      0.0905
    136  CD       149.1430  -21.4530   25.5500 C.2   353  GLN353      0.2608
    137  OE1      148.7230  -22.1770   24.6370 O.2   353  GLN353     -0.2717
    138  NE2      149.7750  -21.9340   26.6160 N.am  353  GLN353     -0.0878
    139  N        148.9790  -16.6120   26.1400 N.am  354  MET354     -0.1979
    140  CA       149.4850  -15.8680   27.2790 C.3   354  MET354      0.1605
    141  C        148.8770  -14.4740   27.4560 C.2   354  MET354      0.2287
    142  O        148.7220  -14.0030   28.5890 O.2   354  MET354     -0.2864
    143  CB       151.0130  -15.7920   27.2030 C.3   354  MET354      0.0413
    144  CG       151.7180  -17.1610   27.1650 C.3   354  MET354      0.0598
    145  SD       151.3150  -18.2660   28.5560 S.3   354  MET354     -0.1393
    146  CE       152.0960  -17.3880   29.8970 C.3   354  MET354      0.0692
    147  N        149.0160  -14.2640   37.7090 N.3   371  ARG371     -0.1231
    148  CA       148.8380  -15.6310   37.2450 C.3   371  ARG371      0.1694
    149  C        149.3830  -15.8350   35.8330 C.2   371  ARG371      0.2592
    150  O        150.0760  -16.8110   35.5710 O.2   371  ARG371     -0.2718
    151  CB       147.3530  -16.0120   37.2890 C.3   371  ARG371      0.0321
    152  CG       147.0850  -17.5130   37.1600 C.3   371  ARG371      0.0489
    153  CD       146.2280  -17.8460   35.9590 C.3   371  ARG371      0.2205
    154  NE       144.8840  -17.2690   36.0100 N.pl3 371  ARG371     -0.0865
    155  CZ       144.0040  -17.3730   35.0170 C.cat 371  ARG371      0.5346
    156  NH1      144.3360  -18.0290   33.9110 N.pl3 371  ARG371      0.1354
    157  NH2      142.7990  -16.8190   35.1120 N.pl3 371  ARG371      0.1354
    158  N        149.0870  -14.8980   34.9350 N.am  372  LYS372     -0.1966
    159  CA       149.5260  -15.0190   33.5510 C.3   372  LYS372      0.1728
    160  C        150.9140  -14.4550   33.2770 C.2   372  LYS372      0.2616
    161  O        151.5520  -14.8350   32.3020 O.2   372  LYS372     -0.2715
    162  CB       148.5060  -14.3600   32.6250 C.3   372  LYS372      0.0311
    163  CG       147.1070  -14.9220   32.8200 C.3   372  LYS372      0.0038
    164  CD       146.2540  -14.8460   31.5790 C.3   372  LYS372      0.0206
    165  CE       146.7500  -15.8110   30.5190 C.3   372  LYS372      0.1093
    166  NZ       145.7930  -15.8580   29.3840 N.3   372  LYS372     -0.1314
    167  N        151.3800  -13.5510   34.1240 N.am  373  CYS373     -0.1954
    168  CA       152.6920  -12.9580   33.9320 C.3   373  CYS373      0.1843
    169  C        153.5540  -13.4020   35.0840 C.2   373  CYS373      0.2625
    170  O        154.2880  -14.3770   34.9460 O.2   373  CYS373     -0.2714
    171  CB       152.5470  -11.4400   33.8280 C.3   373  CYS373      0.0997
    172  SG       151.5350  -10.9720   32.3490 S.3   373  CYS373     -0.0797
    173  N        153.4990  -12.7070   36.2200 N.am  374  PHE374     -0.1974
    174  CA       154.2510  -13.2100   37.3780 C.3   374  PHE374      0.1639
    175  C        153.9400  -12.6360   38.7540 C.2   374  PHE374      0.2290
    176  O        153.6410  -13.4520   39.6890 O.2   374  PHE374     -0.2864
    177  CB       155.7570  -13.1310   37.1230 C.3   374  PHE374      0.0560
    178  CG       156.2570  -11.7490   36.8640 C.ar  374  PHE374     -0.0200
    179  CD1      156.1380  -11.1700   35.6020 C.ar  374  PHE374     -0.0042
    180  CD2      156.8690  -11.0290   37.8800 C.ar  374  PHE374     -0.0042
    181  CE1      156.6210   -9.9030   35.3620 C.ar  374  PHE374     -0.0003
    182  CE2      157.3580   -9.7570   37.6540 C.ar  374  PHE374     -0.0003
    183  CZ       157.2350   -9.1910   36.3980 C.ar  374  PHE374     -0.0000
@<TRIPOS>BOND
     1   104   105    1
     2   105   106    1
     3   105   108    1
     4   106   107    2
     5   111   109    1
     6   109   108    1
     7   109   110    1
     8    96    97    1
     9   112   113    1
    10    51    50    2
    11    99    98    2
    12    98    97    1
    13    97   100    1
    14    50    49    1
    15   118   116    1
    16   113   116    1
    17   113   114    1
    18   117   116    1
    19   119   114   am
    20   119   120    1
    21   100   101    1
    22   114   115    2
    23   123   120    1
    24   123   124    1
    25    49    52    1
    26    49    48    1
    27   125   124   ar
    28   125   127   ar
    29    52    53    1
    30   121   120    1
    31   121   122    2
    32   124   126   ar
    33   102   101    1
    34   130   131    1
    35   127   129   ar
    36   101   103    1
    37    43    42    2
    38    53    55   ar
    39    53    54   ar
    40    55    57   ar
    41   137   136    2
    42    54    56   ar
    43   131   134    1
    44   131   132    1
    45   126   128   ar
    46    42    41    1
    47   129   128   ar
    48   134   135    1
    49   135   136    1
    50   136   138   am
    51    57    58   ar
    52    44    41    1
    53    44    45    1
    54    41    40    1
    55    56    58   ar
    56    47    45    1
    57    46    45    1
    58    58    59    1
    59   139   132   am
    60   139   140    1
    61   132   133    2
    62    36    35    2
    63    40    35   am
    64   144   143    1
    65   144   145    1
    66   143   140    1
    67   140   141    1
    68    35    34    1
    69   141   142    2
    70     5     6    1
    71     5     2    1
    72    61    60    1
    73    61    62    1
    74     1     2    1
    75   145   146    1
    76    38    37    1
    77     6     7   ar
    78     6     8   ar
    79     4     3    2
    80    24    21    1
    81     2     3    1
    82     7     9   ar
    83    34    37    1
    84    34    33    1
    85     8    10   ar
    86    63    62    2
    87    62    64   am
    88     3    13   am
    89   166   165    1
    90    37    39    1
    91     9    11   ar
    92    10    11   ar
    93    28    27    2
    94    75    74    1
    95    11    12    1
    96    72    74   ar
    97    72    70   ar
    98    21    20    1
    99    21    22    1
   100    20    15   am
   101    13    14    1
   102    64    65    1
   103    74    73   ar
   104   165   164    1
   105    27    26    1
   106    70    69   ar
   107    22    23    2
   108    22    25   am
   109    14    15    1
   110    14    17    1
   111    15    16    2
   112    25    26    1
   113   164   163    1
   114    73    71   ar
   115    65    66    1
   116    65    68    1
   117    26    29    1
   118    69    71   ar
   119    69    68    1
   120   161   160    2
   121   172   171    1
   122    17    19    1
   123    17    18    1
   124    66    67    2
   125    66    76   am
   126   162   163    1
   127   162   159    1
   128    29    31    1
   129    29    30    1
   130    76    77    1
   131   160   159    1
   132   160   167   am
   133   159   158    1
   134   171   168    1
   135   156   155    1
   136   168   167    1
   137   168   169    1
   138    30    32    1
   139    77    80    1
   140    77    78    1
   141   158   149   am
   142   170   169    2
   143   155   157    1
   144   155   154    2
   145   169   173   am
   146   181   179   ar
   147   181   183   ar
   148    78    79    2
   149   150   149    2
   150   179   178   ar
   151   149   148    1
   152   153   154    1
   153   153   152    1
   154   173   174    1
   155   183   182   ar
   156   178   177    1
   157   178   180   ar
   158   177   174    1
   159   152   151    1
   160   148   151    1
   161   148   147    1
   162   174   175    1
   163    95    93    1
   164   182   180   ar
   165    93    92    1
   166    94    92    1
   167   175   176    2
   168    87    81    1
   169    87    86    1
   170    92    89    1
   171    81    82    1
   172    86    85    1
   173    89    88    1
   174    89    90    1
   175    82    85    1
   176    82    83    1
   177    90    91    2
   178    83    84    2
