@<TRIPOS>MOLECULE
tmp/3ekuA01.pdb
 184 178 0 0 0
SMALL
GASTEIGER

@<TRIPOS>ATOM
      1  N         61.6300   -4.8050   30.5510 N.3    94  GLU94      -0.1245
      2  CA        61.8410   -4.3920   31.9250 C.3    94  GLU94       0.1567
      3  C         63.1830   -4.9540   32.3880 C.2    94  GLU94       0.2260
      4  O         63.7460   -5.8490   31.7490 O.2    94  GLU94      -0.2867
      5  CB        60.7130   -4.9290   32.8040 C.3    94  GLU94       0.0388
      6  CG        61.0790   -6.2070   33.5210 C.3    94  GLU94       0.1160
      7  CD        59.9230   -7.1750   33.6480 C.2    94  GLU94       0.3649
      8  OE1       58.9590   -6.8850   34.3940 O.co2  94  GLU94      -0.2457
      9  OE2       59.9860   -8.2350   32.9920 O.co2  94  GLU94      -0.2457
     10  N         57.3890   -6.5510   41.7830 N.3   100  LYS100     -0.1245
     11  CA        56.1890   -7.1790   41.2330 C.3   100  LYS100      0.1561
     12  C         55.0720   -6.1560   41.0420 C.2   100  LYS100      0.2260
     13  O         54.2810   -6.2460   40.1010 O.2   100  LYS100     -0.2867
     14  CB        55.7060   -8.2920   42.1690 C.3   100  LYS100      0.0271
     15  CG        56.7900   -9.2900   42.5690 C.3   100  LYS100      0.0035
     16  CD        57.2930  -10.0890   41.3690 C.3   100  LYS100      0.0206
     17  CE        58.4440  -11.0160   41.7470 C.3   100  LYS100      0.1093
     18  NZ        59.6380  -10.2510   42.2110 N.3   100  LYS100     -0.1314
     19  N         52.5750   -7.1590   26.9170 N.3   120  TYR120     -0.1227
     20  CA        53.4040   -8.1420   27.5960 C.3   120  TYR120      0.1736
     21  C         54.6590   -7.4340   28.1000 C.2   120  TYR120      0.2595
     22  O         55.0600   -6.4140   27.5450 O.2   120  TYR120     -0.2718
     23  CB        53.7920   -9.2540   26.6150 C.3   120  TYR120      0.0548
     24  CG        54.3610  -10.4840   27.2740 C.ar  120  TYR120     -0.0200
     25  CD1       53.5260  -11.4790   27.7890 C.ar  120  TYR120     -0.0009
     26  CD2       55.7360  -10.6290   27.4390 C.ar  120  TYR120     -0.0009
     27  CE1       54.0550  -12.5900   28.4580 C.ar  120  TYR120      0.0417
     28  CE2       56.2730  -11.7280   28.1040 C.ar  120  TYR120      0.0417
     29  CZ        55.4320  -12.7020   28.6120 C.ar  120  TYR120      0.1957
     30  OH        55.9820  -13.7710   29.2840 O.3   120  TYR120     -0.2866
     31  N         55.2670   -7.9630   29.1560 N.am  121  VAL121     -0.1966
     32  CA        56.4840   -7.3720   29.7010 C.3   121  VAL121      0.1727
     33  C         57.5530   -8.4490   29.7060 C.2   121  VAL121      0.2616
     34  O         57.3340   -9.5370   30.2380 O.2   121  VAL121     -0.2715
     35  CB        56.2870   -6.8810   31.1440 C.3   121  VAL121      0.0290
     36  CG1       57.4080   -5.9160   31.5090 C.3   121  VAL121      0.0023
     37  CG2       54.9310   -6.2190   31.2930 C.3   121  VAL121      0.0023
     38  N         58.7070   -8.1490   29.1180 N.am  122  ALA122     -0.1963
     39  CA        59.7920   -9.1190   29.0480 C.3   122  ALA122      0.1728
     40  C         61.1230   -8.5960   29.5810 C.2   122  ALA122      0.2616
     41  O         61.4700   -7.4290   29.3910 O.2   122  ALA122     -0.2715
     42  CB        59.9590   -9.6030   27.6090 C.3   122  ALA122      0.0334
     43  N         61.8600   -9.4770   30.2500 N.am  123  ILE123     -0.1977
     44  CA        63.1540   -9.1250   30.8100 C.3   123  ILE123      0.1596
     45  C         64.1110   -8.8460   29.6590 C.2   123  ILE123      0.2287
     46  O         64.2570   -9.6530   28.7390 O.2   123  ILE123     -0.2864
     47  CB        63.6920  -10.2610   31.7010 C.3   123  ILE123      0.0276
     48  CG1       62.7730  -10.4190   32.9160 C.3   123  ILE123      0.0022
     49  CG2       65.0980   -9.9590   32.1630 C.3   123  ILE123      0.0022
     50  CD1       63.2330  -11.4710   33.9140 C.3   123  ILE123      0.0001
     51  N         67.0640  -11.3990   28.6250 N.3   126  VAL126     -0.1231
     52  CA        66.6550  -12.5980   27.9110 C.3   126  VAL126      0.1692
     53  C         66.4840  -12.2920   26.4230 C.2   126  VAL126      0.2591
     54  O         66.8950  -13.0850   25.5780 O.2   126  VAL126     -0.2718
     55  CB        65.3430  -13.2000   28.5000 C.3   126  VAL126      0.0266
     56  CG1       64.8240  -14.3190   27.5930 C.3   126  VAL126      0.0020
     57  CG2       65.6170  -13.7530   29.9210 C.3   126  VAL126      0.0020
     58  N         65.9020  -11.1400   26.1010 N.am  127  LEU127     -0.1980
     59  CA        65.7100  -10.7560   24.7060 C.3   127  LEU127      0.1596
     60  C         67.0560  -10.6870   23.9740 C.2   127  LEU127      0.2287
     61  O         67.1520  -11.0740   22.8050 O.2   127  LEU127     -0.2864
     62  CB        65.0170   -9.3970   24.6170 C.3   127  LEU127      0.0297
     63  CG        63.6620   -9.2440   25.3110 C.3   127  LEU127      0.0022
     64  CD1       63.1780   -7.7920   25.1920 C.3   127  LEU127      0.0001
     65  CD2       62.6610  -10.2060   24.6910 C.3   127  LEU127      0.0001
     66  N         68.2580  -14.0800   22.9600 N.3   130  TYR130     -0.1241
     67  CA        67.5100  -14.5200   21.7880 C.3   130  TYR130      0.1605
     68  C         68.0740  -13.8560   20.5270 C.2   130  TYR130      0.2264
     69  O         68.2570  -14.5050   19.5030 O.2   130  TYR130     -0.2867
     70  CB        66.0250  -14.1900   21.9480 C.3   130  TYR130      0.0534
     71  CG        65.3450  -14.9400   23.0680 C.ar  130  TYR130     -0.0201
     72  CD1       65.9360  -16.0640   23.6440 C.ar  130  TYR130     -0.0009
     73  CD2       64.0770  -14.5650   23.5050 C.ar  130  TYR130     -0.0009
     74  CE1       65.2730  -16.7990   24.6230 C.ar  130  TYR130      0.0417
     75  CE2       63.4020  -15.2930   24.4780 C.ar  130  TYR130      0.0417
     76  CZ        64.0020  -16.4110   25.0320 C.ar  130  TYR130      0.1957
     77  OH        63.3200  -17.1600   25.9730 O.3   130  TYR130     -0.2866
     78  N         66.3640  -21.2920   27.4620 N.3   155  GLY155     -0.1210
     79  CA        65.3940  -20.2390   27.1960 C.3   155  GLY155      0.1956
     80  C         64.7850  -19.5100   28.3780 C.2   155  GLY155      0.2612
     81  O         64.1110  -18.4950   28.1910 O.2   155  GLY155     -0.2717
     82  N         65.0110  -20.0100   29.5880 N.am  156  TYR156     -0.1962
     83  CA        64.4580  -19.3780   30.7760 C.3   156  TYR156      0.1771
     84  C         65.5460  -18.7660   31.6370 C.2   156  TYR156      0.2619
     85  O         66.6020  -19.3670   31.8270 O.2   156  TYR156     -0.2715
     86  CB        63.6760  -20.3970   31.6090 C.3   156  TYR156      0.0574
     87  CG        62.4730  -20.9720   30.9040 C.ar  156  TYR156     -0.0198
     88  CD1       62.6120  -21.9810   29.9530 C.ar  156  TYR156     -0.0009
     89  CD2       61.2010  -20.4630   31.1420 C.ar  156  TYR156     -0.0009
     90  CE1       61.5120  -22.4660   29.2520 C.ar  156  TYR156      0.0417
     91  CE2       60.0990  -20.9320   30.4490 C.ar  156  TYR156      0.0417
     92  CZ        60.2590  -21.9320   29.5020 C.ar  156  TYR156      0.1957
     93  OH        59.1680  -22.3700   28.7900 O.3   156  TYR156     -0.2866
     94  N         65.2920  -17.5660   32.1540 N.am  157  ALA157     -0.1977
     95  CA        66.2550  -16.8950   33.0210 C.3   157  ALA157      0.1597
     96  C         66.2390  -17.5800   34.3830 C.2   157  ALA157      0.2287
     97  O         65.2270  -18.1640   34.7820 O.2   157  ALA157     -0.2864
     98  CB        65.8910  -15.4190   33.1790 C.3   157  ALA157      0.0319
     99  N         66.4200  -16.5170   37.9600 N.3   159  PRO159     -0.2116
    100  CA        66.3150  -15.4330   38.9430 C.3   159  PRO159      0.1372
    101  C         67.3610  -15.4210   40.0660 C.2   159  PRO159      0.2244
    102  O         68.0610  -14.4290   40.2610 O.2   159  PRO159     -0.2868
    103  CB        64.8970  -15.6030   39.4840 C.3   159  PRO159      0.0268
    104  CG        64.1540  -16.1530   38.3230 C.3   159  PRO159      0.0207
    105  CD        65.1200  -17.1910   37.7970 C.3   159  PRO159      0.0892
    106  N         61.0660  -11.9270   19.3950 N.3   333  LEU333     -0.1245
    107  CA        60.1000  -12.6170   20.2550 C.3   333  LEU333      0.1561
    108  C         58.6310  -12.3190   19.9550 C.2   333  LEU333      0.2260
    109  O         57.8120  -13.2320   19.8810 O.2   333  LEU333     -0.2867
    110  CB        60.3760  -12.3020   21.7300 C.3   333  LEU333      0.0270
    111  CG        59.4020  -12.9280   22.7410 C.3   333  LEU333      0.0019
    112  CD1       59.4930  -14.4370   22.6660 C.3   333  LEU333      0.0001
    113  CD2       59.7200  -12.4480   24.1510 C.3   333  LEU333      0.0001
    114  N         57.1790  -14.4290   17.3200 N.3   336  LEU336     -0.1245
    115  CA        57.2730  -15.8780   17.4750 C.3   336  LEU336      0.1561
    116  C         55.9050  -16.5360   17.6130 C.2   336  LEU336      0.2260
    117  O         55.0940  -16.1550   18.4600 O.2   336  LEU336     -0.2867
    118  CB        58.1230  -16.2330   18.6970 C.3   336  LEU336      0.0270
    119  CG        59.6260  -16.1930   18.4600 C.3   336  LEU336      0.0019
    120  CD1       60.3530  -16.4590   19.7570 C.3   336  LEU336      0.0001
    121  CD2       59.9920  -17.2280   17.4090 C.3   336  LEU336      0.0001
    122  N         55.0850  -19.3690   18.8380 N.3   338  THR338     -0.1203
    123  CA        54.9020  -19.8890   20.1830 C.3   338  THR338      0.1994
    124  C         54.7280  -18.7760   21.2020 C.2   338  THR338      0.2617
    125  O         54.2940  -19.0240   22.3220 O.2   338  THR338     -0.2717
    126  CB        56.0920  -20.7880   20.6070 C.3   338  THR338      0.1784
    127  OG1       57.3250  -20.0700   20.4480 O.3   338  THR338     -0.2211
    128  CG2       56.1280  -22.0510   19.7560 C.3   338  THR338      0.0376
    129  N         55.0510  -17.5440   20.8200 N.am  339  PHE339     -0.1975
    130  CA        54.9070  -16.4320   21.7550 C.3   339  PHE339      0.1639
    131  C         53.5030  -15.8030   21.7880 C.2   339  PHE339      0.2290
    132  O         53.0970  -15.2290   22.8030 O.2   339  PHE339     -0.2864
    133  CB        55.9550  -15.3410   21.4750 C.3   339  PHE339      0.0560
    134  CG        55.7950  -14.1310   22.3520 C.ar  339  PHE339     -0.0200
    135  CD1       55.1240  -13.0060   21.8930 C.ar  339  PHE339     -0.0042
    136  CD2       56.2120  -14.1650   23.6760 C.ar  339  PHE339     -0.0042
    137  CE1       54.8610  -11.9340   22.7370 C.ar  339  PHE339     -0.0003
    138  CE2       55.9560  -13.1000   24.5320 C.ar  339  PHE339     -0.0003
    139  CZ        55.2750  -11.9810   24.0610 C.ar  339  PHE339     -0.0000
    140  N         51.2350  -15.8860   24.7300 N.3   342  MET342     -0.1245
    141  CA        51.6740  -15.2470   25.9590 C.3   342  MET342      0.1570
    142  C         51.0960  -13.8470   26.1070 C.2   342  MET342      0.2261
    143  O         50.8620  -13.3900   27.2230 O.2   342  MET342     -0.2867
    144  CB        53.2020  -15.1960   26.0090 C.3   342  MET342      0.0387
    145  CG        53.8760  -16.5510   25.8190 C.3   342  MET342      0.0595
    146  SD        53.4970  -17.7540   27.1110 S.3   342  MET342     -0.1393
    147  CE        54.7160  -17.3670   28.3150 C.3   342  MET342      0.0692
    148  N         50.8270  -14.2330   35.8940 N.3   359  ARG359     -0.1231
    149  CA        50.5510  -15.5610   35.3610 C.3   359  ARG359      0.1694
    150  C         51.2290  -15.7770   34.0060 C.2   359  ARG359      0.2592
    151  O         51.9470  -16.7550   33.8140 O.2   359  ARG359     -0.2718
    152  CB        49.0450  -15.7800   35.2270 C.3   359  ARG359      0.0321
    153  CG        48.7900  -17.2900   35.2880 C.3   359  ARG359      0.0489
    154  CD        47.3800  -17.6270   34.9620 C.3   359  ARG359      0.2205
    155  NE        47.0910  -17.6520   33.5450 N.pl3 359  ARG359     -0.0865
    156  CZ        47.5740  -18.3820   32.5340 C.cat 359  ARG359      0.5346
    157  NH1       48.5090  -19.3250   32.5650 N.pl3 359  ARG359      0.1354
    158  NH2       47.0190  -18.1240   31.3320 N.pl3 359  ARG359      0.1354
    159  N         51.0090  -14.8570   33.0680 N.am  360  LYS360     -0.1966
    160  CA        51.5940  -14.9710   31.7340 C.3   360  LYS360      0.1728
    161  C         52.9710  -14.3300   31.5990 C.2   360  LYS360      0.2616
    162  O         53.7610  -14.7260   30.7470 O.2   360  LYS360     -0.2715
    163  CB        50.6590  -14.3590   30.6870 C.3   360  LYS360      0.0311
    164  CG        49.2050  -14.7710   30.8330 C.3   360  LYS360      0.0038
    165  CD        48.4180  -14.5170   29.5680 C.3   360  LYS360      0.0206
    166  CE        48.7840  -15.5140   28.4930 C.3   360  LYS360      0.1093
    167  NZ        47.9120  -15.3730   27.2990 N.3   360  LYS360     -0.1314
    168  N         53.2570  -13.3410   32.4370 N.am  361  CYS361     -0.1954
    169  CA        54.5360  -12.6450   32.3660 C.3   361  CYS361      0.1843
    170  C         55.5760  -13.0910   33.3780 C.2   361  CYS361      0.2625
    171  O         56.7000  -13.4140   33.0050 O.2   361  CYS361     -0.2714
    172  CB        54.3100  -11.1450   32.4810 C.3   361  CYS361      0.0997
    173  SG        53.7970  -10.4160   30.9420 S.3   361  CYS361     -0.0797
    174  N         55.1940  -13.0970   34.6510 N.am  362  PHE362     -0.1974
    175  CA        56.0550  -13.5030   35.7610 C.3   362  PHE362      0.1639
    176  C         55.8810  -12.5310   36.9240 C.2   362  PHE362      0.2290
    177  O         56.7900  -12.4410   37.7730 O.2   362  PHE362     -0.2864
    178  CB        57.5390  -13.5690   35.3620 C.3   362  PHE362      0.0560
    179  CG        58.2340  -12.2440   35.3610 C.ar  362  PHE362     -0.0200
    180  CD1       58.0310  -11.3340   34.3350 C.ar  362  PHE362     -0.0042
    181  CD2       59.0930  -11.9020   36.3960 C.ar  362  PHE362     -0.0042
    182  CE1       58.6720  -10.1170   34.3410 C.ar  362  PHE362     -0.0003
    183  CE2       59.7410  -10.6810   36.4080 C.ar  362  PHE362     -0.0003
    184  CZ        59.5320   -9.7900   35.3800 C.ar  362  PHE362     -0.0000
@<TRIPOS>BOND
     1   114   115    1
     2   121   119    1
     3   115   116    1
     4   115   118    1
     5   116   117    2
     6   119   118    1
     7   119   120    1
     8   122   123    1
     9   106   107    1
    10    69    68    2
    11   128   126    1
    12   109   108    2
    13   108   107    1
    14   123   126    1
    15   123   124    1
    16   107   110    1
    17   127   126    1
    18    68    67    1
    19   129   124   am
    20   129   130    1
    21   124   125    2
    22   133   130    1
    23   133   134    1
    24   110   111    1
    25   130   131    1
    26    67    70    1
    27    67    66    1
    28   131   132    2
    29   135   134   ar
    30   135   137   ar
    31    70    71    1
    32   134   136   ar
    33   112   111    1
    34   137   139   ar
    35   111   113    1
    36    61    60    2
    37    71    73   ar
    38    71    72   ar
    39    73    75   ar
    40    72    74   ar
    41   136   138   ar
    42    60    59    1
    43   139   138   ar
    44    75    76   ar
    45    62    59    1
    46    62    63    1
    47    74    76   ar
    48    65    63    1
    49    59    58    1
    50   140   141    1
    51    76    77    1
    52    64    63    1
    53    54    53    2
    54   145   144    1
    55   145   146    1
    56   141   144    1
    57   141   142    1
    58    58    53   am
    59   142   143    2
    60    53    52    1
    61    23    24    1
    62    23    20    1
    63    19    20    1
    64   146   147    1
    65    79    78    1
    66    79    80    1
    67    24    26   ar
    68    24    25   ar
    69   167   166    1
    70    26    28   ar
    71    22    21    2
    72    56    55    1
    73    20    21    1
    74    42    39    1
    75    25    27   ar
    76    52    55    1
    77    52    51    1
    78    21    31   am
    79    28    29   ar
    80    81    80    2
    81    80    82   am
    82    27    29   ar
    83   166   165    1
    84    55    57    1
    85    29    30    1
    86    46    45    2
    87    93    92    1
    88    39    38    1
    89    39    40    1
    90    38    33   am
    91    31    32    1
    92    90    92   ar
    93    90    88   ar
    94    41    40    2
    95    92    91   ar
    96   165   164    1
    97    40    43   am
    98    82    83    1
    99    45    44    1
   100    32    33    1
   101    32    35    1
   102    33    34    2
   103    88    87   ar
   104    43    44    1
   105    91    89   ar
   106     1     2    1
   107   163   164    1
   108   163   160    1
   109   162   161    2
   110    83    86    1
   111    83    84    1
   112    44    47    1
   113    87    89   ar
   114    87    86    1
   115   173   172    1
   116    35    37    1
   117    35    36    1
   118   158   156    1
   119   161   160    1
   120   161   168   am
   121    84    85    2
   122    84    94   am
   123    47    49    1
   124    47    48    1
   125   160   159    1
   126     4     3    2
   127     2     3    1
   128     2     5    1
   129    94    95    1
   130   169   168    1
   131   169   172    1
   132   169   170    1
   133   156   157    1
   134   156   155    2
   135     5     6    1
   136    48    50    1
   137     9     7   ar
   138   171   170    2
   139    95    98    1
   140    95    96    1
   141   159   150   am
   142   170   174   am
   143     6     7    1
   144   155   154    1
   145     7     8   ar
   146   151   150    2
   147   150   149    1
   148   180   182   ar
   149   180   179   ar
   150   182   184   ar
   151    96    97    2
   152   174   175    1
   153   154   153    1
   154   152   153    1
   155   152   149    1
   156   179   178    1
   157   179   181   ar
   158   149   148    1
   159   178   175    1
   160   184   183   ar
   161   175   176    1
   162   181   183   ar
   163   176   177    2
   164   105    99    1
   165   105   104    1
   166    99   100    1
   167   104   103    1
   168   100   103    1
   169   100   101    1
   170   101   102    2
   171    13    12    2
   172    12    11    1
   173    11    10    1
   174    11    14    1
   175    16    17    1
   176    16    15    1
   177    17    18    1
   178    14    15    1
