@<TRIPOS>MOLECULE
tmp/3ekzA02.pdb
 74 70 0 0 0
SMALL
GASTEIGER

@<TRIPOS>ATOM
      1  N          3.7580   46.4390   24.4860 N.3    26  ASN26      -0.1240
      2  CA         4.6290   47.6220   24.6610 C.3    26  ASN26       0.1653
      3  C          3.8600   48.8960   24.3390 C.2    26  ASN26       0.2266
      4  O          3.2640   49.0130   23.2610 O.2    26  ASN26      -0.2867
      5  CB         5.8500   47.5600   23.7520 C.3    26  ASN26       0.1155
      6  CG         6.8920   46.5750   24.2400 C.2    26  ASN26       0.2627
      7  OD1        6.7770   45.3700   24.0130 O.2    26  ASN26      -0.2716
      8  ND2        7.9260   47.0860   24.8900 N.am   26  ASN26      -0.0877
      9  N          9.4820   49.6440   27.4380 N.3    52  SER52      -0.1202
     10  CA        10.8920   49.4240   27.1530 C.3    52  SER52       0.2020
     11  C         11.6730   50.6500   27.6070 C.2    52  SER52       0.2619
     12  O         11.0860   51.6940   27.9040 O.2    52  SER52      -0.2717
     13  CB        11.1110   49.2300   25.6450 C.3    52  SER52       0.2103
     14  OG        10.8240   50.4510   24.9650 O.3    52  SER52      -0.2182
     15  N         12.9900   50.5260   27.6540 N.am   53  THR53      -0.1938
     16  CA        13.8450   51.6940   27.9580 C.3    53  THR53       0.2028
     17  C         13.6180   52.8590   26.9750 C.2    53  THR53       0.2643
     18  O         13.5600   54.0130   27.3990 O.2    53  THR53      -0.2714
     19  CB        15.3430   51.3140   28.0060 C.3    53  THR53       0.1808
     20  OG1       15.7130   50.6920   26.7760 O.3    53  THR53      -0.2208
     21  CG2       15.6200   50.3040   29.1650 C.3    53  THR53       0.0379
     22  N         13.4960   52.5460   25.6760 N.am   54  GLY54      -0.1939
     23  CA        13.2810   53.5630   24.6340 C.3    54  GLY54       0.2014
     24  C         11.8560   54.1120   24.6940 C.2    54  GLY54       0.2639
     25  O         11.6300   55.2880   24.4160 O.2    54  GLY54      -0.2714
     26  N         10.8920   53.2610   25.0290 N.am   55  GLY55      -0.1954
     27  CA         9.5190   53.7140   25.2220 C.3    55  GLY55       0.1869
     28  C          9.3820   54.6640   26.4030 C.2    55  GLY55       0.2309
     29  O          8.6340   55.6570   26.3270 O.2    55  GLY55      -0.2863
     30  N         10.3100   46.4100   30.3120 N.3    94  ASP94      -0.1225
     31  CA        10.8980   45.4520   29.3920 C.3    94  ASP94       0.1805
     32  C         12.4400   45.5250   29.4510 C.2    94  ASP94       0.2597
     33  O         12.9900   46.3420   30.2180 O.2    94  ASP94      -0.2718
     34  CB        10.3570   45.7770   27.9940 C.3    94  ASP94       0.1424
     35  CG        10.4430   44.6100   27.0190 C.2    94  ASP94       0.3668
     36  OD1       10.8500   43.4840   27.4020 O.co2  94  ASP94      -0.2456
     37  OD2       10.0940   44.8450   25.8440 O.co2  94  ASP94      -0.2456
     38  N         13.1250   44.7010   28.6370 N.am   95  HIS95      -0.1975
     39  CA        14.6150   44.5350   28.6050 C.3    95  HIS95       0.1656
     40  C         15.4490   45.6190   29.2260 C.2    95  HIS95       0.2291
     41  O         15.5630   46.7120   28.6630 O.2    95  HIS95      -0.2864
     42  CB        15.1710   44.4740   27.1700 C.3    95  HIS95       0.0771
     43  CG        14.6070   43.3860   26.3380 C.ar   95  HIS95       0.0820
     44  ND1       15.2120   42.1510   26.2210 N.ar   95  HIS95      -0.2267
     45  CD2       13.5110   43.3560   25.5440 C.ar   95  HIS95       0.1154
     46  CE1       14.5020   41.3950   25.4040 C.ar   95  HIS95       0.1986
     47  NE2       13.4570   42.0960   24.9930 N.ar   95  HIS95      -0.2212
     48  N         12.6130   39.6040   17.4900 N.3   200  HIS200     -0.1241
     49  CA        11.8490   40.8560   17.5590 C.3   200  HIS200      0.1621
     50  C         11.6340   41.4230   16.1560 C.2   200  HIS200      0.2264
     51  O         12.5910   41.5690   15.4010 O.2   200  HIS200     -0.2867
     52  CB        12.6420   41.9240   18.3270 C.3   200  HIS200      0.0745
     53  CG        12.8320   41.6320   19.7780 C.ar  200  HIS200      0.0817
     54  ND1       14.0730   41.6650   20.3870 N.ar  200  HIS200     -0.2268
     55  CD2       11.9430   41.3150   20.7500 C.ar  200  HIS200      0.1154
     56  CE1       13.9340   41.4030   21.6750 C.ar  200  HIS200      0.1986
     57  NE2       12.6540   41.1740   21.9180 N.ar  200  HIS200     -0.2212
     58  N          4.8430   43.9630   20.2520 N.3   264  ASP264     -0.1239
     59  CA         5.1100   45.3710   20.0100 C.3   264  ASP264      0.1674
     60  C          4.9100   45.6860   18.5240 C.2   264  ASP264      0.2266
     61  O          4.0780   46.5190   18.1780 O.2   264  ASP264     -0.2867
     62  CB         6.5350   45.7370   20.4390 C.3   264  ASP264      0.1410
     63  CG         6.7620   47.2620   20.5490 C.2   264  ASP264      0.3668
     64  OD1        5.8180   48.0680   20.2970 O.co2 264  ASP264     -0.2456
     65  OD2        7.8940   47.6450   20.9180 O.co2 264  ASP264     -0.2456
     66  N          2.1790   48.2000   16.8120 N.3   268  GLN268     -0.1245
     67  CA         2.7090   49.3980   16.0970 C.3   268  GLN268      0.1566
     68  C          2.0720   49.5370   14.7160 C.2   268  GLN268      0.2260
     69  O          1.5680   50.6130   14.3670 O.2   268  GLN268     -0.2867
     70  CB         4.2350   49.3820   15.9760 C.3   268  GLN268      0.0367
     71  CG         4.9810   49.5250   17.3170 C.3   268  GLN268      0.0905
     72  CD         6.5010   49.4690   17.1590 C.2   268  GLN268      0.2608
     73  OE1        7.2460   50.0400   17.9480 O.2   268  GLN268     -0.2717
     74  NE2        6.9520   48.8290   16.1130 N.am  268  GLN268     -0.0878
@<TRIPOS>BOND
     1    69    68    2
     2    68    67    1
     3    51    50    2
     4    70    67    1
     5    70    71    1
     6    67    66    1
     7    74    72   am
     8    50    49    1
     9    72    71    1
    10    72    73    2
    11    48    49    1
    12    49    52    1
    13    61    60    2
    14    52    53    1
    15    60    59    1
    16    53    54   ar
    17    53    55   ar
    18    59    58    1
    19    59    62    1
    20    64    63   ar
    21    54    56   ar
    22    62    63    1
    23    63    65   ar
    24    55    57   ar
    25    56    57   ar
    26     4     3    2
    27     5     6    1
    28     5     2    1
    29     7     6    2
    30     6     8   am
    31     3     2    1
    32    25    24    2
    33     1     2    1
    34    23    24    1
    35    23    22    1
    36    24    26   am
    37    14    13    1
    38    47    46   ar
    39    47    45   ar
    40    26    27    1
    41    27    28    1
    42    46    44   ar
    43    45    43   ar
    44    13    10    1
    45    22    17   am
    46    37    35   ar
    47    44    43   ar
    48    29    28    2
    49    43    42    1
    50    20    19    1
    51    17    18    2
    52    17    16    1
    53    35    36   ar
    54    35    34    1
    55    10     9    1
    56    10    11    1
    57    42    39    1
    58    11    15   am
    59    11    12    2
    60    15    16    1
    61    16    19    1
    62    34    31    1
    63    19    21    1
    64    39    38    1
    65    39    40    1
    66    38    32   am
    67    41    40    2
    68    31    32    1
    69    31    30    1
    70    32    33    2
