@<TRIPOS>MOLECULE
tmp/3ekzA00.pdb
 99 95 0 0 0
SMALL
GASTEIGER

@<TRIPOS>ATOM
      1  N          3.7580   46.4390   24.4860 N.3    26  ASN26      -0.1240
      2  CA         4.6290   47.6220   24.6610 C.3    26  ASN26       0.1653
      3  C          3.8600   48.8960   24.3390 C.2    26  ASN26       0.2266
      4  O          3.2640   49.0130   23.2610 O.2    26  ASN26      -0.2867
      5  CB         5.8500   47.5600   23.7520 C.3    26  ASN26       0.1155
      6  CG         6.8920   46.5750   24.2400 C.2    26  ASN26       0.2627
      7  OD1        6.7770   45.3700   24.0130 O.2    26  ASN26      -0.2716
      8  ND2        7.9260   47.0860   24.8900 N.am   26  ASN26      -0.0877
      9  N          3.6690   47.0380   29.1230 N.3    50  GLN50      -0.1245
     10  CA         5.0900   47.1720   29.4290 C.3    50  GLN50       0.1566
     11  C          5.7340   48.3640   28.7470 C.2    50  GLN50       0.2260
     12  O          5.3050   48.7800   27.6640 O.2    50  GLN50      -0.2867
     13  CB         5.8670   45.8720   29.1380 C.3    50  GLN50       0.0367
     14  CG         5.6840   45.2960   27.7430 C.3    50  GLN50       0.0905
     15  CD         6.4270   44.0000   27.5570 C.2    50  GLN50       0.2608
     16  OE1        6.5390   43.1970   28.4810 O.2    50  GLN50      -0.2717
     17  NE2        6.9510   43.7860   26.3600 N.am   50  GLN50      -0.0878
     18  N         10.3100   46.4100   30.3120 N.3    94  ASP94      -0.1225
     19  CA        10.8980   45.4520   29.3920 C.3    94  ASP94       0.1805
     20  C         12.4400   45.5250   29.4510 C.2    94  ASP94       0.2597
     21  O         12.9900   46.3420   30.2180 O.2    94  ASP94      -0.2718
     22  CB        10.3570   45.7770   27.9940 C.3    94  ASP94       0.1424
     23  CG        10.4430   44.6100   27.0190 C.2    94  ASP94       0.3668
     24  OD1       10.8500   43.4840   27.4020 O.co2  94  ASP94      -0.2456
     25  OD2       10.0940   44.8450   25.8440 O.co2  94  ASP94      -0.2456
     26  N         13.1250   44.7010   28.6370 N.am   95  HIS95      -0.1975
     27  CA        14.6150   44.5350   28.6050 C.3    95  HIS95       0.1656
     28  C         15.4490   45.6190   29.2260 C.2    95  HIS95       0.2291
     29  O         15.5630   46.7120   28.6630 O.2    95  HIS95      -0.2864
     30  CB        15.1710   44.4740   27.1700 C.3    95  HIS95       0.0771
     31  CG        14.6070   43.3860   26.3380 C.ar   95  HIS95       0.0820
     32  ND1       15.2120   42.1510   26.2210 N.ar   95  HIS95      -0.2267
     33  CD2       13.5110   43.3560   25.5440 C.ar   95  HIS95       0.1154
     34  CE1       14.5020   41.3950   25.4040 C.ar   95  HIS95       0.1986
     35  NE2       13.4570   42.0960   24.9930 N.ar   95  HIS95      -0.2212
     36  N         12.6130   39.6040   17.4900 N.3   200  HIS200     -0.1226
     37  CA        11.8490   40.8560   17.5590 C.3   200  HIS200      0.1752
     38  C         11.6340   41.4230   16.1560 C.2   200  HIS200      0.2596
     39  O         12.5910   41.5690   15.4010 O.2   200  HIS200     -0.2718
     40  CB        12.6420   41.9240   18.3270 C.3   200  HIS200      0.0759
     41  CG        12.8320   41.6320   19.7780 C.ar  200  HIS200      0.0818
     42  ND1       14.0730   41.6650   20.3870 N.ar  200  HIS200     -0.2268
     43  CD2       11.9430   41.3150   20.7500 C.ar  200  HIS200      0.1154
     44  CE1       13.9340   41.4030   21.6750 C.ar  200  HIS200      0.1986
     45  NE2       12.6540   41.1740   21.9180 N.ar  200  HIS200     -0.2212
     46  N         10.4020   41.7910   15.8260 N.am  201  GLY201     -0.1957
     47  CA        10.1030   42.3960   14.5240 C.3   201  GLY201      0.1869
     48  C          9.1700   41.4940   13.7390 C.2   201  GLY201      0.2309
     49  O          8.8100   40.4110   14.2090 O.2   201  GLY201     -0.2863
     50  N          9.2120   36.1860   23.8590 N.3   240  HIS240     -0.1226
     51  CA         9.5910   37.4550   23.2310 C.3   240  HIS240      0.1752
     52  C          9.4650   37.3920   21.6930 C.2   240  HIS240      0.2596
     53  O          9.5630   36.3300   21.0980 O.2   240  HIS240     -0.2718
     54  CB        11.0280   37.8480   23.6230 C.3   240  HIS240      0.0759
     55  CG        11.1340   38.4180   25.0020 C.ar  240  HIS240      0.0818
     56  ND1       11.4810   39.7290   25.2440 N.ar  240  HIS240     -0.2268
     57  CD2       10.8930   37.8630   26.2180 C.ar  240  HIS240      0.1154
     58  CE1       11.4700   39.9570   26.5450 C.ar  240  HIS240      0.1986
     59  NE2       11.1360   38.8330   27.1610 N.ar  240  HIS240     -0.2212
     60  N          9.2440   38.5320   21.0500 N.am  241  GLY241     -0.1957
     61  CA         9.1760   38.5240   19.5950 C.3   241  GLY241      0.1869
     62  C          7.8650   37.9440   19.0850 C.2   241  GLY241      0.2309
     63  O          7.8380   37.3130   18.0300 O.2   241  GLY241     -0.2863
     64  N          5.1020   39.1870   17.7360 N.3   243  SER243     -0.1217
     65  CA         4.5110   39.6890   16.4810 C.3   243  SER243      0.1889
     66  C          4.9500   38.8350   15.3050 C.2   243  SER243      0.2288
     67  O          6.1190   38.4110   15.2370 O.2   243  SER243     -0.2866
     68  CB         4.9170   41.1550   16.2040 C.3   243  SER243      0.2089
     69  OG         4.4530   42.0310   17.2410 O.3   243  SER243     -0.2183
     70  N          5.1370   38.6880   24.5470 N.3   262  ASN262     -0.1225
     71  CA         5.4060   40.0890   24.3010 C.3   262  ASN262      0.1785
     72  C          4.9970   40.4270   22.8700 C.2   262  ASN262      0.2597
     73  O          5.3790   39.7350   21.9210 O.2   262  ASN262     -0.2718
     74  CB         6.8950   40.4260   24.4870 C.3   262  ASN262      0.1169
     75  CG         7.3720   40.3740   25.9410 C.2   262  ASN262      0.2627
     76  OD1        8.4670   40.8700   26.2480 O.2   262  ASN262     -0.2716
     77  ND2        6.5730   39.8160   26.8330 N.am  262  ASN262     -0.0877
     78  N          4.2100   41.4870   22.7160 N.am  263  VAL263     -0.1966
     79  CA         3.9530   42.0250   21.3710 C.3   263  VAL263      0.1727
     80  C          4.1040   43.5410   21.2790 C.2   263  VAL263      0.2616
     81  O          3.5830   44.2910   22.1300 O.2   263  VAL263     -0.2715
     82  CB         2.6700   41.4530   20.6690 C.3   263  VAL263      0.0290
     83  CG1        1.8990   40.4220   21.4970 C.3   263  VAL263      0.0023
     84  CG2        1.8070   42.5230   19.9220 C.3   263  VAL263      0.0023
     85  N          4.8430   43.9630   20.2520 N.am  264  ASP264     -0.1957
     86  CA         5.1100   45.3710   20.0100 C.3   264  ASP264      0.1840
     87  C          4.9100   45.6860   18.5240 C.2   264  ASP264      0.2622
     88  O          4.0780   46.5190   18.1780 O.2   264  ASP264     -0.2715
     89  CB         6.5350   45.7370   20.4390 C.3   264  ASP264      0.1450
     90  CG         6.7620   47.2620   20.5490 C.2   264  ASP264      0.3671
     91  OD1        5.8180   48.0680   20.2970 O.co2 264  ASP264     -0.2456
     92  OD2        7.8940   47.6450   20.9180 O.co2 264  ASP264     -0.2456
     93  N          5.6820   45.0320   17.6580 N.am  265  THR265     -0.1951
     94  CA         5.6840   45.3760   16.2310 C.3   265  THR265      0.1897
     95  C          4.2710   45.3480   15.6120 C.2   265  THR265      0.2313
     96  O          3.9040   46.2660   14.8630 O.2   265  THR265     -0.2863
     97  CB         6.6600   44.5160   15.4380 C.3   265  THR265      0.1794
     98  OG1        7.9690   44.6570   15.9980 O.3   265  THR265     -0.2208
     99  CG2        6.7300   44.9710   13.9620 C.3   265  THR265      0.0378
@<TRIPOS>BOND
     1    48    49    2
     2    48    47    1
     3    99    97    1
     4    47    46    1
     5    96    95    2
     6    67    66    2
     7    66    65    1
     8    39    38    2
     9    97    98    1
    10    97    94    1
    11    95    94    1
    12    46    38   am
    13    38    37    1
    14    68    65    1
    15    68    69    1
    16    94    93    1
    17    65    64    1
    18    36    37    1
    19    37    40    1
    20    93    87   am
    21    63    62    2
    22    88    87    2
    23    40    41    1
    24    87    86    1
    25    62    61    1
    26    61    60    1
    27    41    42   ar
    28    41    43   ar
    29    84    82    1
    30    86    85    1
    31    86    89    1
    32    85    80   am
    33    91    90   ar
    34    42    44   ar
    35    89    90    1
    36    90    92   ar
    37    82    79    1
    38    82    83    1
    39    43    45   ar
    40    60    52   am
    41    53    52    2
    42    80    79    1
    43    80    81    2
    44    79    78    1
    45    44    45   ar
    46    52    51    1
    47    73    72    2
    48    78    72   am
    49    72    71    1
    50    51    54    1
    51    51    50    1
    52     4     3    2
    53    54    55    1
    54     5     6    1
    55     5     2    1
    56     7     6    2
    57     6     8   am
    58    71    74    1
    59    71    70    1
    60     3     2    1
    61     1     2    1
    62    74    75    1
    63    35    34   ar
    64    35    33   ar
    65    55    56   ar
    66    55    57   ar
    67    56    58   ar
    68    34    32   ar
    69    33    31   ar
    70    25    23   ar
    71    75    76    2
    72    75    77   am
    73    57    59   ar
    74    32    31   ar
    75    31    30    1
    76    17    15   am
    77    58    59   ar
    78    23    24   ar
    79    23    22    1
    80    30    27    1
    81    15    14    1
    82    15    16    2
    83    12    11    2
    84    14    13    1
    85    22    19    1
    86    27    26    1
    87    27    28    1
    88    26    20   am
    89    29    28    2
    90    11    10    1
    91     9    10    1
    92    13    10    1
    93    19    20    1
    94    19    18    1
    95    20    21    2
