@<TRIPOS>MOLECULE
tmp/3el0B00.pdb
 112 103 0 0 0
SMALL
GASTEIGER

@<TRIPOS>ATOM
      1  N         19.6010   12.1760   15.7180 N.3     8  ARG8       -0.1245
      2  CA        18.8000   10.9870   15.4170 C.3     8  ARG8        0.1563
      3  C         17.7340   11.3280   14.3700 C.2     8  ARG8        0.2260
      4  O         17.0720   12.3700   14.4830 O.2     8  ARG8       -0.2867
      5  CB        18.1580   10.4530   16.6970 C.3     8  ARG8        0.0307
      6  CG        19.1700    9.8410   17.6580 C.3     8  ARG8        0.0489
      7  CD        18.5640    9.5120   19.0110 C.3     8  ARG8        0.2205
      8  NE        19.5080    8.7470   19.8130 N.pl3   8  ARG8       -0.0865
      9  CZ        19.2570    8.2340   21.0160 C.cat   8  ARG8        0.5346
     10  NH1       18.0730    8.4030   21.5940 N.pl3   8  ARG8        0.1354
     11  NH2       20.2050    7.5570   21.6470 N.pl3   8  ARG8        0.1354
     12  N         12.5780    6.2650   14.7590 N.3    23  LEU23      -0.1245
     13  CA        13.8410    6.3870   14.0160 C.3    23  LEU23       0.1561
     14  C         13.7270    5.7580   12.6320 C.2    23  LEU23       0.2260
     15  O         13.2810    4.6250   12.5100 O.2    23  LEU23      -0.2867
     16  CB        14.9660    5.6260   14.7290 C.3    23  LEU23       0.0270
     17  CG        15.8500    6.2530   15.7980 C.3    23  LEU23       0.0019
     18  CD1       16.7170    5.1650   16.4190 C.3    23  LEU23       0.0001
     19  CD2       16.7190    7.3210   15.2110 C.3    23  LEU23       0.0001
     20  N         15.6890    3.8680   10.3340 N.3    25  ASP25      -0.1239
     21  CA        16.8690    3.0650   10.6860 C.3    25  ASP25       0.1674
     22  C         17.2940    2.0360    9.6300 C.2    25  ASP25       0.2266
     23  O         16.7280    0.9500    9.5270 O.2    25  ASP25      -0.2867
     24  CB        16.6430    2.3870   12.0360 C.3    25  ASP25       0.1410
     25  CG        17.9050    1.7590   12.5900 C.2    25  ASP25       0.3668
     26  OD1       18.9410    1.7740   11.8980 O.co2  25  ASP25      -0.2456
     27  OD2       17.8690    1.2690   13.7310 O.co2  25  ASP25      -0.2456
     28  N         19.9120    0.2610    9.6450 N.3    27  GLY27      -0.1210
     29  CA        20.4870   -0.8850   10.3350 C.3    27  GLY27       0.1956
     30  C         19.4640   -1.9060   10.8110 C.2    27  GLY27       0.2611
     31  O         19.8330   -2.9830   11.2470 O.2    27  GLY27      -0.2717
     32  N         18.1790   -1.5690   10.7210 N.am   28  ALA28      -0.1979
     33  CA        17.1080   -2.4590   11.1400 C.3    28  ALA28       0.1597
     34  C         16.4640   -3.1370    9.9290 C.2    28  ALA28       0.2287
     35  O         15.9680   -2.4590    9.0220 O.2    28  ALA28      -0.2864
     36  CB        16.0720   -1.6800   11.9060 C.3    28  ALA28       0.0319
     37  N         13.7170   -4.8640   10.0770 N.3    30  ASP30      -0.1239
     38  CA        12.2760   -4.8000   10.2370 C.3    30  ASP30       0.1674
     39  C         11.8600   -3.6920   11.1910 C.2    30  ASP30       0.2266
     40  O         12.6630   -3.1290   11.9330 O.2    30  ASP30      -0.2867
     41  CB        11.7320   -6.1560   10.6880 C.3    30  ASP30       0.1410
     42  CG        11.5030   -7.1300    9.5200 C.2    30  ASP30       0.3668
     43  OD1       10.4700   -7.0190    8.8070 O.co2  30  ASP30      -0.2456
     44  OD2       12.3350   -8.0500    9.3480 O.co2  30  ASP30      -0.2456
     45  N          9.9600   -2.0410   14.2510 N.3    32  VAL32      -0.1245
     46  CA         9.6900   -2.4510   15.6160 C.3    32  VAL32       0.1561
     47  C          9.1090   -1.2920   16.4090 C.2    32  VAL32       0.2260
     48  O          9.7550   -0.2730   16.6160 O.2    32  VAL32      -0.2867
     49  CB        10.9660   -2.9640   16.3240 C.3    32  VAL32       0.0252
     50  CG1       10.6000   -3.6510   17.6260 C.3    32  VAL32       0.0019
     51  CG2       11.7350   -3.9310   15.4170 C.3    32  VAL32       0.0019
     52  N         14.2570  -11.4690   17.9490 N.3    47  ILE47      -0.1231
     53  CA        15.0690  -10.6730   17.0200 C.3    47  ILE47       0.1692
     54  C         16.3260  -10.1480   17.7070 C.2    47  ILE47       0.2592
     55  O         16.3180   -9.8250   18.8930 O.2    47  ILE47      -0.2718
     56  CB        14.2740   -9.5030   16.3800 C.3    47  ILE47       0.0266
     57  CG1       13.7130   -8.5700   17.4550 C.3    47  ILE47       0.0019
     58  CG2       13.1390  -10.0450   15.5170 C.3    47  ILE47       0.0020
     59  CD1       13.0010   -7.3650   16.8970 C.3    47  ILE47       0.0001
     60  N         17.4080  -10.0910   16.9430 N.am   48  VAL48      -0.1966
     61  CA        18.7180   -9.7650   17.4910 C.3    48  VAL48       0.1727
     62  C         18.9250   -8.2570   17.6010 C.2    48  VAL48       0.2617
     63  O         18.5170   -7.4710   16.7420 O.2    48  VAL48      -0.2715
     64  CB        19.8800  -10.4470   16.6950 C.3    48  VAL48       0.0290
     65  CG1       19.8610  -10.0450   15.2220 C.3    48  VAL48       0.0023
     66  CG2       21.2310  -10.1180   17.3140 C.3    48  VAL48       0.0023
     67  N         19.5120   -7.8660   18.7230 N.am   49  GLY49      -0.1940
     68  CA        20.1470   -6.5610   18.8630 C.3    49  GLY49       0.2014
     69  C         21.4740   -6.7380   19.5760 C.2    49  GLY49       0.2638
     70  O         21.8470   -7.8410   19.9540 O.2    49  GLY49      -0.2714
     71  N         22.1970   -5.6450   19.7560 N.am   50  ILE50      -0.1977
     72  CA        23.4170   -5.6790   20.5540 C.3    50  ILE50       0.1596
     73  C         23.0820   -6.0940   21.9910 C.2    50  ILE50       0.2287
     74  O         22.3020   -5.4310   22.6750 O.2    50  ILE50      -0.2864
     75  CB        24.1260   -4.3220   20.5440 C.3    50  ILE50       0.0276
     76  CG1       24.6690   -4.0220   19.1460 C.3    50  ILE50       0.0022
     77  CG2       25.2850   -4.3240   21.5280 C.3    50  ILE50       0.0022
     78  CD1       25.3690   -2.6760   19.0290 C.3    50  ILE50       0.0001
     79  N         15.2830   -9.6460   21.5910 N.3    54  VAL54      -0.1245
     80  CA        14.0020   -9.1660   22.1090 C.3    54  VAL54       0.1561
     81  C         12.8920  -10.0520   21.5490 C.2    54  VAL54       0.2260
     82  O         12.9060  -10.4200   20.3690 O.2    54  VAL54      -0.2867
     83  CB        13.7670   -7.6210   21.9020 C.3    54  VAL54       0.0252
     84  CG1       14.8960   -6.9540   21.1430 C.3    54  VAL54       0.0019
     85  CG2       12.4280   -7.2970   21.2580 C.3    54  VAL54       0.0019
     86  N         11.2020   -2.6630   22.6850 N.3    80  THR80      -0.1204
     87  CA        12.2920   -2.0320   21.9630 C.3    80  THR80       0.1979
     88  C         12.5850   -0.6920   22.6240 C.2    80  THR80       0.2460
     89  O         11.6520    0.0490   22.9530 O.2    80  THR80      -0.2732
     90  CB        11.9800   -1.8830   20.4550 C.3    80  THR80       0.1783
     91  OG1       13.1400   -1.3830   19.7850 O.3    80  THR80      -0.2211
     92  CG2       10.7830   -0.9680   20.2030 C.3    80  THR80       0.0376
     93  N         13.8750   -0.4170   22.8960 N.am   81  PRO81      -0.2717
     94  CA        14.3990    0.8610   23.3980 C.3    81  PRO81       0.1535
     95  C         13.9370    2.1010   22.6590 C.2    81  PRO81       0.2598
     96  O         13.9060    3.1850   23.2460 O.2    81  PRO81      -0.2715
     97  CB        15.9060    0.6950   23.2250 C.3    81  PRO81       0.0310
     98  CG        16.1230   -0.7360   23.4820 C.3    81  PRO81       0.0237
     99  CD        14.9500   -1.4260   22.8210 C.3    81  PRO81       0.0939
    100  N         13.6030    1.9520   21.3820 N.am   82  ALA82      -0.1978
    101  CA        13.0690    3.0620   20.6070 C.3    82  ALA82       0.1597
    102  C         12.1720    2.5400   19.4820 C.2    82  ALA82       0.2287
    103  O         12.3710    1.4390   18.9710 O.2    82  ALA82      -0.2864
    104  CB        14.2090    3.9150   20.0480 C.3    82  ALA82       0.0319
    105  N         11.2370    2.1280   15.8780 N.3    84  ILE84      -0.1245
    106  CA        12.1640    1.9770   14.7470 C.3    84  ILE84       0.1561
    107  C         11.3970    1.6960   13.4550 C.2    84  ILE84       0.2260
    108  O         10.5280    0.8140   13.4190 O.2    84  ILE84      -0.2867
    109  CB        13.1560    0.8080   14.9830 C.3    84  ILE84       0.0252
    110  CG1       14.1350    1.1270   16.1190 C.3    84  ILE84       0.0019
    111  CG2       13.9330    0.4720   13.7060 C.3    84  ILE84       0.0019
    112  CD1       15.2120    2.0950   15.7390 C.3    84  ILE84       0.0001
@<TRIPOS>BOND
     1    43    42   ar
     2    35    34    2
     3    44    42   ar
     4    42    41    1
     5    23    22    2
     6    22    21    1
     7    28    29    1
     8    34    33    1
     9    37    38    1
    10    38    41    1
    11    38    39    1
    12    20    21    1
    13    29    30    1
    14    21    24    1
    15    32    30   am
    16    32    33    1
    17    30    31    2
    18    33    36    1
    19    39    40    2
    20    26    25   ar
    21    24    25    1
    22    15    14    2
    23    25    27   ar
    24    14    13    1
    25   108   107    2
    26   107   106    1
    27   111   109    1
    28    13    16    1
    29    13    12    1
    30    45    46    1
    31     3     4    2
    32     3     2    1
    33    16    17    1
    34   106   109    1
    35   106   105    1
    36   109   110    1
    37    19    17    1
    38    65    64    1
    39    51    49    1
    40     2     1    1
    41     2     5    1
    42    58    56    1
    43    46    49    1
    44    46    47    1
    45   112   110    1
    46    17    18    1
    47    49    50    1
    48    56    53    1
    49    56    57    1
    50    47    48    2
    51    64    66    1
    52    64    61    1
    53     5     6    1
    54    63    62    2
    55    59    57    1
    56    60    61    1
    57    60    54   am
    58    53    54    1
    59    53    52    1
    60    61    62    1
    61    62    67   am
    62     6     7    1
    63    54    55    2
    64    67    68    1
    65    68    69    1
    66   103   102    2
    67     7     8    1
    68    78    76    1
    69    76    75    1
    70   102   101    1
    71    69    71   am
    72    69    70    2
    73    71    72    1
    74    91    90    1
    75     8     9    2
    76   104   101    1
    77    92    90    1
    78    82    81    2
    79    90    87    1
    80    75    72    1
    81    75    77    1
    82    72    73    1
    83   101   100    1
    84     9    10    1
    85     9    11    1
    86    84    83    1
    87    85    83    1
    88   100    95   am
    89    81    80    1
    90    79    80    1
    91    83    80    1
    92    87    88    1
    93    87    86    1
    94    73    74    2
    95    88    93   am
    96    88    89    2
    97    95    96    2
    98    95    94    1
    99    99    93    1
   100    99    98    1
   101    93    94    1
   102    97    94    1
   103    97    98    1
