@<TRIPOS>MOLECULE
tmp/3el1B00.pdb
 120 112 0 0 0
SMALL
GASTEIGER

@<TRIPOS>ATOM
      1  N         21.5300   34.5730   27.7660 N.3     8  ARG8       -0.1245
      2  CA        22.1670   33.8340   26.6800 C.3     8  ARG8        0.1563
      3  C         23.2680   32.9380   27.2420 C.2     8  ARG8        0.2260
      4  O         24.0530   33.3840   28.0890 O.2     8  ARG8       -0.2867
      5  CB        22.7670   34.7740   25.6410 C.3     8  ARG8        0.0307
      6  CG        21.7370   35.6430   24.9440 C.3     8  ARG8        0.0489
      7  CD        22.2680   36.2450   23.6750 C.3     8  ARG8        0.2205
      8  NE        21.4870   37.4200   23.2890 N.pl3   8  ARG8       -0.0865
      9  CZ        21.4580   37.9570   22.0730 C.cat   8  ARG8        0.5346
     10  NH1       22.1570   37.4210   21.0700 N.pl3   8  ARG8        0.1354
     11  NH2       20.7160   39.0370   21.8520 N.pl3   8  ARG8        0.1354
     12  N         28.4560   31.5260   22.1000 N.3    23  LEU23      -0.1245
     13  CA        27.1080   31.1040   22.4200 C.3    23  LEU23       0.1561
     14  C         26.9770   29.6010   22.1880 C.2    23  LEU23       0.2260
     15  O         27.2720   29.1220   21.1000 O.2    23  LEU23      -0.2867
     16  CB        26.1600   31.8600   21.4960 C.3    23  LEU23       0.0270
     17  CG        24.6500   31.6900   21.6250 C.3    23  LEU23       0.0019
     18  CD1       24.1960   32.3060   22.9130 C.3    23  LEU23       0.0001
     19  CD2       23.9480   32.3360   20.4140 C.3    23  LEU23       0.0001
     20  N         24.8700   26.7860   21.1360 N.3    25  ASP25      -0.1239
     21  CA        23.7180   26.9080   20.2470 C.3    25  ASP25       0.1674
     22  C         23.2320   25.5600   19.7540 C.2    25  ASP25       0.2266
     23  O         23.7670   25.0160   18.8130 O.2    25  ASP25      -0.2867
     24  CB        24.0990   27.8020   19.0520 C.3    25  ASP25       0.1410
     25  CG        22.9090   28.1950   18.2080 C.2    25  ASP25       0.3668
     26  OD1       21.7810   27.7590   18.5060 O.co2  25  ASP25      -0.2456
     27  OD2       23.1170   28.9370   17.2330 O.co2  25  ASP25      -0.2456
     28  N         20.5560   25.0070   18.1770 N.3    27  GLY27      -0.1210
     29  CA        19.9330   25.1870   16.8590 C.3    27  GLY27       0.1956
     30  C         20.9050   25.3780   15.7070 C.2    27  GLY27       0.2612
     31  O         20.4780   25.6620   14.5960 O.2    27  GLY27      -0.2717
     32  N         22.2020   25.2430   15.9760 N.am   28  ALA28      -0.1965
     33  CA        23.2360   25.3540   14.9580 C.3    28  ALA28       0.1728
     34  C         23.8520   24.0010   14.6270 C.2    28  ALA28       0.2616
     35  O         24.3970   23.3340   15.5040 O.2    28  ALA28      -0.2715
     36  CB        24.3150   26.3150   15.4260 C.3    28  ALA28       0.0334
     37  N         23.8010   23.6060   13.3550 N.am   29  ASP29      -0.1957
     38  CA        24.4710   22.3750   12.9160 C.3    29  ASP29       0.1840
     39  C         25.9720   22.5260   13.0300 C.2    29  ASP29       0.2622
     40  O         26.6750   21.5620   13.3370 O.2    29  ASP29      -0.2715
     41  CB        24.1760   22.0610   11.4450 C.3    29  ASP29       0.1450
     42  CG        22.7820   21.5390   11.2120 C.2    29  ASP29       0.3671
     43  OD1       21.9740   21.4750   12.1630 O.co2  29  ASP29      -0.2456
     44  OD2       22.4910   21.2070   10.0480 O.co2  29  ASP29      -0.2456
     45  N         26.4410   23.7350   12.7400 N.am   30  ASP30      -0.1971
     46  CA        27.8570   24.0540   12.5800 C.3    30  ASP30       0.1709
     47  C         28.3070   25.1150   13.5720 C.2    30  ASP30       0.2293
     48  O         27.4960   25.8460   14.1520 O.2    30  ASP30      -0.2864
     49  CB        28.1120   24.5730   11.1640 C.3    30  ASP30       0.1436
     50  CG        27.6970   23.5830   10.1010 C.2    30  ASP30       0.3671
     51  OD1       28.0630   22.3990   10.2190 O.co2  30  ASP30      -0.2456
     52  OD2       27.0050   23.9910    9.1540 O.co2  30  ASP30      -0.2456
     53  N         30.3130   28.5700   14.0600 N.3    32  VAL32      -0.1245
     54  CA        30.5860   29.7460   13.2420 C.3    32  VAL32       0.1561
     55  C         31.1690   30.8520   14.1110 C.2    32  VAL32       0.2260
     56  O         30.5020   31.3410   15.0190 O.2    32  VAL32      -0.2867
     57  CB        29.3090   30.3010   12.5640 C.3    32  VAL32       0.0252
     58  CG1       29.7060   31.3700   11.5540 C.3    32  VAL32       0.0019
     59  CG2       28.5060   29.1870   11.9020 C.3    32  VAL32       0.0019
     60  N         26.7240   28.8180    4.1790 N.3    47  ILE47      -0.1231
     61  CA        25.8120   28.2960    5.2030 C.3    47  ILE47       0.1692
     62  C         24.6360   29.2340    5.3210 C.2    47  ILE47       0.2593
     63  O         24.7490   30.4130    5.0070 O.2    47  ILE47      -0.2718
     64  CB        26.4790   28.1470    6.5910 C.3    47  ILE47       0.0266
     65  CG1       26.9620   29.5040    7.1180 C.3    47  ILE47       0.0019
     66  CG2       27.6290   27.1540    6.5360 C.3    47  ILE47       0.0020
     67  CD1       27.5150   29.4350    8.5250 C.3    47  ILE47       0.0001
     68  N         23.5150   28.7180    5.8050 N.am   48  GLY48      -0.1942
     69  CA        22.2720   29.4650    5.7700 C.3    48  GLY48       0.2014
     70  C         21.6400   29.5370    7.1310 C.2    48  GLY48       0.2639
     71  O         21.7130   28.5890    7.8950 O.2    48  GLY48      -0.2714
     72  N         21.0480   30.6820    7.4320 N.am   49  GLY49      -0.1939
     73  CA        20.2820   30.8610    8.6490 C.3    49  GLY49       0.2014
     74  C         19.0180   31.6010    8.2960 C.2    49  GLY49       0.2638
     75  O         18.5810   31.6070    7.1270 O.2    49  GLY49      -0.2714
     76  N         18.4140   32.2100    9.3060 N.am   50  ILE50      -0.1977
     77  CA        17.3480   33.1560    9.0670 C.3    50  ILE50       0.1596
     78  C         18.0000   34.3540    8.3920 C.2    50  ILE50       0.2287
     79  O         19.1180   34.7410    8.7300 O.2    50  ILE50      -0.2864
     80  CB        16.6390   33.5570   10.3660 C.3    50  ILE50       0.0276
     81  CG1       15.7420   32.4060   10.8320 C.3    50  ILE50       0.0022
     82  CG2       15.8060   34.8180   10.1540 C.3    50  ILE50       0.0022
     83  CD1       15.0890   32.6370   12.1730 C.3    50  ILE50       0.0001
     84  N         25.2750   33.0870    3.8380 N.3    54  ILE54      -0.1245
     85  CA        26.5150   33.8490    3.8900 C.3    54  ILE54       0.1561
     86  C         27.6690   32.9720    3.4530 C.2    54  ILE54       0.2260
     87  O         27.5940   31.7490    3.5670 O.2    54  ILE54      -0.2867
     88  CB        26.8210   34.3680    5.3120 C.3    54  ILE54       0.0252
     89  CG1       27.0030   33.2160    6.3080 C.3    54  ILE54       0.0019
     90  CG2       25.6960   35.2940    5.7960 C.3    54  ILE54       0.0019
     91  CD1       27.5670   33.6810    7.6570 C.3    54  ILE54       0.0001
     92  N         29.3210   37.0920   11.3890 N.3    80  THR80      -0.1204
     93  CA        28.3050   36.7710   12.3810 C.3    80  THR80       0.1979
     94  C         28.3850   37.7810   13.5310 C.2    80  THR80       0.2460
     95  O         29.4670   38.2700   13.8540 O.2    80  THR80      -0.2732
     96  CB        28.4910   35.3300   12.9030 C.3    80  THR80       0.1783
     97  OG1       27.5670   35.0890   13.9710 O.3    80  THR80      -0.2211
     98  CG2       29.9200   35.0850   13.4080 C.3    80  THR80       0.0376
     99  N         27.2380   38.1260   14.1420 N.am   81  PRO81      -0.2717
    100  CA        27.2790   39.0560   15.2620 C.3    81  PRO81       0.1535
    101  C         27.7700   38.4520   16.5590 C.2    81  PRO81       0.2598
    102  O         28.0820   39.1860   17.4980 O.2    81  PRO81      -0.2715
    103  CB        25.8160   39.4910   15.3990 C.3    81  PRO81       0.0310
    104  CG        25.0510   38.3390   14.9170 C.3    81  PRO81       0.0237
    105  CD        25.8580   37.7300   13.8130 C.3    81  PRO81       0.0939
    106  N         27.8270   37.1230   16.6120 N.am   82  VAL82      -0.1978
    107  CA        28.2000   36.4050   17.8100 C.3    82  VAL82       0.1596
    108  C         28.9340   35.1220   17.4250 C.2    82  VAL82       0.2287
    109  O         28.6360   34.5130   16.4020 O.2    82  VAL82      -0.2864
    110  CB        26.9470   36.0390   18.6180 C.3    82  VAL82       0.0276
    111  CG1       25.9910   35.1770   17.7750 C.3    82  VAL82       0.0022
    112  CG2       27.3260   35.3280   19.9050 C.3    82  VAL82       0.0022
    113  N         29.4300   31.3250   17.5890 N.3    84  ILE84      -0.1245
    114  CA        28.4450   30.2760   17.7630 C.3    84  ILE84       0.1561
    115  C         29.1260   28.9140   17.8500 C.2    84  ILE84       0.2260
    116  O         29.8170   28.4960   16.9170 O.2    84  ILE84      -0.2867
    117  CB        27.4370   30.2720   16.5910 C.3    84  ILE84       0.0252
    118  CG1       26.5720   31.5350   16.6170 C.3    84  ILE84       0.0019
    119  CG2       26.5480   29.0530   16.6450 C.3    84  ILE84       0.0019
    120  CD1       25.8640   31.7960   15.3160 C.3    84  ILE84       0.0001
@<TRIPOS>BOND
     1    86    87    2
     2    86    85    1
     3    84    85    1
     4    85    88    1
     5    60    61    1
     6    63    62    2
     7    61    62    1
     8    61    64    1
     9    88    90    1
    10    88    89    1
    11    62    68   am
    12    69    68    1
    13    69    70    1
    14    89    91    1
    15    66    64    1
    16    64    65    1
    17    65    67    1
    18    75    74    2
    19    70    72   am
    20    70    71    2
    21    72    73    1
    22    74    73    1
    23    74    76   am
    24    78    79    2
    25    78    77    1
    26    77    76    1
    27    77    80    1
    28    52    50   ar
    29    44    42   ar
    30    50    51   ar
    31    50    49    1
    32    82    80    1
    33    80    81    1
    34    81    83    1
    35    49    46    1
    36    42    41    1
    37    42    43   ar
    38    92    93    1
    39    41    38    1
    40    58    57    1
    41    59    57    1
    42    93    96    1
    43    93    94    1
    44    57    54    1
    45    46    45    1
    46    46    47    1
    47    45    39   am
    48    96    98    1
    49    96    97    1
    50    38    39    1
    51    38    37    1
    52    39    40    2
    53    54    53    1
    54    54    55    1
    55    37    34   am
    56    94    95    2
    57    94    99   am
    58    47    48    2
    59   105    99    1
    60   105   104    1
    61    55    56    2
    62    99   100    1
    63    31    30    2
    64    34    33    1
    65    34    35    2
    66   104   103    1
    67    33    36    1
    68    33    32    1
    69   100   103    1
    70   100   101    1
    71   120   118    1
    72    30    32   am
    73    30    29    1
    74   109   108    2
    75   101   106   am
    76   101   102    2
    77   117   118    1
    78   117   119    1
    79   117   114    1
    80   106   107    1
    81    29    28    1
    82   116   115    2
    83    27    25   ar
    84   108   107    1
    85   113   114    1
    86   114   115    1
    87   111   110    1
    88   107   110    1
    89    25    26   ar
    90    25    24    1
    91   110   112    1
    92    23    22    2
    93    24    21    1
    94    22    21    1
    95    21    20    1
    96    19    17    1
    97    10     9    1
    98    15    14    2
    99    16    17    1
   100    16    13    1
   101    17    18    1
   102    11     9    1
   103     9     8    2
   104    12    13    1
   105    14    13    1
   106     8     7    1
   107     7     6    1
   108     6     5    1
   109     5     2    1
   110     2     3    1
   111     2     1    1
   112     3     4    2
