@<TRIPOS>MOLECULE
tmp/3el3A02.pdb
 86 81 0 0 0
SMALL
GASTEIGER

@<TRIPOS>ATOM
      1  N        -54.4320   -4.4450  -29.6990 N.3    19  LEU19      -0.1245
      2  CA       -53.0550   -4.1520  -29.2960 C.3    19  LEU19       0.1561
      3  C        -52.3840   -3.3600  -30.4030 C.2    19  LEU19       0.2260
      4  O        -51.6420   -2.4160  -30.1410 O.2    19  LEU19      -0.2867
      5  CB       -52.3060   -5.4780  -29.0840 C.3    19  LEU19       0.0270
      6  CG       -50.8290   -5.5640  -28.6900 C.3    19  LEU19       0.0019
      7  CD1      -50.5910   -4.8950  -27.3460 C.3    19  LEU19       0.0001
      8  CD2      -50.4160   -7.0640  -28.6520 C.3    19  LEU19       0.0001
      9  N        -51.3890   -0.1870  -28.4480 N.3    23  PRO23      -0.2116
     10  CA       -50.8720   -0.9440  -27.3040 C.3    23  PRO23       0.1372
     11  C        -51.0810   -0.2710  -25.9350 C.2    23  PRO23       0.2244
     12  O        -51.7070   -0.8520  -25.0420 O.2    23  PRO23      -0.2868
     13  CB       -49.3870   -1.1240  -27.6440 C.3    23  PRO23       0.0268
     14  CG       -49.3970   -1.2060  -29.1470 C.3    23  PRO23       0.0207
     15  CD       -50.3660   -0.0950  -29.5090 C.3    23  PRO23       0.0892
     16  N        -42.5580  -12.8800  -26.3520 N.3    70  LEU70      -0.1245
     17  CA       -42.6230  -11.7430  -27.2680 C.3    70  LEU70       0.1561
     18  C        -41.5080  -10.7750  -26.8490 C.2    70  LEU70       0.2260
     19  O        -41.7020   -9.5580  -26.7970 O.2    70  LEU70      -0.2867
     20  CB       -44.0060  -11.1050  -27.1780 C.3    70  LEU70       0.0270
     21  CG       -45.1550  -12.0980  -27.3650 C.3    70  LEU70       0.0019
     22  CD1      -46.4290  -11.3830  -27.0900 C.3    70  LEU70       0.0001
     23  CD2      -45.1720  -12.6770  -28.7650 C.3    70  LEU70       0.0001
     24  N        -37.2170  -12.3350  -30.2060 N.3    74  LEU74      -0.1245
     25  CA       -36.2050  -11.4020  -30.6850 C.3    74  LEU74       0.1561
     26  C        -34.8800  -11.7030  -29.9990 C.2    74  LEU74       0.2260
     27  O        -33.8200  -11.3860  -30.5370 O.2    74  LEU74      -0.2867
     28  CB       -36.6270   -9.9670  -30.3830 C.3    74  LEU74       0.0270
     29  CG       -37.7960   -9.4160  -31.1990 C.3    74  LEU74       0.0019
     30  CD1      -38.1580   -8.0510  -30.6630 C.3    74  LEU74       0.0001
     31  CD2      -37.4600   -9.3000  -32.6630 C.3    74  LEU74       0.0001
     32  N        -42.1260    0.0420  -21.0510 N.3   294  TRP294     -0.1227
     33  CA       -43.5440   -0.0580  -20.6860 C.3   294  TRP294      0.1737
     34  C        -44.1980   -1.4430  -20.5800 C.2   294  TRP294      0.2595
     35  O        -45.3810   -1.5650  -20.2560 O.2   294  TRP294     -0.2718
     36  CB       -44.3670    0.7910  -21.6370 C.3   294  TRP294      0.0564
     37  CG       -44.2350    0.3250  -23.0090 C.ar  294  TRP294      0.0003
     38  CD1      -43.1300    0.4050  -23.8040 C.ar  294  TRP294      0.0946
     39  CD2      -45.2200   -0.3640  -23.7530 C.ar  294  TRP294      0.0152
     40  NE1      -43.3720   -0.2040  -25.0050 N.ar  294  TRP294     -0.2442
     41  CE2      -44.6530   -0.6840  -25.0010 C.ar  294  TRP294      0.0810
     42  CE3      -46.5390   -0.7480  -23.4860 C.ar  294  TRP294      0.0012
     43  CZ2      -45.3530   -1.3710  -25.9790 C.ar  294  TRP294      0.0191
     44  CZ3      -47.2390   -1.4300  -24.4660 C.ar  294  TRP294      0.0001
     45  CH2      -46.6440   -1.7370  -25.6970 C.ar  294  TRP294      0.0015
     46  N        -43.4450   -2.4850  -20.8740 N.am  295  VAL295     -0.1980
     47  CA       -43.9840   -3.8160  -20.7280 C.3   295  VAL295      0.1595
     48  C        -42.8160   -4.6570  -20.3220 C.2   295  VAL295      0.2287
     49  O        -41.6570   -4.3490  -20.6300 O.2   295  VAL295     -0.2864
     50  CB       -44.5550   -4.3870  -22.0220 C.3   295  VAL295      0.0276
     51  CG1      -45.9720   -4.7500  -21.8030 C.3   295  VAL295      0.0022
     52  CG2      -44.4290   -3.4070  -23.1400 C.3   295  VAL295      0.0022
     53  N        -41.8610   -8.9720  -19.7260 N.3   297  THR297     -0.1218
     54  CA       -42.3330  -10.3330  -19.8340 C.3   297  THR297      0.1862
     55  C        -41.5440  -11.3410  -19.0380 C.2   297  THR297      0.2287
     56  O        -40.3930  -11.1160  -18.6710 O.2   297  THR297     -0.2866
     57  CB       -42.3190  -10.7850  -21.2750 C.3   297  THR297      0.1770
     58  OG1      -42.5660   -9.6590  -22.1230 O.3   297  THR297     -0.2211
     59  CG2      -43.3970  -11.8120  -21.5060 C.3   297  THR297      0.0375
     60  N        -47.2180  -11.3920  -19.0720 N.3   318  ILE318     -0.1245
     61  CA       -46.7990  -10.0640  -19.4520 C.3   318  ILE318      0.1561
     62  C        -47.4630   -9.0180  -18.5800 C.2   318  ILE318      0.2260
     63  O        -48.6230   -9.1770  -18.1950 O.2   318  ILE318     -0.2867
     64  CB       -47.2180   -9.7990  -20.8740 C.3   318  ILE318      0.0252
     65  CG1      -46.7470   -8.4170  -21.3020 C.3   318  ILE318      0.0019
     66  CG2      -48.7370   -9.9370  -20.9700 C.3   318  ILE318      0.0019
     67  CD1      -47.0830   -8.1020  -22.7220 C.3   318  ILE318      0.0001
     68  N        -44.9580    4.1220  -29.6780 N.3   400  VAL400     -0.1231
     69  CA       -44.7360    2.8890  -28.9330 C.3   400  VAL400      0.1692
     70  C        -43.7840    1.8940  -29.6280 C.2   400  VAL400      0.2593
     71  O        -44.1310    1.2330  -30.5990 O.2   400  VAL400     -0.2718
     72  CB       -46.1090    2.2360  -28.6030 C.3   400  VAL400      0.0266
     73  CG1      -46.9990    2.2740  -29.8350 C.3   400  VAL400      0.0020
     74  CG2      -45.9190    0.8160  -28.1090 C.3   400  VAL400      0.0020
     75  N        -42.5570    1.7950  -29.1300 N.am  401  GLY401     -0.1942
     76  CA       -41.6130    0.8730  -29.7250 C.3   401  GLY401      0.2014
     77  C        -41.0170   -0.0400  -28.6710 C.2   401  GLY401      0.2638
     78  O        -41.7220   -0.5450  -27.7960 O.2   401  GLY401     -0.2714
     79  N        -39.7130   -0.2560  -28.7520 N.am  402  ILE402     -0.1977
     80  CA       -39.0180   -1.0900  -27.7810 C.3   402  ILE402      0.1596
     81  C        -39.2620   -0.4140  -26.4370 C.2   402  ILE402      0.2287
     82  O        -39.5710   -1.0600  -25.4390 O.2   402  ILE402     -0.2864
     83  CB       -37.5000   -1.1120  -28.0680 C.3   402  ILE402      0.0276
     84  CG1      -37.2530   -1.4550  -29.5520 C.3   402  ILE402      0.0022
     85  CG2      -36.8130   -2.0860  -27.1280 C.3   402  ILE402      0.0022
     86  CD1      -35.7940   -1.3670  -30.0380 C.3   402  ILE402      0.0001
@<TRIPOS>BOND
     1    31    29    1
     2    29    30    1
     3    29    28    1
     4    25    28    1
     5    25    24    1
     6    25    26    1
     7    71    70    2
     8    27    26    2
     9     3     4    2
    10     3     2    1
    11    86    84    1
    12    73    72    1
    13    76    75    1
    14    76    77    1
    15     1     2    1
    16    68    69    1
    17    70    75   am
    18    70    69    1
    19    84    83    1
    20    15    14    1
    21    15     9    1
    22     2     5    1
    23    14    13    1
    24     5     6    1
    25    69    72    1
    26    23    21    1
    27    79    77   am
    28    79    80    1
    29     6     8    1
    30     6     7    1
    31    77    78    2
    32    72    74    1
    33     9    10    1
    34    83    80    1
    35    83    85    1
    36    80    81    1
    37    13    10    1
    38    21    20    1
    39    21    22    1
    40    10    11    1
    41    17    20    1
    42    17    18    1
    43    17    16    1
    44    18    19    2
    45    81    82    2
    46    43    45   ar
    47    43    41   ar
    48    11    12    2
    49    45    44   ar
    50    40    41   ar
    51    40    38   ar
    52    41    39   ar
    53    44    42   ar
    54    38    37   ar
    55    39    42   ar
    56    39    37   ar
    57    52    50    1
    58    37    36    1
    59    67    65    1
    60    58    57    1
    61    50    51    1
    62    50    47    1
    63    36    33    1
    64    59    57    1
    65    65    64    1
    66    57    54    1
    67    32    33    1
    68    66    64    1
    69    64    61    1
    70    46    47    1
    71    46    34   am
    72    47    48    1
    73    33    34    1
    74    49    48    2
    75    34    35    2
    76    54    53    1
    77    54    55    1
    78    61    60    1
    79    61    62    1
    80    55    56    2
    81    62    63    2
