@<TRIPOS>MOLECULE
tmp/3el3A01.pdb
 102 95 0 0 0
SMALL
GASTEIGER

@<TRIPOS>ATOM
      1  N        -40.3620  -11.3820  -26.5220 N.3    71  TRP71      -0.1241
      2  CA       -39.0920  -10.7510  -26.1100 C.3    71  TRP71       0.1605
      3  C        -37.9710  -11.6940  -26.5750 C.2    71  TRP71       0.2264
      4  O        -37.0110  -11.2550  -27.2160 O.2    71  TRP71      -0.2867
      5  CB       -38.9800  -10.6000  -24.5840 C.3    71  TRP71       0.0550
      6  CG       -37.7610   -9.8010  -24.1540 C.ar   71  TRP71       0.0003
      7  CD1      -37.6890   -8.4470  -23.9980 C.ar   71  TRP71       0.0946
      8  CD2      -36.4320  -10.3010  -23.8990 C.ar   71  TRP71       0.0152
      9  NE1      -36.4090   -8.0680  -23.6620 N.ar   71  TRP71      -0.2442
     10  CE2      -35.6180   -9.1840  -23.5980 C.ar   71  TRP71       0.0810
     11  CE3      -35.8570  -11.5780  -23.8990 C.ar   71  TRP71       0.0012
     12  CZ2      -34.2550   -9.3000  -23.2930 C.ar   71  TRP71       0.0191
     13  CZ3      -34.4960  -11.6930  -23.5990 C.ar   71  TRP71       0.0001
     14  CH2      -33.7150  -10.5570  -23.2990 C.ar   71  TRP71       0.0015
     15  N        -31.6270  -12.1700  -30.8440 N.3    78  LEU78      -0.1245
     16  CA       -30.6760  -11.3170  -30.1370 C.3    78  LEU78       0.1561
     17  C        -29.4510  -12.1950  -29.9490 C.2    78  LEU78       0.2260
     18  O        -28.4460  -11.7660  -29.3920 O.2    78  LEU78      -0.2867
     19  CB       -31.2320  -10.8780  -28.7750 C.3    78  LEU78       0.0270
     20  CG       -32.0010   -9.5780  -28.6890 C.3    78  LEU78       0.0019
     21  CD1      -32.3290   -9.4320  -27.1930 C.3    78  LEU78       0.0001
     22  CD2      -31.1010   -8.4380  -29.1350 C.3    78  LEU78       0.0001
     23  N        -27.5420   -8.6550  -28.2750 N.3    83  VAL83      -0.1245
     24  CA       -26.8500   -9.2350  -27.1110 C.3    83  VAL83       0.1561
     25  C        -25.8930  -10.3990  -27.3960 C.2    83  VAL83       0.2260
     26  O        -24.8300  -10.4990  -26.7820 O.2    83  VAL83      -0.2867
     27  CB       -27.8900   -9.7590  -26.0500 C.3    83  VAL83       0.0252
     28  CG1      -27.1760  -10.4980  -24.9120 C.3    83  VAL83       0.0019
     29  CG2      -28.7200   -8.6030  -25.4920 C.3    83  VAL83       0.0019
     30  N        -28.9990  -14.1940  -22.5980 N.3    87  ASN87      -0.1240
     31  CA       -29.1380  -13.0580  -21.7140 C.3    87  ASN87       0.1653
     32  C        -29.5950  -13.7780  -20.4710 C.2    87  ASN87       0.2266
     33  O        -30.4090  -14.7010  -20.5400 O.2    87  ASN87      -0.2867
     34  CB       -30.2200  -12.0600  -22.1430 C.3    87  ASN87       0.1155
     35  CG       -30.5130  -11.0250  -21.0490 C.2    87  ASN87       0.2627
     36  OD1      -31.1830  -11.3210  -20.0580 O.2    87  ASN87      -0.2716
     37  ND2      -29.9900   -9.8170  -21.2190 N.am   87  ASN87      -0.0877
     38  N        -24.3280   -6.2130  -24.7470 N.3   225  ALA225     -0.1245
     39  CA       -25.6450   -6.5280  -24.1800 C.3   225  ALA225      0.1562
     40  C        -26.0180   -5.5630  -23.0670 C.2   225  ALA225      0.2260
     41  O        -27.1990   -5.3020  -22.8160 O.2   225  ALA225     -0.2867
     42  CB       -25.6680   -7.9620  -23.6530 C.3   225  ALA225      0.0290
     43  N        -29.1410   -1.9510  -24.5060 N.3   229  PRO229     -0.2116
     44  CA       -30.3960   -1.4960  -23.9190 C.3   229  PRO229      0.1372
     45  C        -30.2630   -0.2630  -23.0420 C.2   229  PRO229      0.2244
     46  O        -30.9820    0.7160  -23.2100 O.2   229  PRO229     -0.2868
     47  CB       -30.8520   -2.7060  -23.1190 C.3   229  PRO229      0.0268
     48  CG       -30.1850   -3.8620  -23.8100 C.3   229  PRO229      0.0207
     49  CD       -28.8210   -3.3020  -24.0280 C.3   229  PRO229      0.0892
     50  N        -30.4640    3.1880  -25.0420 N.3   232  GLU232     -0.1231
     51  CA       -31.7220    3.6230  -25.6330 C.3   232  GLU232      0.1699
     52  C        -32.7190    3.9470  -24.5490 C.2   232  GLU232      0.2592
     53  O        -33.6820    4.6770  -24.7790 O.2   232  GLU232     -0.2718
     54  CB       -32.3130    2.5350  -26.5070 C.3   232  GLU232      0.0402
     55  CG       -33.4810    3.0070  -27.3260 C.3   232  GLU232      0.1161
     56  CD       -33.9940    1.9340  -28.2460 C.2   232  GLU232      0.3649
     57  OE1      -34.7660    1.0760  -27.7640 O.co2 232  GLU232     -0.2457
     58  OE2      -33.6130    1.9430  -29.4430 O.co2 232  GLU232     -0.2457
     59  N        -32.4920    3.3910  -23.3660 N.am  233  THR233     -0.1953
     60  CA       -33.3750    3.6160  -22.2410 C.3   233  THR233      0.1897
     61  C        -33.0440    4.9180  -21.5270 C.2   233  THR233      0.2313
     62  O        -33.9400    5.7180  -21.2570 O.2   233  THR233     -0.2863
     63  CB       -33.2830    2.4620  -21.2700 C.3   233  THR233      0.1794
     64  OG1      -33.1790    1.2360  -22.0070 O.3   233  THR233     -0.2208
     65  CG2      -34.5200    2.4090  -20.4060 C.3   233  THR233      0.0378
     66  N        -39.3630    1.9480  -20.5960 N.3   293  VAL293     -0.1245
     67  CA       -39.7550    0.5450  -20.6990 C.3   293  VAL293      0.1561
     68  C        -41.1970    0.4050  -20.1630 C.2   293  VAL293      0.2260
     69  O        -41.4600    0.6360  -18.9710 O.2   293  VAL293     -0.2867
     70  CB       -38.7370   -0.3370  -19.9130 C.3   293  VAL293      0.0252
     71  CG1      -38.6260    0.1570  -18.4620 C.3   293  VAL293      0.0019
     72  CG2      -39.1370   -1.7950  -19.9970 C.3   293  VAL293      0.0019
     73  N        -43.4450   -2.4850  -20.8740 N.3   295  VAL295     -0.1231
     74  CA       -43.9840   -3.8160  -20.7280 C.3   295  VAL295      0.1692
     75  C        -42.8160   -4.6570  -20.3220 C.2   295  VAL295      0.2591
     76  O        -41.6570   -4.3490  -20.6300 O.2   295  VAL295     -0.2718
     77  CB       -44.5550   -4.3870  -22.0220 C.3   295  VAL295      0.0266
     78  CG1      -45.9720   -4.7500  -21.8030 C.3   295  VAL295      0.0020
     79  CG2      -44.4290   -3.4070  -23.1400 C.3   295  VAL295      0.0020
     80  N        -43.1260   -5.7300  -19.6230 N.am  296  LEU296     -0.1980
     81  CA       -42.0960   -6.6270  -19.1620 C.3   296  LEU296      0.1596
     82  C        -42.6480   -8.0390  -19.2110 C.2   296  LEU296      0.2287
     83  O        -43.7810   -8.2830  -18.7880 O.2   296  LEU296     -0.2864
     84  CB       -41.7060   -6.2250  -17.7520 C.3   296  LEU296      0.0297
     85  CG       -41.0780   -4.8320  -17.6590 C.3   296  LEU296      0.0022
     86  CD1      -40.9300   -4.3950  -16.1920 C.3   296  LEU296      0.0001
     87  CD2      -39.7430   -4.8730  -18.3980 C.3   296  LEU296      0.0001
     88  N        -39.7130   -0.2560  -28.7520 N.3   402  ILE402     -0.1231
     89  CA       -39.0180   -1.0900  -27.7810 C.3   402  ILE402      0.1692
     90  C        -39.2620   -0.4140  -26.4370 C.2   402  ILE402      0.2592
     91  O        -39.5710   -1.0600  -25.4390 O.2   402  ILE402     -0.2718
     92  CB       -37.5000   -1.1120  -28.0680 C.3   402  ILE402      0.0266
     93  CG1      -37.2530   -1.4550  -29.5520 C.3   402  ILE402      0.0019
     94  CG2      -36.8130   -2.0860  -27.1280 C.3   402  ILE402      0.0020
     95  CD1      -35.7940   -1.3670  -30.0380 C.3   402  ILE402      0.0001
     96  N        -39.1320    0.9100  -26.4620 N.am  403  THR403     -0.1953
     97  CA       -39.3220    1.7810  -25.3170 C.3   403  THR403      0.1897
     98  C        -40.3290    2.8300  -25.8230 C.2   403  THR403      0.2313
     99  O        -40.6600    2.8130  -27.0050 O.2   403  THR403     -0.2863
    100  CB       -37.9750    2.4640  -24.9280 C.3   403  THR403      0.1794
    101  OG1      -37.6560    3.4760  -25.8810 O.3   403  THR403     -0.2208
    102  CG2      -36.8330    1.4580  -24.9280 C.3   403  THR403      0.0378
@<TRIPOS>BOND
     1    15    16    1
     2    16    17    1
     3    16    19    1
     4    95    93    1
     5    17    18    2
     6    93    92    1
     7    58    56   ar
     8    22    20    1
     9    19    20    1
    10    88    89    1
    11    20    21    1
    12    23    24    1
    13    56    57   ar
    14    56    55    1
    15    92    89    1
    16    92    94    1
    17    89    90    1
    18    25    24    1
    19    25    26    2
    20    55    54    1
    21     4     3    2
    22    24    27    1
    23    99    98    2
    24     3     2    1
    25     1     2    1
    26    54    51    1
    27    96    90   am
    28    96    97    1
    29    90    91    2
    30     2     5    1
    31    27    29    1
    32    27    28    1
    33   101   100    1
    34    98    97    1
    35    51    50    1
    36    51    52    1
    37    97   100    1
    38   100   102    1
    39    53    52    2
    40    38    39    1
    41     5     6    1
    42    52    59   am
    43    43    49    1
    44    43    44    1
    45    39    42    1
    46    39    40    1
    47     6     7   ar
    48     6     8   ar
    49    49    48    1
    50     7     9   ar
    51    44    47    1
    52    44    45    1
    53     8    11   ar
    54     8    10   ar
    55    11    13   ar
    56    48    47    1
    57     9    10   ar
    58    13    14   ar
    59    10    12   ar
    60    59    60    1
    61    14    12   ar
    62    46    45    2
    63    79    77    1
    64    40    41    2
    65    30    31    1
    66    60    61    1
    67    60    63    1
    68    34    31    1
    69    34    35    1
    70    77    78    1
    71    77    74    1
    72    64    63    1
    73    31    32    1
    74    61    62    2
    75    63    65    1
    76    37    35   am
    77    35    36    2
    78    73    74    1
    79    74    75    1
    80    67    66    1
    81    67    68    1
    82    67    70    1
    83    76    75    2
    84    33    32    2
    85    75    80   am
    86    68    69    2
    87    72    70    1
    88    70    71    1
    89    80    81    1
    90    82    81    1
    91    82    83    2
    92    81    84    1
    93    87    85    1
    94    84    85    1
    95    85    86    1
