@<TRIPOS>MOLECULE
tmp/3el7A00.pdb
 198 185 0 0 0
SMALL
GASTEIGER

@<TRIPOS>ATOM
      1  N         24.8350  -16.4400    7.6920 N.3    17  LEU17      -0.1231
      2  CA        24.7490  -15.8280    9.0160 C.3    17  LEU17       0.1693
      3  C         23.6030  -16.2920    9.9260 C.2    17  LEU17       0.2592
      4  O         23.7730  -16.3820   11.1470 O.2    17  LEU17      -0.2718
      5  CB        24.6970  -14.3090    8.8570 C.3    17  LEU17       0.0284
      6  CG        25.8700  -13.6800    8.1030 C.3    17  LEU17       0.0019
      7  CD1       25.5880  -12.2110    7.8690 C.3    17  LEU17       0.0001
      8  CD2       27.1580  -13.8600    8.8890 C.3    17  LEU17       0.0001
      9  N         22.4430  -16.5760    9.3380 N.am   18  GLY18      -0.1957
     10  CA        21.3000  -17.0190   10.1220 C.3    18  GLY18       0.1869
     11  C         20.2890  -17.8100    9.3110 C.2    18  GLY18       0.2309
     12  O         20.5340  -18.1380    8.1470 O.2    18  GLY18      -0.2863
     13  N         19.7070  -15.2050    6.1190 N.3    23  VAL23      -0.1245
     14  CA        20.6620  -14.1090    5.9980 C.3    23  VAL23       0.1561
     15  C         22.0890  -14.6090    5.7670 C.2    23  VAL23       0.2260
     16  O         22.5860  -15.4620    6.5050 O.2    23  VAL23      -0.2867
     17  CB        20.6300  -13.2120    7.2610 C.3    23  VAL23       0.0252
     18  CG1       21.5980  -12.0440    7.1040 C.3    23  VAL23       0.0019
     19  CG2       19.2140  -12.6970    7.4960 C.3    23  VAL23       0.0019
     20  N         25.4630   -7.7270    3.2530 N.3    35  ALA35      -0.1245
     21  CA        24.6360   -8.7250    3.9130 C.3    35  ALA35       0.1562
     22  C         23.5170   -9.0560    2.9400 C.2    35  ALA35       0.2260
     23  O         22.9020   -8.1540    2.3720 O.2    35  ALA35      -0.2867
     24  CB        24.0630   -8.1670    5.2120 C.3    35  ALA35       0.0290
     25  N         19.8870  -10.9620    2.4710 N.3    37  LYS37      -0.1245
     26  CA        18.7220  -11.6060    3.0560 C.3    37  LYS37       0.1561
     27  C         17.9420  -12.2180    1.8970 C.2    37  LYS37       0.2260
     28  O         17.5700  -11.5200    0.9490 O.2    37  LYS37      -0.2867
     29  CB        17.8440  -10.5930    3.7920 C.3    37  LYS37       0.0271
     30  CG        16.6450  -11.2220    4.4870 C.3    37  LYS37       0.0035
     31  CD        15.7580  -10.1780    5.1400 C.3    37  LYS37       0.0206
     32  CE        14.6220  -10.8280    5.9190 C.3    37  LYS37       0.1093
     33  NZ        13.7250   -9.8210    6.5580 N.3    37  LYS37      -0.1314
     34  N          9.5740   -4.5210    2.7470 N.3    51  GLU51      -0.1245
     35  CA        10.6900   -4.2020    3.6290 C.3    51  GLU51       0.1567
     36  C         11.7260   -3.3590    2.8960 C.2    51  GLU51       0.2260
     37  O         12.4300   -2.5490    3.5050 O.2    51  GLU51      -0.2867
     38  CB        11.3450   -5.4960    4.1170 C.3    51  GLU51       0.0388
     39  CG        12.4680   -5.2960    5.1130 C.3    51  GLU51       0.1160
     40  CD        13.1150   -6.6040    5.5210 C.2    51  GLU51       0.3649
     41  OE1       13.8000   -7.2130    4.6710 O.co2  51  GLU51      -0.2457
     42  OE2       12.9370   -7.0250    6.6870 O.co2  51  GLU51      -0.2457
     43  N         10.3090    0.4900    1.9550 N.3    54  VAL54      -0.1231
     44  CA        10.4820    1.4140    3.0730 C.3    54  VAL54       0.1692
     45  C         11.9260    1.8950    3.2150 C.2    54  VAL54       0.2591
     46  O         12.1680    3.0750    3.4830 O.2    54  VAL54      -0.2718
     47  CB        10.0450    0.7570    4.4110 C.3    54  VAL54       0.0266
     48  CG1       10.1580    1.7540    5.5530 C.3    54  VAL54       0.0020
     49  CG2        8.6160    0.2590    4.3020 C.3    54  VAL54       0.0020
     50  N         12.8800    0.9870    3.0280 N.am   55  MET55      -0.1979
     51  CA        14.2950    1.3280    3.1530 C.3    55  MET55       0.1605
     52  C         14.8210    2.2590    2.0650 C.2    55  MET55       0.2287
     53  O         15.9860    2.6530    2.0990 O.2    55  MET55      -0.2864
     54  CB        15.1500    0.0530    3.1950 C.3    55  MET55       0.0413
     55  CG        14.9340   -0.7980    4.4430 C.3    55  MET55       0.0598
     56  SD        16.1570   -2.1210    4.6850 S.3    55  MET55      -0.1393
     57  CE        15.2900   -3.5160    3.9800 C.3    55  MET55       0.0692
     58  N         14.0250    5.9690    3.7110 N.3    58  LEU58      -0.1245
     59  CA        14.6760    6.2850    4.9800 C.3    58  LEU58       0.1561
     60  C         16.1930    6.1450    4.8960 C.2    58  LEU58       0.2260
     61  O         16.7060    5.0310    4.8300 O.2    58  LEU58      -0.2867
     62  CB        14.1380    5.3580    6.0740 C.3    58  LEU58       0.0270
     63  CG        12.6450    5.4760    6.3940 C.3    58  LEU58       0.0019
     64  CD1       12.1730    4.2180    7.0990 C.3    58  LEU58       0.0001
     65  CD2       12.3860    6.7130    7.2410 C.3    58  LEU58       0.0001
     66  N         20.6190    3.9210   10.8200 N.3    63  LEU63      -0.1231
     67  CA        19.6570    3.0400   10.1910 C.3    63  LEU63       0.1693
     68  C         20.4250    2.1920    9.1820 C.2    63  LEU63       0.2591
     69  O         21.2480    2.7130    8.4310 O.2    63  LEU63      -0.2718
     70  CB        18.5810    3.8610    9.4770 C.3    63  LEU63       0.0284
     71  CG        17.2240    4.0750   10.1450 C.3    63  LEU63       0.0019
     72  CD1       17.3980    4.5760   11.5630 C.3    63  LEU63       0.0001
     73  CD2       16.4210    5.0640    9.3190 C.3    63  LEU63       0.0001
     74  N         20.1800    0.8890    9.1860 N.am   64  VAL64      -0.1980
     75  CA        20.8450   -0.0020    8.2500 C.3    64  VAL64       0.1595
     76  C         20.4310    0.4480    6.8480 C.2    64  VAL64       0.2287
     77  O         19.2370    0.5820    6.5610 O.2    64  VAL64      -0.2864
     78  CB        20.4080   -1.4590    8.4890 C.3    64  VAL64       0.0276
     79  CG1       21.0410   -2.3740    7.4650 C.3    64  VAL64       0.0022
     80  CG2       20.8020   -1.8820    9.8900 C.3    64  VAL64       0.0022
     81  N         17.6820   -9.0240   -0.8110 N.3    75  ILE75      -0.1245
     82  CA        17.6840   -7.6640   -0.2840 C.3    75  ILE75       0.1561
     83  C         19.1210   -7.4550    0.1800 C.2    75  ILE75       0.2260
     84  O         19.6010   -8.1680    1.0570 O.2    75  ILE75      -0.2867
     85  CB        16.7410   -7.4990    0.9280 C.3    75  ILE75       0.0252
     86  CG1       15.3100   -7.8310    0.5300 C.3    75  ILE75       0.0019
     87  CG2       16.7890   -6.0660    1.4340 C.3    75  ILE75       0.0019
     88  CD1       14.3360   -7.7560    1.6780 C.3    75  ILE75       0.0001
     89  N         22.0640   -4.9650    1.8040 N.3    77  THR77      -0.1203
     90  CA        22.2190   -3.7940    2.6620 C.3    77  THR77       0.1994
     91  C         23.6570   -3.7540    3.1330 C.2    77  THR77       0.2618
     92  O         24.4330   -4.6460    2.8200 O.2    77  THR77      -0.2717
     93  CB        21.3320   -3.8850    3.9200 C.3    77  THR77       0.1784
     94  OG1       21.8030   -4.9520    4.7460 O.3    77  THR77      -0.2211
     95  CG2       19.8970   -4.1700    3.5580 C.3    77  THR77       0.0376
     96  N         24.0130   -2.7180    3.8850 N.am   78  GLU78      -0.1965
     97  CA        25.3660   -2.6180    4.4260 C.3    78  GLU78       0.1733
     98  C         25.5550   -3.7670    5.4120 C.2    78  GLU78       0.2616
     99  O         24.5740   -4.2830    5.9510 O.2    78  GLU78      -0.2715
    100  CB        25.5690   -1.2860    5.1490 C.3    78  GLU78       0.0429
    101  CG        24.4650   -0.9040    6.1000 C.3    78  GLU78       0.1163
    102  CD        24.7840    0.3610    6.8710 C.2    78  GLU78       0.3649
    103  OE1       23.8360    1.0720    7.2410 O.co2  78  GLU78      -0.2457
    104  OE2       25.9750    0.6440    7.1210 O.co2  78  GLU78      -0.2457
    105  N         26.8070   -4.1660    5.6360 N.am   79  TYR79      -0.1960
    106  CA        27.1290   -5.2640    6.5500 C.3    79  TYR79       0.1771
    107  C         27.5660   -4.7690    7.9340 C.2    79  TYR79       0.2619
    108  O         28.4750   -3.9470    8.0470 O.2    79  TYR79      -0.2715
    109  CB        28.2410   -6.1220    5.9280 C.3    79  TYR79       0.0574
    110  CG        28.7740   -7.2470    6.7950 C.ar   79  TYR79      -0.0198
    111  CD1       28.0230   -8.4070    7.0110 C.ar   79  TYR79      -0.0009
    112  CD2       30.0380   -7.1530    7.3860 C.ar   79  TYR79      -0.0009
    113  CE1       28.5150   -9.4420    7.7900 C.ar   79  TYR79       0.0417
    114  CE2       30.5400   -8.1730    8.1630 C.ar   79  TYR79       0.0417
    115  CZ        29.7750   -9.3140    8.3600 C.ar   79  TYR79       0.1957
    116  OH        30.2780  -10.3380    9.1320 O.3    79  TYR79      -0.2866
    117  N         26.9030   -5.2680    8.9780 N.am   80  MET80      -0.1977
    118  CA        27.2240   -4.9170   10.3720 C.3    80  MET80       0.1605
    119  C         28.0450   -6.0840   10.9180 C.2    80  MET80       0.2287
    120  O         27.5090   -7.1340   11.2660 O.2    80  MET80      -0.2864
    121  CB        25.9470   -4.7520   11.1880 C.3    80  MET80       0.0413
    122  CG        25.0050   -3.6960   10.6450 C.3    80  MET80       0.0598
    123  SD        25.6950   -2.0300   10.7360 S.3    80  MET80      -0.1393
    124  CE        26.1400   -1.7720    9.0420 C.3    80  MET80       0.0692
    125  N         26.8730   -8.6410   14.2710 N.3    83  GLY83      -0.1210
    126  CA        25.5360   -9.1720   14.4990 C.3    83  GLY83       0.1956
    127  C         24.6010   -8.2480   15.2630 C.2    83  GLY83       0.2612
    128  O         24.8470   -7.0530   15.3520 O.2    83  GLY83      -0.2717
    129  N         23.5270   -8.7980   15.8180 N.am   84  SER84      -0.1952
    130  CA        22.5580   -8.0060   16.5790 C.3    84  SER84       0.1924
    131  C         23.0480   -7.5320   17.9660 C.2    84  SER84       0.2314
    132  O         24.1180   -7.9210   18.4360 O.2    84  SER84      -0.2863
    133  CB        21.2610   -8.8050   16.7290 C.3    84  SER84       0.2116
    134  OG        21.5310  -10.1560   17.0490 O.3    84  SER84      -0.2180
    135  N         22.9240  -10.7160   20.4550 N.3    87  ASP87      -0.1239
    136  CA        24.0660  -11.6230   20.3910 C.3    87  ASP87       0.1674
    137  C         25.2930  -10.9590   21.0010 C.2    87  ASP87       0.2266
    138  O         26.0510  -11.5820   21.7220 O.2    87  ASP87      -0.2867
    139  CB        24.3830  -12.0070   18.9490 C.3    87  ASP87       0.1410
    140  CG        23.1910  -12.5790   18.2250 C.2    87  ASP87       0.3668
    141  OD1       22.3810  -13.2610   18.8920 O.co2  87  ASP87      -0.2456
    142  OD2       23.0720  -12.3580   16.9910 O.co2  87  ASP87      -0.2456
    143  N         13.3230    8.6040   12.4310 N.3   116  VAL116     -0.1245
    144  CA        12.0590    7.9390   12.1310 C.3   116  VAL116      0.1561
    145  C         10.9340    8.8540   12.5970 C.2   116  VAL116      0.2260
    146  O         10.0100    9.1580   11.8590 O.2   116  VAL116     -0.2867
    147  CB        11.9330    6.5820   12.8820 C.3   116  VAL116      0.0252
    148  CG1       10.5550    5.9790   12.6560 C.3   116  VAL116      0.0019
    149  CG2       13.0170    5.6110   12.4280 C.3   116  VAL116      0.0019
    150  N          8.3350    2.0530   13.5390 N.3   123  HIS123     -0.1241
    151  CA         9.0580    0.8030   13.3030 C.3   123  HIS123      0.1621
    152  C          8.1980   -0.4060   13.6850 C.2   123  HIS123      0.2264
    153  O          8.1620   -1.4090   12.9610 O.2   123  HIS123     -0.2867
    154  CB        10.3590    0.8220   14.1060 C.3   123  HIS123      0.0745
    155  CG        11.2180   -0.3900   13.9240 C.ar  123  HIS123      0.0817
    156  ND1       10.7710   -1.6690   14.1730 N.ar  123  HIS123     -0.2268
    157  CD2       12.5190   -0.5100   13.5700 C.ar  123  HIS123      0.1154
    158  CE1       11.7590   -2.5240   13.9820 C.ar  123  HIS123      0.1986
    159  NE2       12.8320   -1.8460   13.6170 N.ar  123  HIS123     -0.2212
    160  N         21.2920   -3.8440   14.9100 N.3   132  LEU132     -0.1245
    161  CA        22.6000   -4.3760   14.5220 C.3   132  LEU132      0.1561
    162  C         23.7840   -3.5770   15.0630 C.2   132  LEU132      0.2260
    163  O         23.6810   -2.3830   15.3380 O.2   132  LEU132     -0.2867
    164  CB        22.7110   -4.4670   12.9920 C.3   132  LEU132      0.0270
    165  CG        22.1520   -5.7080   12.2920 C.3   132  LEU132      0.0019
    166  CD1       22.9810   -6.9510   12.6510 C.3   132  LEU132      0.0001
    167  CD2       20.7010   -5.8970   12.6920 C.3   132  LEU132      0.0001
    168  N         19.3820    0.7550   13.5700 N.3   141  VAL141     -0.1231
    169  CA        18.0660    0.1440   13.5940 C.3   141  VAL141      0.1692
    170  C         17.9520   -0.7090   12.3400 C.2   141  VAL141      0.2592
    171  O         18.4730   -0.3360   11.2900 O.2   141  VAL141     -0.2718
    172  CB        16.9720    1.2170   13.5810 C.3   141  VAL141      0.0266
    173  CG1       15.6040    0.5710   13.6480 C.3   141  VAL141      0.0020
    174  CG2       17.1880    2.1840   14.7450 C.3   141  VAL141      0.0020
    175  N         17.2800   -1.8520   12.4510 N.am  142  ALA142     -0.1966
    176  CA        17.1220   -2.7630   11.3210 C.3   142  ALA142      0.1728
    177  C         15.7750   -3.4730   11.3370 C.2   142  ALA142      0.2616
    178  O         14.7770   -2.9140   11.7900 O.2   142  ALA142     -0.2715
    179  CB        18.2570   -3.7960   11.3180 C.3   142  ALA142      0.0334
    180  N         15.7640   -4.7120   10.8470 N.am  143  ASP143     -0.1957
    181  CA        14.5550   -5.5300   10.7730 C.3   143  ASP143      0.1840
    182  C         14.8410   -6.8570   10.0520 C.2   143  ASP143      0.2622
    183  O         15.7750   -6.9580    9.2530 O.2   143  ASP143     -0.2715
    184  CB        13.4680   -4.7840    9.9870 C.3   143  ASP143      0.1450
    185  CG        12.4060   -4.1580   10.8720 C.2   143  ASP143      0.3671
    186  OD1       11.6810   -4.9040   11.5680 O.co2 143  ASP143     -0.2456
    187  OD2       12.2800   -2.9160   10.8550 O.co2 143  ASP143     -0.2456
    188  N         14.0330   -7.8710   10.3540 N.am  144  PHE144     -0.1974
    189  CA        14.1060   -9.1880    9.7070 C.3   144  PHE144      0.1639
    190  C         12.9930  -10.1290   10.1850 C.2   144  PHE144      0.2290
    191  O         13.1740  -10.9260   11.1110 O.2   144  PHE144     -0.2864
    192  CB        15.4980   -9.8620    9.8450 C.3   144  PHE144      0.0560
    193  CG        16.0500   -9.9080   11.2400 C.ar  144  PHE144     -0.0200
    194  CD1       16.7330   -8.8150   11.7700 C.ar  144  PHE144     -0.0042
    195  CD2       15.9590  -11.0750   11.9980 C.ar  144  PHE144     -0.0042
    196  CE1       17.3220   -8.8880   13.0280 C.ar  144  PHE144     -0.0003
    197  CE2       16.5450  -11.1540   13.2610 C.ar  144  PHE144     -0.0003
    198  CZ        17.2290  -10.0600   13.7730 C.ar  144  PHE144     -0.0000
@<TRIPOS>BOND
     1    81    82    1
     2    82    83    1
     3    82    85    1
     4    83    84    2
     5    86    85    1
     6    86    88    1
     7    85    87    1
     8    28    27    2
     9    89    90    1
    10    27    26    1
    11    43    44    1
    12    52    53    2
    13    52    51    1
    14    23    22    2
    15    25    26    1
    16    90    91    1
    17    90    93    1
    18    34    35    1
    19    92    91    2
    20    36    37    2
    21    36    35    1
    22    22    21    1
    23    50    51    1
    24    50    45   am
    25    26    29    1
    26    44    45    1
    27    44    47    1
    28    91    96   am
    29    51    54    1
    30    54    55    1
    31    45    46    2
    32    20    21    1
    33    95    93    1
    34    35    38    1
    35    58    59    1
    36    29    30    1
    37    96    97    1
    38    21    24    1
    39    93    94    1
    40    57    56    1
    41    38    39    1
    42    49    47    1
    43    47    48    1
    44    97   100    1
    45    97    98    1
    46    55    56    1
    47    30    31    1
    48    41    40   ar
    49    61    60    2
    50    60    59    1
    51    59    62    1
    52    39    40    1
    53    31    32    1
    54   100   101    1
    55    98   105   am
    56    98    99    2
    57    40    42   ar
    58   105   106    1
    59    15    14    1
    60    15    16    2
    61    32    33    1
    62   109   106    1
    63   109   110    1
    64    14    13    1
    65    14    17    1
    66    62    63    1
    67   101   102    1
    68    63    64    1
    69    63    65    1
    70   106   107    1
    71    77    76    2
    72   110   111   ar
    73   110   112   ar
    74    76    75    1
    75   102   104   ar
    76   102   103   ar
    77   111   113   ar
    78    18    17    1
    79    17    19    1
    80   112   114   ar
    81    79    78    1
    82     1     2    1
    83   113   115   ar
    84     7     6    1
    85   107   108    2
    86   107   117   am
    87     6     5    1
    88     6     8    1
    89    12    11    2
    90   114   115   ar
    91    75    78    1
    92    75    74    1
    93   115   116    1
    94    69    68    2
    95    78    80    1
    96     5     2    1
    97   117   118    1
    98     2     3    1
    99   124   123    1
   100    68    74   am
   101    68    67    1
   102   183   182    2
   103    11    10    1
   104    73    71    1
   105     9     3   am
   106     9    10    1
   107    70    71    1
   108    70    67    1
   109   189   192    1
   110   189   190    1
   111   189   188    1
   112   192   193    1
   113     3     4    2
   114   184   181    1
   115   184   185    1
   116   182   188   am
   117   182   181    1
   118    71    72    1
   119   190   191    2
   120    67    66    1
   121   118   119    1
   122   118   121    1
   123   122   123    1
   124   122   121    1
   125   181   180    1
   126   180   177   am
   127   187   185   ar
   128   185   186   ar
   129   119   120    2
   130   193   194   ar
   131   193   195   ar
   132   171   170    2
   133   179   176    1
   134   176   177    1
   135   176   175    1
   136   177   178    2
   137   194   196   ar
   138   146   145    2
   139   195   197   ar
   140   144   143    1
   141   144   145    1
   142   144   147    1
   143   165   166    1
   144   165   167    1
   145   165   164    1
   146   170   175   am
   147   170   169    1
   148   149   147    1
   149   148   147    1
   150   153   152    2
   151   164   161    1
   152   196   198   ar
   153   197   198   ar
   154   151   150    1
   155   151   152    1
   156   151   154    1
   157   168   169    1
   158   157   159   ar
   159   157   155   ar
   160   172   169    1
   161   172   173    1
   162   172   174    1
   163   159   158   ar
   164   155   154    1
   165   155   156   ar
   166   158   156   ar
   167   125   126    1
   168   126   127    1
   169   161   160    1
   170   161   162    1
   171   162   163    2
   172   127   128    2
   173   127   129   am
   174   129   130    1
   175   130   133    1
   176   130   131    1
   177   133   134    1
   178   142   140   ar
   179   131   132    2
   180   140   141   ar
   181   140   139    1
   182   139   136    1
   183   136   135    1
   184   136   137    1
   185   137   138    2
