@<TRIPOS>MOLECULE
tmp/3eldA00.pdb
 169 164 0 0 0
SMALL
GASTEIGER

@<TRIPOS>ATOM
      1  N        -19.4200    2.8570    3.8020 N.3    51  SER51      -0.1217
      2  CA       -19.1170    2.8520    5.2400 C.3    51  SER51       0.1889
      3  C        -17.8540    2.0640    5.5700 C.2    51  SER51       0.2288
      4  O        -17.4080    1.2090    4.7950 O.2    51  SER51      -0.2866
      5  CB       -20.2850    2.2870    6.0600 C.3    51  SER51       0.2089
      6  OG       -20.3620    0.8830    5.9020 O.3    51  SER51      -0.2183
      7  N        -17.7450   -0.1280    7.7070 N.3    53  GLY53      -0.1225
      8  CA       -18.2090   -1.4870    7.9950 C.3    53  GLY53       0.1811
      9  C        -17.8870   -2.5200    6.9260 C.2    53  GLY53       0.2280
     10  O        -17.7570   -3.7070    7.2290 O.2    53  GLY53      -0.2866
     11  N        -29.3630   -8.8600    4.1610 N.3    74  ASP74      -0.1239
     12  CA       -28.6560   -7.9440    5.0220 C.3    74  ASP74       0.1674
     13  C        -29.6240   -7.2190    5.9630 C.2    74  ASP74       0.2266
     14  O        -30.2780   -6.3240    5.5580 O.2    74  ASP74      -0.2867
     15  CB       -27.8500   -6.9540    4.1990 C.3    74  ASP74       0.1410
     16  CG       -26.8980   -6.1200    5.0210 C.2    74  ASP74       0.3668
     17  OD1      -26.7410   -6.3600    6.1880 O.co2  74  ASP74      -0.2456
     18  OD2      -26.2900   -5.2400    4.4560 O.co2  74  ASP74      -0.2456
     19  N        -30.4960   -4.8800    8.9520 N.3    76  GLY76      -0.1210
     20  CA       -29.8340   -3.7050    9.5310 C.3    76  GLY76       0.1956
     21  C        -28.7170   -3.2230    8.6060 C.2    76  GLY76       0.2612
     22  O        -27.5780   -3.0740    9.0300 O.2    76  GLY76      -0.2717
     23  N        -29.0470   -2.9810    7.3400 N.am   77  CYS77      -0.1956
     24  CA       -28.0380   -2.6210    6.3270 C.3    77  CYS77       0.1843
     25  C        -27.4850   -1.1930    6.4230 C.2    77  CYS77       0.2626
     26  O        -26.4120   -0.8950    5.8690 O.2    77  CYS77      -0.2714
     27  CB       -28.5770   -2.8940    4.9150 C.3    77  CYS77       0.0997
     28  SG       -29.9320   -1.8370    4.3990 S.3    77  CYS77      -0.0797
     29  N        -28.2130   -0.3160    7.1160 N.am   78  GLY78      -0.1940
     30  CA       -27.8300    1.0880    7.2400 C.3    78  GLY78       0.2014
     31  C        -27.5900    1.7140    5.8770 C.2    78  GLY78       0.2639
     32  O        -28.4350    1.6040    4.9740 O.2    78  GLY78      -0.2714
     33  N        -26.4200    2.3320    5.7280 N.am   79  ARG79      -0.1963
     34  CA       -25.9820    2.9530    4.4710 C.3    79  ARG79       0.1729
     35  C        -25.8400    1.9390    3.3340 C.2    79  ARG79       0.2617
     36  O        -26.0110    2.2900    2.1660 O.2    79  ARG79      -0.2715
     37  CB       -24.6420    3.6620    4.6620 C.3    79  ARG79       0.0348
     38  CG       -24.6790    4.9120    5.5220 C.3    79  ARG79       0.0492
     39  CD       -23.2810    5.4990    5.5520 C.3    79  ARG79       0.2205
     40  NE       -23.0600    6.4030    6.6690 N.pl3  79  ARG79      -0.0865
     41  CZ       -21.9240    7.0590    6.8870 C.cat  79  ARG79       0.5346
     42  NH1      -20.8930    6.9080    6.0630 N.pl3  79  ARG79       0.1354
     43  NH2      -21.8200    7.8680    7.9350 N.pl3  79  ARG79       0.1354
     44  N        -25.5030    0.6960    3.6870 N.am   80  GLY80      -0.1940
     45  CA       -25.4100   -0.4030    2.7280 C.3    80  GLY80       0.2014
     46  C        -24.0210   -0.9740    2.4930 C.2    80  GLY80       0.2639
     47  O        -23.8020   -1.6800    1.5080 O.2    80  GLY80      -0.2714
     48  N        -23.0850   -0.6840    3.3950 N.am   81  GLY81      -0.1939
     49  CA       -21.6970   -1.1430    3.2700 C.3    81  GLY81       0.2014
     50  C        -21.5120   -2.6420    3.0550 C.2    81  GLY81       0.2638
     51  O        -20.7200   -3.0630    2.1990 O.2    81  GLY81      -0.2714
     52  N        -22.2420   -3.4500    3.8210 N.am   82  TRP82      -0.1973
     53  CA       -22.2060   -4.9100    3.6520 C.3    82  TRP82       0.1640
     54  C        -22.9680   -5.3600    2.3990 C.2    82  TRP82       0.2290
     55  O        -22.5620   -6.3140    1.7320 O.2    82  TRP82      -0.2864
     56  CB       -22.7710   -5.6190    4.8890 C.3    82  TRP82       0.0576
     57  CG       -21.8700   -5.6440    6.1000 C.ar   82  TRP82       0.0006
     58  CD1      -20.8520   -4.7750    6.4080 C.ar   82  TRP82       0.0946
     59  CD2      -21.9530   -6.5630    7.1920 C.ar   82  TRP82       0.0152
     60  NE1      -20.2810   -5.1210    7.6130 N.ar   82  TRP82      -0.2442
     61  CE2      -20.9400   -6.2120    8.1180 C.ar   82  TRP82       0.0810
     62  CE3      -22.7760   -7.6640    7.4700 C.ar   82  TRP82       0.0012
     63  CZ2      -20.7220   -6.9290    9.3000 C.ar   82  TRP82       0.0191
     64  CZ3      -22.5630   -8.3790    8.6540 C.ar   82  TRP82       0.0001
     65  CH2      -21.5420   -8.0070    9.5520 C.ar   82  TRP82       0.0015
     66  N        -33.5000   -1.9500    6.5920 N.3    99  THR99      -0.1203
     67  CA       -33.0440   -1.0810    7.6860 C.3    99  THR99       0.1994
     68  C        -34.1430   -0.1300    8.1830 C.2    99  THR99       0.2617
     69  O        -35.1580    0.0850    7.5040 O.2    99  THR99      -0.2717
     70  CB       -31.7220   -0.3250    7.3220 C.3    99  THR99       0.1784
     71  OG1      -30.9770   -0.0320    8.5100 O.3    99  THR99      -0.2211
     72  CG2      -31.9840    0.9600    6.5300 C.3    99  THR99       0.0376
     73  N        -33.9540    0.4030    9.3830 N.am  100  LEU100     -0.1979
     74  CA       -34.9140    1.3670    9.9520 C.3   100  LEU100      0.1596
     75  C        -34.9310    2.6680    9.1560 C.2   100  LEU100      0.2287
     76  O        -35.9470    3.0180    8.5600 O.2   100  LEU100     -0.2864
     77  CB       -34.6350    1.6250   11.4330 C.3   100  LEU100      0.0297
     78  CG       -34.9870    0.4940   12.4060 C.3   100  LEU100      0.0022
     79  CD1      -34.4320    0.8000   13.7920 C.3   100  LEU100      0.0001
     80  CD2      -36.4910    0.2220   12.4770 C.3   100  LEU100      0.0001
     81  N        -31.1510    7.1650   12.5540 N.3   105  HIS105     -0.1226
     82  CA       -30.6440    5.9370   11.9390 C.3   105  HIS105      0.1752
     83  C        -30.2940    6.1970   10.4760 C.2   105  HIS105      0.2595
     84  O        -30.9930    6.9610    9.7970 O.2   105  HIS105     -0.2718
     85  CB       -31.6860    4.8180   12.0320 C.3   105  HIS105      0.0759
     86  CG       -31.9310    4.3350   13.4280 C.ar  105  HIS105      0.0818
     87  ND1      -31.2910    3.2360   13.9590 N.ar  105  HIS105     -0.2268
     88  CD2      -32.7480    4.8010   14.4030 C.ar  105  HIS105      0.1154
     89  CE1      -31.7000    3.0460   15.2000 C.ar  105  HIS105      0.1986
     90  NE2      -32.5860    3.9810   15.4940 N.ar  105  HIS105     -0.2212
     91  N        -29.2210    5.5620    9.9990 N.am  106  GLU106     -0.1979
     92  CA       -28.7390    5.7490    8.6280 C.3   106  GLU106      0.1602
     93  C        -29.6860    5.1400    7.5970 C.2   106  GLU106      0.2287
     94  O        -30.2340    4.0530    7.8010 O.2   106  GLU106     -0.2864
     95  CB       -27.3320    5.1600    8.4440 C.3   106  GLU106      0.0415
     96  CG       -26.2210    5.8130    9.2790 C.3   106  GLU106      0.1163
     97  CD       -25.6470    7.0950    8.6720 C.2   106  GLU106      0.3649
     98  OE1      -26.1010    7.5400    7.5970 O.co2 106  GLU106     -0.2457
     99  OE2      -24.7210    7.6680    9.2850 O.co2 106  GLU106     -0.2457
    100  N        -38.0120   -0.3980    7.8130 N.3   125  SER125     -0.1202
    101  CA       -38.2230   -1.8290    7.9870 C.3   125  SER125      0.2020
    102  C        -37.6120   -2.2930    9.2960 C.2   125  SER125      0.2619
    103  O        -36.4050   -2.2110    9.4800 O.2   125  SER125     -0.2717
    104  CB       -37.6250   -2.6130    6.8120 C.3   125  SER125      0.2103
    105  OG       -38.2980   -2.3220    5.5970 O.3   125  SER125     -0.2182
    106  N        -38.4510   -2.7660   10.2080 N.am  126  ASN126     -0.1960
    107  CA       -37.9660   -3.3130   11.4650 C.3   126  ASN126      0.1819
    108  C        -37.7440   -4.8170   11.3080 C.2   126  ASN126      0.2621
    109  O        -38.7080   -5.5860   11.2460 O.2   126  ASN126     -0.2715
    110  CB       -38.9610   -3.0200   12.5920 C.3   126  ASN126      0.1195
    111  CG       -38.4540   -3.4500   13.9690 C.2   126  ASN126      0.2630
    112  OD1      -37.4770   -4.2040   14.1090 O.2   126  ASN126     -0.2716
    113  ND2      -39.1280   -2.9640   14.9970 N.am  126  ASN126     -0.0877
    114  N        -36.4780   -5.2360   11.2620 N.am  127  VAL127     -0.1963
    115  CA       -36.1580   -6.6510   10.9980 C.3   127  VAL127      0.1727
    116  C        -36.5970   -7.6090   12.1120 C.2   127  VAL127      0.2616
    117  O        -36.7110   -8.8140   11.8820 O.2   127  VAL127     -0.2715
    118  CB       -34.6560   -6.8890   10.6570 C.3   127  VAL127      0.0290
    119  CG1      -34.2300   -6.0470    9.4380 C.3   127  VAL127      0.0023
    120  CG2      -33.7730   -6.6240   11.8660 C.3   127  VAL127      0.0023
    121  N        -36.8670   -7.0710   13.2990 N.am  128  PHE128     -0.1974
    122  CA       -37.3450   -7.8740   14.4370 C.3   128  PHE128      0.1639
    123  C        -38.8210   -8.2500   14.3160 C.2   128  PHE128      0.2290
    124  O        -39.2580   -9.2330   14.9120 O.2   128  PHE128     -0.2864
    125  CB       -37.1190   -7.1470   15.7740 C.3   128  PHE128      0.0560
    126  CG       -35.6730   -6.8390   16.0860 C.ar  128  PHE128     -0.0200
    127  CD1      -35.3480   -5.7400   16.8740 C.ar  128  PHE128     -0.0042
    128  CD2      -34.6430   -7.6350   15.5960 C.ar  128  PHE128     -0.0042
    129  CE1      -34.0160   -5.4470   17.1790 C.ar  128  PHE128     -0.0003
    130  CE2      -33.3140   -7.3510   15.8910 C.ar  128  PHE128     -0.0003
    131  CZ       -33.0000   -6.2550   16.6840 C.ar  128  PHE128     -0.0000
    132  N        -25.7250   -6.9930   11.0620 N.3   141  ASP141     -0.1225
    133  CA       -24.7240   -6.2170   11.7690 C.3   141  ASP141      0.1805
    134  C        -25.3760   -5.2930   12.8040 C.2   141  ASP141      0.2598
    135  O        -24.9090   -4.1800   13.0370 O.2   141  ASP141     -0.2718
    136  CB       -23.8840   -5.4300   10.7570 C.3   141  ASP141      0.1424
    137  CG       -22.6370   -4.8150   11.3720 C.2   141  ASP141      0.3668
    138  OD1      -22.2120   -3.7500   10.8820 O.co2 141  ASP141     -0.2456
    139  OD2      -22.0920   -5.3850   12.3370 O.co2 141  ASP141     -0.2456
    140  N        -26.4420   -5.7820   13.4370 N.am  142  ILE142     -0.1966
    141  CA       -27.2000   -5.0050   14.4170 C.3   142  ILE142      0.1727
    142  C        -26.6420   -5.1970   15.8270 C.2   142  ILE142      0.2617
    143  O        -26.3330   -6.3090   16.2390 O.2   142  ILE142     -0.2715
    144  CB       -28.7160   -5.3510   14.3970 C.3   142  ILE142      0.0290
    145  CG1      -29.3250   -5.0030   13.0330 C.3   142  ILE142      0.0022
    146  CG2      -29.4740   -4.6170   15.5460 C.3   142  ILE142      0.0023
    147  CD1      -30.6570   -5.6610   12.7660 C.3   142  ILE142      0.0001
    148  N        -26.5360   -4.1020   16.5680 N.am  143  GLY143     -0.1940
    149  CA       -26.0830   -4.1660   17.9480 C.3   143  GLY143      0.2014
    150  C        -25.5760   -2.8010   18.3280 C.2   143  GLY143      0.2638
    151  O        -24.4340   -2.4540   18.0260 O.2   143  GLY143     -0.2714
    152  N        -26.4500   -2.0230   18.9580 N.am  144  GLU144     -0.1977
    153  CA       -26.1620   -0.6530   19.3460 C.3   144  GLU144      0.1602
    154  C        -25.6160   -0.6090   20.7780 C.2   144  GLU144      0.2287
    155  O        -26.2630   -1.0880   21.7130 O.2   144  GLU144     -0.2864
    156  CB       -27.4360    0.1920   19.2220 C.3   144  GLU144      0.0415
    157  CG       -27.2630    1.6870   19.4610 C.3   144  GLU144      0.1163
    158  CD       -28.5970    2.4300   19.5610 C.2   144  GLU144      0.3649
    159  OE1      -29.6360    1.8950   19.1090 O.co2 144  GLU144     -0.2457
    160  OE2      -28.6060    3.5580   20.0910 O.co2 144  GLU144     -0.2457
    161  N        -23.6840  -10.0530   14.1070 N.3   177  LYS177     -0.1245
    162  CA       -23.0280   -9.3130   15.1860 C.3   177  LYS177      0.1561
    163  C        -23.4840   -9.7770   16.5680 C.2   177  LYS177      0.2260
    164  O        -24.6840   -9.9310   16.8210 O.2   177  LYS177     -0.2867
    165  CB       -23.2680   -7.8110   15.0560 C.3   177  LYS177      0.0271
    166  CG       -22.5250   -6.9720   16.0960 C.3   177  LYS177      0.0035
    167  CD       -22.8380   -5.4930   15.8900 C.3   177  LYS177      0.0206
    168  CE       -22.0940   -4.6160   16.8690 C.3   177  LYS177      0.1093
    169  NZ       -22.3540   -3.1760   16.5500 N.3   177  LYS177     -0.1314
@<TRIPOS>BOND
     1    47    46    2
     2    55    54    2
     3    36    35    2
     4    51    50    2
     5    54    53    1
     6    46    45    1
     7    46    48   am
     8    45    44    1
     9    50    49    1
    10    50    52   am
    11    49    48    1
    12    35    44   am
    13    35    34    1
    14    53    52    1
    15    53    56    1
    16     1     2    1
    17    11    12    1
    18    15    16    1
    19    15    12    1
    20    28    27    1
    21    18    16   ar
    22    34    37    1
    23    34    33    1
    24    37    38    1
    25     4     3    2
    26    56    57    1
    27    27    24    1
    28    32    31    2
    29    16    17   ar
    30    12    13    1
    31     2     3    1
    32     2     5    1
    33    38    39    1
    34    39    40    1
    35    14    13    2
    36   105   104    1
    37    33    31   am
    38    26    25    2
    39    31    30    1
    40     6     5    1
    41    42    41    1
    42    57    58   ar
    43    57    59   ar
    44    24    25    1
    45    24    23    1
    46    58    60   ar
    47    25    29   am
    48    72    70    1
    49    66    67    1
    50    40    41    2
    51   104   101    1
    52    41    43    1
    53     9    10    2
    54     9     8    1
    55    29    30    1
    56    59    62   ar
    57    59    61   ar
    58    70    67    1
    59    70    71    1
    60    23    21   am
    61    62    64   ar
    62    69    68    2
    63    98    97   ar
    64    93    94    2
    65    93    92    1
    66    60    61   ar
    67    67    68    1
    68     7     8    1
    69   100   101    1
    70   101   102    1
    71    61    63   ar
    72    68    73   am
    73    95    92    1
    74    95    96    1
    75    76    75    2
    76    21    22    2
    77    21    20    1
    78    92    91    1
    79    64    65   ar
    80    97    96    1
    81    97    99   ar
    82    19    20    1
    83    75    74    1
    84   102   103    2
    85   102   106   am
    86    63    65   ar
    87    73    74    1
    88   119   118    1
    89    84    83    2
    90    74    77    1
    91    91    83   am
    92   106   107    1
    93    83    82    1
    94   118   115    1
    95   118   120    1
    96   136   137    1
    97   136   133    1
    98   138   137   ar
    99   115   114    1
   100   115   116    1
   101   132   133    1
   102   109   108    2
   103   114   108   am
   104   108   107    1
   105   137   139   ar
   106    77    78    1
   107   107   110    1
   108   133   134    1
   109   117   116    2
   110    82    85    1
   111    82    81    1
   112    85    86    1
   113   116   121   am
   114    78    80    1
   115    78    79    1
   116   110   111    1
   117   147   145    1
   118   134   135    2
   119   134   140   am
   120   145   144    1
   121   121   122    1
   122    86    87   ar
   123    86    88   ar
   124   140   141    1
   125    87    89   ar
   126   111   112    2
   127   111   113   am
   128   161   162    1
   129   123   122    1
   130   123   124    2
   131   144   141    1
   132   144   146    1
   133    88    90   ar
   134   141   142    1
   135   122   125    1
   136   165   162    1
   137   165   166    1
   138   162   163    1
   139    89    90   ar
   140   128   130   ar
   141   128   126   ar
   142   125   126    1
   143   142   143    2
   144   142   148   am
   145   167   166    1
   146   167   168    1
   147   130   131   ar
   148   126   127   ar
   149   169   168    1
   150   163   164    2
   151   148   149    1
   152   131   129   ar
   153   127   129   ar
   154   149   150    1
   155   151   150    2
   156   150   152   am
   157   152   153    1
   158   159   158   ar
   159   156   153    1
   160   156   157    1
   161   153   154    1
   162   157   158    1
   163   158   160   ar
   164   154   155    2
