@<TRIPOS>MOLECULE
tmp/3eleA00.pdb
 143 135 0 0 0
SMALL
GASTEIGER

@<TRIPOS>ATOM
      1  N         63.5850   79.8760  -20.6450 N.3    41  GLY41      -0.1225
      2  CA        64.5250   80.9850  -20.5140 C.3    41  GLY41       0.1811
      3  C         65.9180   80.7780  -21.0820 C.2    41  GLY41       0.2280
      4  O         66.9030   80.9390  -20.3540 O.2    41  GLY41      -0.2866
      5  N         79.6090   75.7270  -14.8290 N.3   103  GLY103     -0.1210
      6  CA        78.3720   76.4980  -14.8010 C.3   103  GLY103      0.1956
      7  C         77.8700   76.7890  -13.4000 C.2   103  GLY103      0.2612
      8  O         78.4050   76.2800  -12.4020 O.2   103  GLY103     -0.2717
      9  N         76.8410   77.6410  -13.3520 N.am  104  ALA104     -0.1965
     10  CA        76.2030   78.0790  -12.1260 C.3   104  ALA104      0.1728
     11  C         75.5480   76.9520  -11.3350 C.2   104  ALA104      0.2616
     12  O         75.5570   77.0130  -10.1280 O.2   104  ALA104     -0.2715
     13  CB        75.1820   79.1790  -12.4130 C.3   104  ALA104      0.0334
     14  N         74.9710   75.9470  -12.0040 N.am  105  ALA105     -0.1977
     15  CA        74.3840   74.7790  -11.2990 C.3   105  ALA105      0.1597
     16  C         75.4470   74.0320  -10.5110 C.2   105  ALA105      0.2287
     17  O         75.1660   73.5150   -9.4420 O.2   105  ALA105     -0.2864
     18  CB        73.7050   73.8270  -12.2650 C.3   105  ALA105      0.0319
     19  N         76.4740   76.4460   -7.4260 N.3   108  LEU108     -0.1245
     20  CA        75.4410   76.3530   -6.3550 C.3   108  LEU108      0.1561
     21  C         75.5260   75.0250   -5.6190 C.2   108  LEU108      0.2260
     22  O         75.5590   75.0130   -4.3800 O.2   108  LEU108     -0.2867
     23  CB        74.0400   76.5520   -6.9420 C.3   108  LEU108      0.0270
     24  CG        73.7630   77.9670   -7.4780 C.3   108  LEU108      0.0019
     25  CD1       72.5160   77.9900   -8.3500 C.3   108  LEU108      0.0001
     26  CD2       73.6620   78.9790   -6.3390 C.3   108  LEU108      0.0001
     27  N         63.9910   80.7520   -8.4240 N.3   130  PHE130     -0.1241
     28  CA        64.3730   79.6760   -9.3430 C.3   130  PHE130      0.1605
     29  C         64.1210   78.3170   -8.6430 C.2   130  PHE130      0.2264
     30  O         64.8740   77.9590   -7.7230 O.2   130  PHE130     -0.2867
     31  CB        65.8510   79.8710   -9.6910 C.3   130  PHE130      0.0534
     32  CG        66.4060   78.9150  -10.7070 C.ar  130  PHE130     -0.0203
     33  CD1       65.7660   78.7090  -11.9300 C.ar  130  PHE130     -0.0042
     34  CD2       67.6570   78.3230  -10.4960 C.ar  130  PHE130     -0.0042
     35  CE1       66.3290   77.8480  -12.8880 C.ar  130  PHE130     -0.0003
     36  CE2       68.2260   77.4710  -11.4520 C.ar  130  PHE130     -0.0003
     37  CZ        67.5540   77.2260  -12.6430 C.ar  130  PHE130     -0.0000
     38  N         66.6800   75.5550   -7.0880 N.3   133  TYR133     -0.1241
     39  CA        67.3590   75.7000   -5.7790 C.3   133  TYR133      0.1605
     40  C         66.9610   74.5950   -4.8170 C.2   133  TYR133      0.2264
     41  O         67.8060   74.1140   -4.0940 O.2   133  TYR133     -0.2867
     42  CB        67.0770   77.0530   -5.0890 C.3   133  TYR133      0.0534
     43  CG        67.5730   78.2960   -5.8060 C.ar  133  TYR133     -0.0201
     44  CD1       68.7450   78.2910   -6.5870 C.ar  133  TYR133     -0.0009
     45  CD2       66.9310   79.5190   -5.6080 C.ar  133  TYR133     -0.0009
     46  CE1       69.1920   79.4470   -7.2110 C.ar  133  TYR133      0.0417
     47  CE2       67.3690   80.6710   -6.2020 C.ar  133  TYR133      0.0417
     48  CZ        68.4910   80.6380   -7.0160 C.ar  133  TYR133      0.1957
     49  OH        68.8960   81.7900   -7.5860 O.3   133  TYR133     -0.2866
     50  N         69.4500   86.2060   -5.8200 N.3   175  ASN175     -0.1240
     51  CA        69.5970   86.1380   -7.2720 C.3   175  ASN175      0.1653
     52  C         69.1850   87.4950   -7.7760 C.2   175  ASN175      0.2266
     53  O         67.9920   87.7750   -7.8600 O.2   175  ASN175     -0.2867
     54  CB        68.7250   84.9920   -7.7300 C.3   175  ASN175      0.1155
     55  CG        68.5980   84.8500   -9.2300 C.2   175  ASN175      0.2627
     56  OD1       67.5050   84.5630   -9.6900 O.2   175  ASN175     -0.2716
     57  ND2       69.6890   85.0220   -9.9930 N.am  175  ASN175     -0.0877
     58  N         65.6980   85.8350  -11.6320 N.3   179  ASN179     -0.1240
     59  CA        64.8260   84.9110  -12.3680 C.3   179  ASN179      0.1653
     60  C         63.8900   84.4190  -11.2330 C.2   179  ASN179      0.2266
     61  O         64.3740   83.7500  -10.3020 O.2   179  ASN179     -0.2867
     62  CB        65.6090   83.7440  -12.9670 C.3   179  ASN179      0.1155
     63  CG        64.7110   82.6840  -13.5980 C.2   179  ASN179      0.2627
     64  OD1       63.5440   82.9490  -13.9020 O.2   179  ASN179     -0.2716
     65  ND2       65.2610   81.4870  -13.8240 N.am  179  ASN179     -0.0877
     66  N         73.7280   84.2120   -6.4120 N.3   213  ASP213     -0.1239
     67  CA        73.5410   83.5560   -7.7120 C.3   213  ASP213      0.1674
     68  C         73.4970   84.6650   -8.7490 C.2   213  ASP213      0.2266
     69  O         72.4330   85.2340   -9.0080 O.2   213  ASP213     -0.2867
     70  CB        72.2340   82.7420   -7.6880 C.3   213  ASP213      0.1410
     71  CG        72.0530   81.8680   -8.8860 C.2   213  ASP213      0.3668
     72  OD1       73.0310   81.6220   -9.6080 O.co2 213  ASP213     -0.2456
     73  OD2       70.9230   81.3850   -9.0740 O.co2 213  ASP213     -0.2456
     74  N         74.3350   84.9270  -12.3860 N.3   215  PRO215     -0.2102
     75  CA        74.5570   84.7920  -13.8420 C.3   215  PRO215      0.1504
     76  C         73.9670   85.9120  -14.7210 C.2   215  PRO215      0.2575
     77  O         74.4500   86.0760  -15.8540 O.2   215  PRO215     -0.2718
     78  CB        73.9510   83.4180  -14.1750 C.3   215  PRO215      0.0282
     79  CG        72.8460   83.2410  -13.1820 C.3   215  PRO215      0.0208
     80  CD        73.3930   83.8990  -11.8950 C.3   215  PRO215      0.0893
     81  N         72.9750   86.6700  -14.2160 N.am  216  TYR216     -0.1977
     82  CA        72.3640   87.8140  -14.9470 C.3   216  TYR216      0.1639
     83  C         73.0140   89.1700  -14.6260 C.2   216  TYR216      0.2290
     84  O         72.5020   90.2030  -15.0860 O.2   216  TYR216     -0.2864
     85  CB        70.8450   87.9170  -14.6540 C.3   216  TYR216      0.0560
     86  CG        70.1000   86.6610  -15.0010 C.ar  216  TYR216     -0.0198
     87  CD1       69.8080   86.3720  -16.3130 C.ar  216  TYR216     -0.0009
     88  CD2       69.7260   85.7350  -14.0210 C.ar  216  TYR216     -0.0009
     89  CE1       69.1470   85.2110  -16.6640 C.ar  216  TYR216      0.0417
     90  CE2       69.0580   84.5470  -14.3720 C.ar  216  TYR216      0.0417
     91  CZ        68.7890   84.3010  -15.7100 C.ar  216  TYR216      0.1957
     92  OH        68.1540   83.1740  -16.1500 O.3   216  TYR216     -0.2866
     93  N         78.4240   82.3660  -13.8170 N.3   241  SER241     -0.1217
     94  CA        78.6830   81.6090  -15.0250 C.3   241  SER241      0.1889
     95  C         78.5980   82.5380  -16.2290 C.2   241  SER241      0.2288
     96  O         78.0260   83.6240  -16.1430 O.2   241  SER241     -0.2866
     97  CB        77.7310   80.4290  -15.1760 C.3   241  SER241      0.2089
     98  OG        76.4650   80.8180  -15.6720 O.3   241  SER241     -0.2183
     99  N         76.9910   81.7270  -18.9700 N.3   243  SER243     -0.1202
    100  CA        75.8320   81.2450  -19.7140 C.3   243  SER243      0.2020
    101  C         75.0120   82.3790  -20.3400 C.2   243  SER243      0.2618
    102  O         74.5480   82.2360  -21.4660 O.2   243  SER243     -0.2717
    103  CB        74.9450   80.3550  -18.8300 C.3   243  SER243      0.2103
    104  OG        75.6780   79.2290  -18.3190 O.3   243  SER243     -0.2182
    105  N         74.8660   83.4970  -19.6300 N.am  244  LYS244     -0.1979
    106  CA        74.0930   84.6610  -20.1230 C.3   244  LYS244      0.1596
    107  C         74.9400   85.7940  -20.6820 C.2   244  LYS244      0.2287
    108  O         74.5900   86.3910  -21.7200 O.2   244  LYS244     -0.2864
    109  CB        73.1810   85.2020  -19.0200 C.3   244  LYS244      0.0298
    110  CG        71.9430   84.3670  -18.7790 C.3   244  LYS244      0.0038
    111  CD        72.1680   83.1700  -17.8960 C.3   244  LYS244      0.0206
    112  CE        71.0350   82.1620  -18.0010 C.3   244  LYS244      0.1093
    113  NZ        71.3240   80.9810  -17.1530 N.3   244  LYS244     -0.1314
    114  N         75.5070   78.8640  -22.5570 N.3   249  PRO249     -0.2116
    115  CA        74.8990   77.9910  -21.5390 C.3   249  PRO249      0.1372
    116  C         75.2360   76.5020  -21.6450 C.2   249  PRO249      0.2244
    117  O         75.3280   75.8300  -20.6190 O.2   249  PRO249     -0.2868
    118  CB        73.3950   78.2240  -21.7210 C.3   249  PRO249      0.0268
    119  CG        73.2320   78.6390  -23.0570 C.3   249  PRO249      0.0207
    120  CD        74.4510   79.4460  -23.4070 C.3   249  PRO249      0.0892
    121  N         79.2150   75.1950  -20.1860 N.3   252  ARG252     -0.1245
    122  CA        79.4390   74.8380  -18.7740 C.3   252  ARG252      0.1563
    123  C         80.7280   75.4420  -18.2120 C.2   252  ARG252      0.2260
    124  O         81.7210   74.7480  -18.0090 O.2   252  ARG252     -0.2867
    125  CB        79.4040   73.2880  -18.5810 C.3   252  ARG252      0.0307
    126  CG        78.3140   72.5310  -19.3520 C.3   252  ARG252      0.0489
    127  CD        76.9520   73.1740  -19.2250 C.3   252  ARG252      0.2205
    128  NE        76.4850   73.2300  -17.8510 N.pl3 252  ARG252     -0.0865
    129  CZ        75.8080   74.2190  -17.2650 C.cat 252  ARG252      0.5346
    130  NH1       75.5730   75.3730  -17.8580 N.pl3 252  ARG252      0.1354
    131  NH2       75.4410   74.0690  -15.9960 N.pl3 252  ARG252      0.1354
    132  N         63.1630   88.1440  -17.9970 N.3   330  TYR330     -0.1241
    133  CA        61.8580   87.6360  -17.6100 C.3   330  TYR330      0.1605
    134  C         60.9840   88.8010  -17.1440 C.2   330  TYR330      0.2264
    135  O         61.4480   89.6480  -16.3650 O.2   330  TYR330     -0.2867
    136  CB        62.0280   86.6470  -16.4720 C.3   330  TYR330      0.0534
    137  CG        63.0510   85.5870  -16.7390 C.ar  330  TYR330     -0.0201
    138  CD1       62.7820   84.5360  -17.6140 C.ar  330  TYR330     -0.0009
    139  CD2       64.3150   85.6500  -16.1490 C.ar  330  TYR330     -0.0009
    140  CE1       63.7430   83.5540  -17.8810 C.ar  330  TYR330      0.0417
    141  CE2       65.2710   84.6880  -16.4050 C.ar  330  TYR330      0.0417
    142  CZ        64.9830   83.6360  -17.2740 C.ar  330  TYR330      0.1957
    143  OH        65.9220   82.6740  -17.5180 O.3   330  TYR330     -0.2866
@<TRIPOS>BOND
     1   120   119    1
     2   120   114    1
     3   119   118    1
     4   114   115    1
     5   118   115    1
     6   108   107    2
     7   116   115    1
     8   116   117    2
     9   102   101    2
    10     3     2    1
    11     3     4    2
    12   107   106    1
    13     1     2    1
    14   101   100    1
    15   101   105   am
    16   121   122    1
    17   106   105    1
    18   106   109    1
    19   100    99    1
    20   100   103    1
    21   126   127    1
    22   126   125    1
    23   127   128    1
    24   109   110    1
    25   103   104    1
    26   110   111    1
    27   122   125    1
    28   122   123    1
    29   123   124    2
    30   112   111    1
    31   112   113    1
    32   132   133    1
    33   140   138   ar
    34   140   142   ar
    35   130   129    1
    36   128   129    2
    37   138   137   ar
    38   133   134    1
    39   133   136    1
    40   143   142    1
    41   142   141   ar
    42   129   131    1
    43   134   135    2
    44   137   136    1
    45   137   139   ar
    46    89    87   ar
    47    89    91   ar
    48   141   139   ar
    49    87    86   ar
    50    95    96    2
    51    95    94    1
    52    92    91    1
    53    77    76    2
    54    91    90   ar
    55    98    97    1
    56    97    94    1
    57    84    83    2
    58    94    93    1
    59    86    85    1
    60    86    88   ar
    61    82    85    1
    62    82    83    1
    63    82    81    1
    64     5     6    1
    65     6     7    1
    66    76    81   am
    67    76    75    1
    68    90    88   ar
    69    78    75    1
    70    78    79    1
    71    64    63    2
    72    75    74    1
    73    65    63   am
    74    63    62    1
    75     7     9   am
    76     7     8    2
    77     9    10    1
    78    79    80    1
    79    62    59    1
    80    35    37   ar
    81    35    33   ar
    82    37    36   ar
    83    13    10    1
    84    74    80    1
    85    59    58    1
    86    59    60    1
    87    18    15    1
    88    10    11    1
    89    14    11   am
    90    14    15    1
    91    33    32   ar
    92    36    34   ar
    93    11    12    2
    94    15    16    1
    95    60    61    2
    96    32    34   ar
    97    32    31    1
    98    16    17    2
    99    57    55   am
   100    31    28    1
   101    56    55    2
   102    72    71   ar
   103    28    29    1
   104    28    27    1
   105    55    54    1
   106    73    71   ar
   107    69    68    2
   108    71    70    1
   109    68    67    1
   110    29    30    2
   111    25    24    1
   112    53    52    2
   113    52    51    1
   114    54    51    1
   115    67    70    1
   116    67    66    1
   117    49    48    1
   118    24    23    1
   119    24    26    1
   120    19    20    1
   121    51    50    1
   122    46    48   ar
   123    46    44   ar
   124    38    39    1
   125    48    47   ar
   126    23    20    1
   127    44    43   ar
   128    20    21    1
   129    47    45   ar
   130    43    45   ar
   131    43    42    1
   132    39    42    1
   133    39    40    1
   134    21    22    2
   135    40    41    2
