@<TRIPOS>MOLECULE
tmp/3elfA00.pdb
 120 115 0 0 0
SMALL
GASTEIGER

@<TRIPOS>ATOM
      1  N          3.8560   45.9710   24.3030 N.3    26  ASN26      -0.1240
      2  CA         4.6900   47.1540   24.4470 C.3    26  ASN26       0.1653
      3  C          3.8970   48.4080   24.1340 C.2    26  ASN26       0.2266
      4  O          3.2190   48.4950   23.0950 O.2    26  ASN26      -0.2867
      5  CB         5.9250   47.0890   23.5560 C.3    26  ASN26       0.1155
      6  CG         6.9640   46.1350   24.0810 C.2    26  ASN26       0.2627
      7  OD1        6.8770   44.9300   23.8650 O.2    26  ASN26      -0.2716
      8  ND2        7.9590   46.6680   24.7880 N.am   26  ASN26      -0.0877
      9  N          9.5960   49.2910   27.2570 N.3    52  SER52      -0.1202
     10  CA        11.0170   49.0920   27.0150 C.3    52  SER52       0.2020
     11  C         11.8040   50.3160   27.4850 C.2    52  SER52       0.2619
     12  O         11.2170   51.3540   27.7960 O.2    52  SER52      -0.2717
     13  CB        11.2540   48.8550   25.5290 C.3    52  SER52       0.2103
     14  OG        10.9330   50.0330   24.8160 O.3    52  SER52      -0.2182
     15  N         13.1260   50.2020   27.5300 N.am   53  THR53      -0.1938
     16  CA        13.9550   51.3570   27.8560 C.3    53  THR53       0.2028
     17  C         13.7050   52.5050   26.8660 C.2    53  THR53       0.2643
     18  O         13.5730   53.6630   27.2730 O.2    53  THR53      -0.2714
     19  CB        15.4570   51.0080   27.8890 C.3    53  THR53       0.1808
     20  OG1       15.8340   50.4100   26.6450 O.3    53  THR53      -0.2208
     21  CG2       15.7800   50.0380   29.0320 C.3    53  THR53       0.0379
     22  N         13.6290   52.1830   25.5740 N.am   54  GLY54      -0.1939
     23  CA        13.3490   53.1900   24.5440 C.3    54  GLY54       0.2014
     24  C         11.9290   53.7220   24.6170 C.2    54  GLY54       0.2639
     25  O         11.6850   54.9000   24.3570 O.2    54  GLY54      -0.2714
     26  N         10.9790   52.8570   24.9520 N.am   55  GLY55      -0.1954
     27  CA         9.5990   53.2930   25.1240 C.3    55  GLY55       0.1869
     28  C          9.4680   54.2630   26.2830 C.2    55  GLY55       0.2309
     29  O          8.7690   55.2730   26.1840 O.2    55  GLY55      -0.2863
     30  N         10.5070   46.0820   30.1670 N.3    94  ASP94      -0.1225
     31  CA        11.1220   45.1520   29.2250 C.3    94  ASP94       0.1805
     32  C         12.6630   45.2670   29.2630 C.2    94  ASP94       0.2597
     33  O         13.2170   46.0300   30.0680 O.2    94  ASP94      -0.2718
     34  CB        10.5510   45.4470   27.8270 C.3    94  ASP94       0.1424
     35  CG        10.6170   44.2650   26.8770 C.2    94  ASP94       0.3668
     36  OD1       11.0550   43.1600   27.2620 O.co2  94  ASP94      -0.2456
     37  OD2       10.2100   44.4760   25.7100 O.co2  94  ASP94      -0.2456
     38  N         13.3390   44.5010   28.4010 N.am   95  HIS95      -0.1975
     39  CA        14.8140   44.3610   28.3590 C.3    95  HIS95       0.1656
     40  C         15.6320   45.4510   29.0490 C.2    95  HIS95       0.2291
     41  O         15.7300   46.5720   28.5540 O.2    95  HIS95      -0.2864
     42  CB        15.3180   44.2830   26.9100 C.3    95  HIS95       0.0771
     43  CG        14.7280   43.1650   26.1080 C.ar   95  HIS95       0.0820
     44  ND1       15.2770   41.9010   26.0650 N.ar   95  HIS95      -0.2267
     45  CD2       13.6440   43.1330   25.2990 C.ar   95  HIS95       0.1154
     46  CE1       14.5530   41.1380   25.2640 C.ar   95  HIS95       0.1986
     47  NE2       13.5590   41.8640   24.7830 N.ar   95  HIS95      -0.2212
     48  N         12.6940   38.9410   17.3320 N.3   198  HIS198     -0.1226
     49  CA        11.9850   40.2200   17.3930 C.3   198  HIS198      0.1752
     50  C         11.7810   40.7400   15.9740 C.2   198  HIS198      0.2596
     51  O         12.7170   40.7140   15.1690 O.2   198  HIS198     -0.2718
     52  CB        12.8090   41.2580   18.1520 C.3   198  HIS198      0.0759
     53  CG        12.9480   40.9940   19.6190 C.ar  198  HIS198      0.0818
     54  ND1       14.1740   40.8830   20.2340 N.ar  198  HIS198     -0.2268
     55  CD2       12.0230   40.8570   20.5950 C.ar  198  HIS198      0.1154
     56  CE1       13.9980   40.6780   21.5280 C.ar  198  HIS198      0.1986
     57  NE2       12.7020   40.6730   21.7750 N.ar  198  HIS198     -0.2212
     58  N         10.5850   41.2450   15.6900 N.am  199  GLY199     -0.1957
     59  CA        10.2680   41.7850   14.3720 C.3   199  GLY199      0.1869
     60  C          9.3100   40.9030   13.5980 C.2   199  GLY199      0.2309
     61  O          8.9330   39.8200   14.0590 O.2   199  GLY199     -0.2863
     62  N          9.3970   35.9730   23.7750 N.3   238  HIS238     -0.1226
     63  CA         9.7370   37.2300   23.1180 C.3   238  HIS238      0.1752
     64  C          9.6140   37.0810   21.6130 C.2   238  HIS238      0.2596
     65  O          9.7960   35.9960   21.0680 O.2   238  HIS238     -0.2718
     66  CB        11.1650   37.6450   23.4620 C.3   238  HIS238      0.0759
     67  CG        11.2950   38.2640   24.8150 C.ar  238  HIS238      0.0818
     68  ND1       11.5910   39.5990   24.9970 N.ar  238  HIS238     -0.2268
     69  CD2       11.1470   37.7330   26.0530 C.ar  238  HIS238      0.1154
     70  CE1       11.6250   39.8590   26.2940 C.ar  238  HIS238      0.1986
     71  NE2       11.3540   38.7470   26.9560 N.ar  238  HIS238     -0.2212
     72  N          9.3290   38.1780   20.9270 N.am  239  GLY239     -0.1957
     73  CA         9.2380   38.1260   19.4810 C.3   239  GLY239      0.1869
     74  C          7.9550   37.4910   18.9770 C.2   239  GLY239      0.2309
     75  O          7.9520   36.8640   17.9200 O.2   239  GLY239     -0.2863
     76  N          5.2010   38.7120   17.6130 N.3   241  SER241     -0.1217
     77  CA         4.5780   39.2010   16.3800 C.3   241  SER241      0.1889
     78  C          4.9720   38.3470   15.1900 C.2   241  SER241      0.2288
     79  O          6.1200   37.9090   15.0880 O.2   241  SER241     -0.2866
     80  CB         4.9720   40.6450   16.0980 C.3   241  SER241      0.2089
     81  OG         4.5190   41.5190   17.1180 O.3   241  SER241     -0.2183
     82  N          5.2230   38.3180   24.3960 N.3   260  ASN260     -0.1225
     83  CA         5.4510   39.7240   24.1300 C.3   260  ASN260      0.1785
     84  C          5.0900   40.0450   22.6910 C.2   260  ASN260      0.2597
     85  O          5.4770   39.3170   21.7700 O.2   260  ASN260     -0.2718
     86  CB         6.9240   40.0860   24.3150 C.3   260  ASN260      0.1169
     87  CG         7.4170   39.9910   25.7630 C.2   260  ASN260      0.2627
     88  OD1        8.5440   40.4100   26.0550 O.2   260  ASN260     -0.2716
     89  ND2        6.6020   39.4620   26.6550 N.am  260  ASN260     -0.0877
     90  N          4.3420   41.1250   22.4880 N.am  261  VAL261     -0.1966
     91  CA         4.0190   41.5850   21.1360 C.3   261  VAL261      0.1727
     92  C          4.1510   43.0990   21.0370 C.2   261  VAL261      0.2616
     93  O          3.5480   43.8510   21.8140 O.2   261  VAL261     -0.2715
     94  CB         2.6240   41.0950   20.6520 C.3   261  VAL261      0.0290
     95  CG1        1.5950   41.2330   21.7370 C.3   261  VAL261      0.0023
     96  CG2        2.1790   41.8230   19.3840 C.3   261  VAL261      0.0023
     97  N          4.9620   43.5290   20.0790 N.am  262  ASP262     -0.1957
     98  CA         5.1830   44.9500   19.8220 C.3   262  ASP262      0.1840
     99  C          4.9700   45.2540   18.3490 C.2   262  ASP262      0.2622
    100  O          4.1270   46.0710   17.9970 O.2   262  ASP262     -0.2715
    101  CB         6.5860   45.3770   20.2670 C.3   262  ASP262      0.1450
    102  CG         6.7430   46.8980   20.4010 C.2   262  ASP262      0.3671
    103  OD1        5.7850   47.6500   20.1170 O.co2 262  ASP262     -0.2456
    104  OD2        7.8370   47.3360   20.8280 O.co2 262  ASP262     -0.2456
    105  N          5.7130   44.5800   17.4800 N.am  263  THR263     -0.1951
    106  CA         5.6980   44.9390   16.0680 C.3   263  THR263      0.1897
    107  C          4.2930   44.8820   15.4460 C.2   263  THR263      0.2313
    108  O          3.8900   45.7970   14.7190 O.2   263  THR263     -0.2863
    109  CB         6.7060   44.0760   15.2900 C.3   263  THR263      0.1794
    110  OG1        8.0050   44.2310   15.8720 O.3   263  THR263     -0.2208
    111  CG2        6.7890   44.5220   13.8480 C.3   263  THR263      0.0378
    112  N          2.2420   47.7450   16.6870 N.3   266  GLN266     -0.1245
    113  CA         2.7340   48.9450   16.0000 C.3   266  GLN266      0.1566
    114  C          2.0990   49.0910   14.6220 C.2   266  GLN266      0.2260
    115  O          1.6020   50.1740   14.2600 O.2   266  GLN266     -0.2867
    116  CB         4.2500   48.9240   15.8600 C.3   266  GLN266      0.0367
    117  CG         4.9920   49.0960   17.1900 C.3   266  GLN266      0.0905
    118  CD         6.5040   49.0380   17.0480 C.2   266  GLN266      0.2608
    119  OE1        7.2430   49.6310   17.8440 O.2   266  GLN266     -0.2717
    120  NE2        6.9770   48.3310   16.0380 N.am  266  GLN266     -0.0878
@<TRIPOS>BOND
     1    60    61    2
     2    60    59    1
     3   111   109    1
     4   115   114    2
     5    59    58    1
     6   114   113    1
     7   108   107    2
     8    79    78    2
     9    51    50    2
    10    78    77    1
    11   109   110    1
    12   109   106    1
    13   107   106    1
    14    58    50   am
    15   116   113    1
    16   116   117    1
    17    50    49    1
    18   113   112    1
    19   120   118   am
    20   106   105    1
    21    80    77    1
    22    80    81    1
    23    77    76    1
    24   118   117    1
    25   118   119    2
    26    48    49    1
    27    49    52    1
    28   105    99   am
    29    75    74    2
    30   100    99    2
    31    52    53    1
    32    99    98    1
    33    74    73    1
    34    96    94    1
    35    73    72    1
    36    53    54   ar
    37    53    55   ar
    38    98    97    1
    39    98   101    1
    40    97    92   am
    41   103   102   ar
    42    54    56   ar
    43   101   102    1
    44   102   104   ar
    45    55    57   ar
    46    94    91    1
    47    94    95    1
    48    72    64   am
    49    92    91    1
    50    92    93    2
    51    65    64    2
    52    91    90    1
    53    56    57   ar
    54    64    63    1
    55    85    84    2
    56    90    84   am
    57    84    83    1
    58     4     3    2
    59    63    66    1
    60    63    62    1
    61    66    67    1
    62     5     6    1
    63     5     2    1
    64     7     6    2
    65     6     8   am
    66    83    86    1
    67    83    82    1
    68     3     2    1
    69     1     2    1
    70    86    87    1
    71    25    24    2
    72    23    24    1
    73    23    22    1
    74    24    26   am
    75    47    46   ar
    76    47    45   ar
    77    67    68   ar
    78    67    69   ar
    79    14    13    1
    80    26    27    1
    81    68    70   ar
    82    27    28    1
    83    46    44   ar
    84    45    43   ar
    85    13    10    1
    86    22    17   am
    87    37    35   ar
    88    87    88    2
    89    87    89   am
    90    69    71   ar
    91    44    43   ar
    92    43    42    1
    93    29    28    2
    94    70    71   ar
    95    20    19    1
    96    17    18    2
    97    17    16    1
    98    35    36   ar
    99    35    34    1
   100    42    39    1
   101    10     9    1
   102    10    11    1
   103    11    15   am
   104    11    12    2
   105    15    16    1
   106    34    31    1
   107    16    19    1
   108    19    21    1
   109    39    38    1
   110    39    40    1
   111    38    32   am
   112    41    40    2
   113    31    32    1
   114    31    30    1
   115    32    33    2
