@<TRIPOS>MOLECULE
tmp/3eljA00.pdb
 111 102 0 0 0
SMALL
GASTEIGER

@<TRIPOS>ATOM
      1  N         27.7470    7.3620   35.7830 N.3    26  ILE26      -0.1245
      2  CA        27.4400    6.7650   34.4740 C.3    26  ILE26       0.1561
      3  C         27.7100    7.7460   33.3400 C.2    26  ILE26       0.2260
      4  O         27.7600    7.3660   32.1670 O.2    26  ILE26      -0.2867
      5  CB        26.0060    6.1520   34.3940 C.3    26  ILE26       0.0252
      6  CG1       24.9260    7.1940   34.7190 C.3    26  ILE26       0.0019
      7  CG2       25.9110    4.9160   35.3030 C.3    26  ILE26       0.0019
      8  CD1       23.5000    6.6430   34.7320 C.3    26  ILE26       0.0001
      9  N         25.7450   12.3620   36.4960 N.3    34  VAL34      -0.1245
     10  CA        24.6340   11.4710   36.7920 C.3    34  VAL34       0.1561
     11  C         25.2230   10.1470   37.2730 C.2    34  VAL34       0.2260
     12  O         26.1900    9.6400   36.6920 O.2    34  VAL34      -0.2867
     13  CB        23.7240   11.2450   35.5560 C.3    34  VAL34       0.0252
     14  CG1       22.5560   10.3080   35.8930 C.3    34  VAL34       0.0019
     15  CG2       23.2030   12.5770   35.0310 C.3    34  VAL34       0.0019
     16  N         24.4780    6.0070   38.6960 N.3    36  ALA36      -0.1245
     17  CA        23.5950    4.8800   38.9710 C.3    36  ALA36       0.1562
     18  C         23.6750    4.6080   40.4700 C.2    36  ALA36       0.2260
     19  O         24.7010    4.8740   41.0940 O.2    36  ALA36      -0.2867
     20  CB        24.0200    3.6470   38.1690 C.3    36  ALA36       0.0290
     21  N         18.7460    6.1030   38.5720 N.3    47  ALA47      -0.1245
     22  CA        19.6850    7.1350   38.1710 C.3    47  ALA47       0.1562
     23  C         19.5040    8.3130   39.1100 C.2    47  ALA47       0.2260
     24  O         18.3730    8.6570   39.4550 O.2    47  ALA47      -0.2867
     25  CB        19.4190    7.5700   36.7360 C.3    47  ALA47       0.0290
     26  N         10.9060   10.2790   30.4940 N.3    80  ILE80      -0.1245
     27  CA        11.4210    9.9300   31.8230 C.3    80  ILE80       0.1561
     28  C         10.5460   10.4830   32.9560 C.2    80  ILE80       0.2260
     29  O         10.1390   11.6510   32.9320 O.2    80  ILE80      -0.2867
     30  CB        12.9100   10.3470   32.0110 C.3    80  ILE80       0.0252
     31  CG1       13.5470    9.5830   33.1830 C.3    80  ILE80       0.0019
     32  CG2       13.0480   11.8700   32.2080 C.3    80  ILE80       0.0019
     33  CD1       13.7580    8.1070   32.9240 C.3    80  ILE80       0.0001
     34  N         15.4710    8.9450   39.0480 N.3   102  MET102     -0.1230
     35  CA        14.6950    8.4180   37.9280 C.3   102  MET102      0.1702
     36  C         15.0060    6.9400   37.7780 C.2   102  MET102      0.2592
     37  O         16.0220    6.4640   38.2870 O.2   102  MET102     -0.2718
     38  CB        15.0880    9.1370   36.6320 C.3   102  MET102      0.0401
     39  CG        14.8740   10.6500   36.6560 C.3   102  MET102      0.0596
     40  SD        15.9040   11.5540   35.4820 S.3   102  MET102     -0.1393
     41  CE        17.5010   11.5200   36.2940 C.3   102  MET102      0.0692
     42  N         14.1590    6.2050   37.0640 N.am  103  GLU103     -0.1966
     43  CA        14.4850    4.8070   36.8160 C.3   103  GLU103      0.1733
     44  C         15.7450    4.7250   35.9530 C.2   103  GLU103      0.2616
     45  O         15.9630    5.5680   35.0740 O.2   103  GLU103     -0.2715
     46  CB        13.3010    4.0310   36.2270 C.3   103  GLU103      0.0429
     47  CG        12.9880    4.2590   34.7720 C.3   103  GLU103      0.1163
     48  CD        11.8680    3.3420   34.2980 C.2   103  GLU103      0.3649
     49  OE1       12.1380    2.1560   33.9950 O.co2 103  GLU103     -0.2457
     50  OE2       10.7120    3.8080   34.2340 O.co2 103  GLU103     -0.2457
     51  N         16.5920    3.7430   36.2460 N.am  104  LEU104     -0.1963
     52  CA        17.8610    3.5900   35.5350 C.3   104  LEU104      0.1728
     53  C         17.6660    2.8480   34.2230 C.2   104  LEU104      0.2616
     54  O         17.0850    1.7650   34.1960 O.2   104  LEU104     -0.2715
     55  CB        18.8980    2.8650   36.4090 C.3   104  LEU104      0.0311
     56  CG        20.2990    2.6780   35.8120 C.3   104  LEU104      0.0022
     57  CD1       21.0240    4.0130   35.6520 C.3   104  LEU104      0.0001
     58  CD2       21.1380    1.7320   36.6570 C.3   104  LEU104      0.0001
     59  N         18.1460    3.4430   33.1360 N.am  105  MET105     -0.1963
     60  CA        18.1310    2.7840   31.8350 C.3   105  MET105      0.1736
     61  C         19.5110    2.1690   31.5890 C.2   105  MET105      0.2616
     62  O         20.4090    2.3150   32.4260 O.2   105  MET105     -0.2715
     63  CB        17.7180    3.7790   30.7420 C.3   105  MET105      0.0427
     64  CG        16.3460    4.4280   30.9970 C.3   105  MET105      0.0599
     65  SD        14.9450    3.2970   30.8280 S.3   105  MET105     -0.1393
     66  CE        14.6450    3.4130   29.0640 C.3   105  MET105      0.0692
     67  N         19.6860    1.4760   30.4660 N.am  106  ASP106     -0.1957
     68  CA        20.9070    0.6960   30.2400 C.3   106  ASP106      0.1840
     69  C         21.9880    1.4370   29.4620 C.2   106  ASP106      0.2622
     70  O         23.1770    1.1740   29.6420 O.2   106  ASP106     -0.2715
     71  CB        20.5780   -0.6320   29.5550 C.3   106  ASP106      0.1450
     72  CG        19.7240   -1.5410   30.4200 C.2   106  ASP106      0.3671
     73  OD1       19.9290   -1.5700   31.6520 O.co2 106  ASP106     -0.2456
     74  OD2       18.8590   -2.2450   29.8660 O.co2 106  ASP106     -0.2456
     75  N         21.5740    2.3510   28.5890 N.am  107  ALA107     -0.1963
     76  CA        22.5090    3.1040   27.7530 C.3   107  ALA107      0.1728
     77  C         21.8200    4.3280   27.1810 C.2   107  ALA107      0.2616
     78  O         20.5980    4.4520   27.2640 O.2   107  ALA107     -0.2715
     79  CB        23.0250    2.2210   26.6140 C.3   107  ALA107      0.0334
     80  N         22.6020    5.2260   26.5910 N.am  108  ASN108     -0.1972
     81  CA        22.0210    6.3050   25.8090 C.3   108  ASN108      0.1688
     82  C         22.1160    6.0080   24.3250 C.2   108  ASN108      0.2292
     83  O         22.7880    5.0640   23.9100 O.2   108  ASN108     -0.2864
     84  CB        22.6120    7.6790   26.1620 C.3   108  ASN108      0.1181
     85  CG        24.0890    7.8080   25.8270 C.2   108  ASN108      0.2629
     86  OD1       24.6570    7.0340   25.0470 O.2   108  ASN108     -0.2716
     87  ND2       24.7210    8.8140   26.4170 N.am  108  ASN108     -0.0877
     88  N         25.4230    5.3840   22.3710 N.3   111  GLN111     -0.1245
     89  CA        25.9200    4.0080   22.3640 C.3   111  GLN111      0.1566
     90  C         25.2420    3.1480   21.2830 C.2   111  GLN111      0.2260
     91  O         25.9100    2.3810   20.5750 O.2   111  GLN111     -0.2867
     92  CB        25.7440    3.3810   23.7520 C.3   111  GLN111      0.0367
     93  CG        26.2790    1.9650   23.8810 C.3   111  GLN111      0.0905
     94  CD        27.7680    1.8740   23.6070 C.2   111  GLN111      0.2608
     95  OE1       28.5570    2.6940   24.0910 O.2   111  GLN111     -0.2717
     96  NE2       28.1610    0.8720   22.8270 N.am  111  GLN111     -0.0878
     97  N         17.5810    7.7270   26.2250 N.3   152  VAL152     -0.1245
     98  CA        18.0900    6.4960   26.8340 C.3   152  VAL152      0.1561
     99  C         17.2530    5.2770   26.4780 C.2   152  VAL152      0.2260
    100  O         16.0670    5.3990   26.1560 O.2   152  VAL152     -0.2867
    101  CB        18.2510    6.6290   28.3600 C.3   152  VAL152      0.0252
    102  CG1       19.4870    7.4650   28.6770 C.3   152  VAL152      0.0019
    103  CG2       16.9840    7.2330   28.9890 C.3   152  VAL152      0.0019
    104  N         14.8300   12.2320   27.9430 N.3   162  LEU162     -0.1245
    105  CA        15.2510   12.7220   29.2650 C.3   162  LEU162      0.1561
    106  C         15.0310   14.2030   29.5440 C.2   162  LEU162      0.2260
    107  O         14.9930   14.6140   30.7090 O.2   162  LEU162     -0.2867
    108  CB        16.7340   12.4160   29.5030 C.3   162  LEU162      0.0270
    109  CG        17.1670   10.9610   29.6000 C.3   162  LEU162      0.0019
    110  CD1       18.6510   10.9140   29.8880 C.3   162  LEU162      0.0001
    111  CD2       16.3780   10.2380   30.6850 C.3   162  LEU162      0.0001
@<TRIPOS>BOND
     1    91    90    2
     2    90    89    1
     3    89    88    1
     4    89    92    1
     5    96    94   am
     6    94    93    1
     7    94    95    2
     8    92    93    1
     9    83    82    2
    10    82    81    1
    11    86    85    2
    12    81    84    1
    13    81    80    1
    14    85    84    1
    15    85    87   am
    16   100    99    2
    17    97    98    1
    18    99    98    1
    19    80    77   am
    20    79    76    1
    21    98   101    1
    22    77    78    2
    23    77    76    1
    24    76    75    1
    25   104   105    1
    26   101   102    1
    27   101   103    1
    28    75    69   am
    29    66    65    1
    30   105   108    1
    31   105   106    1
    32    69    70    2
    33    69    68    1
    34   108   109    1
    35   106   107    2
    36    71    68    1
    37    71    72    1
    38   109   110    1
    39   109   111    1
    40    74    72   ar
    41    68    67    1
    42    72    73   ar
    43    67    61   am
    44    26    27    1
    45    63    64    1
    46    63    60    1
    47    65    64    1
    48    61    60    1
    49    61    62    2
    50    27    30    1
    51    27    28    1
    52    60    59    1
    53    30    32    1
    54    30    31    1
    55     4     3    2
    56    33    31    1
    57    29    28    2
    58    59    53   am
    59     3     2    1
    60    49    48   ar
    61    54    53    2
    62    53    52    1
    63    50    48   ar
    64    48    47    1
    65     5     2    1
    66     5     6    1
    67     5     7    1
    68     2     1    1
    69     6     8    1
    70    47    46    1
    71    15    13    1
    72    45    44    2
    73    40    41    1
    74    40    39    1
    75    52    51    1
    76    52    55    1
    77    13    14    1
    78    13    10    1
    79    57    56    1
    80    56    55    1
    81    56    58    1
    82    44    51   am
    83    44    43    1
    84    46    43    1
    85     9    10    1
    86    38    39    1
    87    38    35    1
    88    12    11    2
    89    25    22    1
    90    10    11    1
    91    43    42    1
    92    42    36   am
    93    36    35    1
    94    36    37    2
    95    35    34    1
    96    20    17    1
    97    22    21    1
    98    22    23    1
    99    16    17    1
   100    17    18    1
   101    23    24    2
   102    18    19    2
