@<TRIPOS>MOLECULE
tmp/3elmB00.pdb
 197 199 0 0 0
SMALL
GASTEIGER

@<TRIPOS>ATOM
      1  N          9.7890   12.1390   66.9330 N.3    73  TYR73      -0.1241
      2  CA        10.2010   10.8940   66.2620 C.3    73  TYR73       0.1605
      3  C         10.7270   10.1410   67.4970 C.2    73  TYR73       0.2264
      4  O         11.9340    9.9400   67.6560 O.2    73  TYR73      -0.2867
      5  CB        11.3590   11.1240   65.2900 C.3    73  TYR73       0.0534
      6  CG        11.0040   11.8860   64.0350 C.ar   73  TYR73      -0.0201
      7  CD1       10.2750   11.2860   63.0100 C.ar   73  TYR73      -0.0009
      8  CD2       11.4360   13.1950   63.8560 C.ar   73  TYR73      -0.0009
      9  CE1        9.9950   11.9800   61.8230 C.ar   73  TYR73       0.0417
     10  CE2       11.1660   13.8900   62.6870 C.ar   73  TYR73       0.0417
     11  CZ        10.4490   13.2730   61.6720 C.ar   73  TYR73       0.1957
     12  OH        10.2490   13.9510   60.4890 O.3    73  TYR73      -0.2866
     13  N         14.9780   -2.4140   68.3180 N.3    80  GLY80      -0.1210
     14  CA        14.1630   -1.6830   67.3570 C.3    80  GLY80       0.1956
     15  C         14.9920   -0.5030   66.8630 C.2    80  GLY80       0.2612
     16  O         16.1300   -0.6740   66.4300 O.2    80  GLY80      -0.2717
     17  N         14.4350    0.7010   66.9480 N.am   81  LEU81      -0.1965
     18  CA        15.1540    1.9010   66.5220 C.3    81  LEU81       0.1728
     19  C         16.4290    2.1070   67.3600 C.2    81  LEU81       0.2616
     20  O         16.3770    2.0550   68.5790 O.2    81  LEU81      -0.2715
     21  CB        14.2500    3.1160   66.6800 C.3    81  LEU81       0.0311
     22  CG        13.0300    3.1700   65.7700 C.3    81  LEU81       0.0022
     23  CD1       12.1180    4.2800   66.2520 C.3    81  LEU81       0.0001
     24  CD2       13.4650    3.4030   64.3130 C.3    81  LEU81       0.0001
     25  N         17.5530    2.3600   66.7000 N.am   82  LEU82      -0.1963
     26  CA        18.8270    2.5670   67.3870 C.3    82  LEU82       0.1728
     27  C         19.2160    4.0330   67.5100 C.2    82  LEU82       0.2616
     28  O         19.7980    4.4580   68.5230 O.2    82  LEU82      -0.2715
     29  CB        19.9580    1.8700   66.6260 C.3    82  LEU82       0.0311
     30  CG        19.7720    0.3770   66.3790 C.3    82  LEU82       0.0022
     31  CD1       21.0170   -0.1810   65.7020 C.3    82  LEU82       0.0001
     32  CD2       19.5010   -0.3260   67.7290 C.3    82  LEU82       0.0001
     33  N         18.9310    4.7790   66.4460 N.am   83  ALA83      -0.1963
     34  CA        19.2880    6.1860   66.3510 C.3    83  ALA83       0.1728
     35  C         18.7270    6.7080   65.0320 C.2    83  ALA83       0.2616
     36  O         18.3280    5.9210   64.1800 O.2    83  ALA83      -0.2715
     37  CB        20.8160    6.3250   66.3100 C.3    83  ALA83       0.0334
     38  N         18.7200    8.0250   64.8610 N.am   84  HIS84      -0.1959
     39  CA        18.2750    8.6060   63.5990 C.3    84  HIS84       0.1787
     40  C         18.9790    9.9310   63.3810 C.2    84  HIS84       0.2620
     41  O         19.5150   10.5090   64.3190 O.2    84  HIS84      -0.2715
     42  CB        16.7390    8.7530   63.5450 C.3    84  HIS84       0.0785
     43  CG        16.1430    9.5130   64.6920 C.ar   84  HIS84       0.0821
     44  ND1       14.9490    9.1490   65.2770 N.ar   84  HIS84      -0.2267
     45  CD2       16.5440   10.6390   65.3290 C.ar   84  HIS84       0.1154
     46  CE1       14.6380   10.0170   66.2240 C.ar   84  HIS84       0.1986
     47  NE2       15.5890   10.9320   66.2760 N.ar   84  HIS84      -0.2212
     48  N         19.0170   10.3960   62.1400 N.am   85  ALA85      -0.1963
     49  CA        19.6880   11.6400   61.8450 C.3    85  ALA85       0.1728
     50  C         18.9280   12.2950   60.7140 C.2    85  ALA85       0.2616
     51  O         18.3010   11.6070   59.9100 O.2    85  ALA85      -0.2715
     52  CB        21.1350   11.3870   61.4330 C.3    85  ALA85       0.0334
     53  N         18.9830   13.6210   60.6710 N.am   86  PHE86      -0.1960
     54  CA        18.2950   14.3990   59.6430 C.3    86  PHE86       0.1756
     55  C         19.2230   14.7050   58.4740 C.2    86  PHE86       0.2461
     56  O         20.4220   14.9260   58.6620 O.2    86  PHE86      -0.2730
     57  CB        17.7810   15.7170   60.2480 C.3    86  PHE86       0.0574
     58  CG        16.8150   15.5270   61.3910 C.ar   86  PHE86      -0.0200
     59  CD1       17.2720   15.2370   62.6780 C.ar   86  PHE86      -0.0042
     60  CD2       15.4460   15.6300   61.1810 C.ar   86  PHE86      -0.0042
     61  CE1       16.3720   15.0520   63.7310 C.ar   86  PHE86      -0.0003
     62  CE2       14.5420   15.4480   62.2250 C.ar   86  PHE86      -0.0003
     63  CZ        15.0060   15.1570   63.5060 C.ar   86  PHE86      -0.0000
     64  N         18.6850   14.7260   57.2400 N.am   87  PRO87      -0.2727
     65  CA        19.5490   15.0240   56.0950 C.3    87  PRO87       0.1402
     66  C         20.0670   16.4730   56.1520 C.2    87  PRO87       0.2269
     67  O         19.6190   17.2590   56.9790 O.2    87  PRO87      -0.2865
     68  CB        18.6430   14.7370   54.8820 C.3    87  PRO87       0.0296
     69  CG        17.2690   14.9970   55.4020 C.3    87  PRO87       0.0237
     70  CD        17.3170   14.3840   56.8070 C.3    87  PRO87       0.0939
     71  N         30.3730    2.5560   64.9040 N.3   115  LEU115     -0.1231
     72  CA        29.7430    2.0220   63.7040 C.3   115  LEU115      0.1693
     73  C         28.3640    2.6310   63.4400 C.2   115  LEU115      0.2591
     74  O         28.0310    2.9770   62.3040 O.2   115  LEU115     -0.2718
     75  CB        29.6130    0.4960   63.8110 C.3   115  LEU115      0.0284
     76  CG        29.2610   -0.1670   62.4700 C.3   115  LEU115      0.0019
     77  CD1       30.4340    0.0290   61.5040 C.3   115  LEU115      0.0001
     78  CD2       28.9800   -1.6790   62.6650 C.3   115  LEU115      0.0001
     79  N         27.5570    2.7570   64.4850 N.am  116  VAL116     -0.1980
     80  CA        26.2250    3.3210   64.3130 C.3   116  VAL116      0.1595
     81  C         26.3460    4.8050   63.9630 C.2   116  VAL116      0.2287
     82  O         25.6390    5.2950   63.0810 O.2   116  VAL116     -0.2864
     83  CB        25.3560    3.1110   65.5970 C.3   116  VAL116      0.0276
     84  CG1       24.0630    3.8670   65.4850 C.3   116  VAL116      0.0022
     85  CG2       25.0450    1.6220   65.7790 C.3   116  VAL116      0.0022
     86  N         27.3130    5.3830   60.3550 N.3   119  HIS119     -0.1226
     87  CA        26.1320    5.1670   59.5130 C.3   119  HIS119      0.1752
     88  C         25.2180    6.4040   59.5750 C.2   119  HIS119      0.2595
     89  O         24.7740    6.9270   58.5400 O.2   119  HIS119     -0.2718
     90  CB        25.3860    3.9340   60.0240 C.3   119  HIS119      0.0759
     91  CG        24.0840    3.6710   59.3360 C.ar  119  HIS119      0.0818
     92  ND1       23.9790    2.8340   58.2460 N.ar  119  HIS119     -0.2268
     93  CD2       22.8270    4.0990   59.6050 C.ar  119  HIS119      0.1154
     94  CE1       22.7140    2.7550   57.8740 C.ar  119  HIS119      0.1986
     95  NE2       21.9940    3.5140   58.6800 N.ar  119  HIS119     -0.2212
     96  N         24.9360    6.8760   60.7860 N.am  120  GLU120     -0.1979
     97  CA        24.0780    8.0490   60.9420 C.3   120  GLU120      0.1602
     98  C         24.6680    9.2740   60.2720 C.2   120  GLU120      0.2287
     99  O         23.9390   10.0600   59.6550 O.2   120  GLU120     -0.2864
    100  CB        23.8250    8.3600   62.4180 C.3   120  GLU120      0.0415
    101  CG        23.0080    7.3010   63.1650 C.3   120  GLU120      0.1163
    102  CD        21.6850    6.9830   62.4730 C.2   120  GLU120      0.3649
    103  OE1       21.0600    7.9090   61.9080 O.co2 120  GLU120     -0.2457
    104  OE2       21.2690    5.8060   62.5030 O.co2 120  GLU120     -0.2457
    105  N         23.8750    9.5720   56.7660 N.3   123  HIS123     -0.1241
    106  CA        22.5830   10.2230   56.5490 C.3   123  HIS123      0.1621
    107  C         22.7260   11.7540   56.7150 C.2   123  HIS123      0.2264
    108  O         22.1840   12.5380   55.9290 O.2   123  HIS123     -0.2867
    109  CB        21.5390    9.7090   57.5350 C.3   123  HIS123      0.0745
    110  CG        21.1090    8.2900   57.2960 C.ar  123  HIS123      0.0817
    111  ND1       20.9250    7.7690   56.0330 N.ar  123  HIS123     -0.2268
    112  CD2       20.7670    7.3060   58.1610 C.ar  123  HIS123      0.1154
    113  CE1       20.4860    6.5270   56.1300 C.ar  123  HIS123      0.1986
    114  NE2       20.3800    6.2210   57.4100 N.ar  123  HIS123     -0.2212
    115  N         19.8230    4.8930   52.2670 N.3   129  HIS129     -0.1241
    116  CA        20.2460    3.5060   52.3870 C.3   129  HIS129      0.1621
    117  C         20.6890    2.8690   51.0770 C.2   129  HIS129      0.2264
    118  O         20.1120    3.1220   49.9970 O.2   129  HIS129     -0.2867
    119  CB        19.1210    2.6850   53.0000 C.3   129  HIS129      0.0745
    120  CG        18.9910    2.8810   54.4750 C.ar  129  HIS129      0.0817
    121  ND1       17.8000    2.7360   55.1450 N.ar  129  HIS129     -0.2268
    122  CD2       19.9090    3.2400   55.4060 C.ar  129  HIS129      0.1154
    123  CE1       17.9850    3.0050   56.4270 C.ar  129  HIS129      0.1986
    124  NE2       19.2560    3.3140   56.6070 N.ar  129  HIS129     -0.2212
    125  N         26.9060   -5.2860   51.8590 N.3   134  GLY134     -0.1210
    126  CA        28.2050   -5.0860   52.4820 C.3   134  GLY134      0.1956
    127  C         28.5290   -3.6240   52.7600 C.2   134  GLY134      0.2612
    128  O         29.6230   -3.2990   53.2470 O.2   134  GLY134     -0.2717
    129  N         27.5880   -2.7350   52.4610 N.am  135  ALA135     -0.1965
    130  CA        27.8100   -1.3000   52.6640 C.3   135  ALA135      0.1728
    131  C         27.5180   -0.8110   54.0790 C.2   135  ALA135      0.2616
    132  O         26.6830   -1.3820   54.7780 O.2   135  ALA135     -0.2715
    133  CB        26.9530   -0.5050   51.6730 C.3   135  ALA135      0.0334
    134  N         28.2200    0.2410   54.4990 N.am  136  LEU136     -0.1977
    135  CA        27.9760    0.8340   55.8160 C.3   136  LEU136      0.1596
    136  C         26.5400    1.3810   55.7970 C.2   136  LEU136      0.2287
    137  O         25.8230    1.2990   56.7890 O.2   136  LEU136     -0.2864
    138  CB        28.9650    1.9850   56.0810 C.3   136  LEU136      0.0297
    139  CG        28.7100    2.8570   57.3190 C.3   136  LEU136      0.0022
    140  CD1       28.6810    1.9720   58.5560 C.3   136  LEU136      0.0001
    141  CD2       29.7970    3.9390   57.4440 C.3   136  LEU136      0.0001
    142  N         23.9530    0.1880   54.4830 N.3   138  PHE138     -0.1228
    143  CA        22.9100   -0.8290   54.3520 C.3   138  PHE138      0.1721
    144  C         22.0400   -0.5880   55.6070 C.2   138  PHE138      0.2437
    145  O         22.5360   -0.1240   56.6320 O.2   138  PHE138     -0.2733
    146  CB        23.5330   -2.2380   54.3850 C.3   138  PHE138      0.0547
    147  CG        22.5800   -3.3350   54.0060 C.ar  138  PHE138     -0.0202
    148  CD1       22.0290   -3.3890   52.7190 C.ar  138  PHE138     -0.0042
    149  CD2       22.2260   -4.3060   54.9270 C.ar  138  PHE138     -0.0042
    150  CE1       21.1360   -4.4010   52.3600 C.ar  138  PHE138     -0.0003
    151  CE2       21.3300   -5.3290   54.5840 C.ar  138  PHE138     -0.0003
    152  CZ        20.7850   -5.3770   53.3000 C.ar  138  PHE138     -0.0000
    153  N         20.7300   -0.8760   55.5400 N.am  139  PRO139     -0.2718
    154  CA        19.8610   -0.6600   56.7000 C.3   139  PRO139      0.1535
    155  C         20.0020   -1.5790   57.9150 C.2   139  PRO139      0.2598
    156  O         19.5110   -1.2510   58.9960 O.2   139  PRO139     -0.2715
    157  CB        18.4490   -0.7310   56.0990 C.3   139  PRO139      0.0310
    158  CG        18.6200   -1.5780   54.9170 C.3   139  PRO139      0.0237
    159  CD        19.9340   -1.1510   54.3320 C.3   139  PRO139      0.0939
    160  N         20.6610   -2.7220   57.7540 N.am  140  ILE140     -0.1964
    161  CA        20.7950   -3.6460   58.8710 C.3   140  ILE140      0.1727
    162  C         22.1700   -3.6090   59.5190 C.2   140  ILE140      0.2616
    163  O         23.2030   -3.6650   58.8460 O.2   140  ILE140     -0.2715
    164  CB        20.4930   -5.0970   58.4290 C.3   140  ILE140      0.0290
    165  CG1       19.0980   -5.1680   57.8080 C.3   140  ILE140      0.0022
    166  CG2       20.5740   -6.0400   59.6250 C.3   140  ILE140      0.0023
    167  CD1       18.0050   -4.5950   58.7040 C.3   140  ILE140      0.0001
    168  N         22.1660   -3.5170   60.8430 N.am  141  TYR141     -0.1960
    169  CA        23.3900   -3.4710   61.6230 C.3   141  TYR141      0.1771
    170  C         24.0350   -4.8530   61.7800 C.2   141  TYR141      0.2620
    171  O         23.3660   -5.8020   62.1410 O.2   141  TYR141     -0.2715
    172  CB        23.0800   -2.9120   63.0310 C.3   141  TYR141      0.0574
    173  CG        24.2520   -2.9750   64.0030 C.ar  141  TYR141     -0.0198
    174  CD1       25.1080   -1.8810   64.1790 C.ar  141  TYR141     -0.0009
    175  CD2       24.5010   -4.1270   64.7440 C.ar  141  TYR141     -0.0009
    176  CE1       26.1780   -1.9410   65.0760 C.ar  141  TYR141      0.0417
    177  CE2       25.5660   -4.1990   65.6440 C.ar  141  TYR141      0.0417
    178  CZ        26.3950   -3.1030   65.8080 C.ar  141  TYR141      0.1957
    179  OH        27.4040   -3.1650   66.7400 O.3   141  TYR141     -0.2866
    180  N         25.3290   -4.9560   61.4970 N.am  142  THR142     -0.1951
    181  CA        26.0740   -6.1970   61.7210 C.3   142  THR142      0.1897
    182  C         27.4480   -5.7180   62.2080 C.2   142  THR142      0.2313
    183  O         27.8840   -4.6180   61.8500 O.2   142  THR142     -0.2863
    184  CB        26.2450   -7.0600   60.4350 C.3   142  THR142      0.1794
    185  OG1       26.9530   -6.3120   59.4550 O.3   142  THR142     -0.2208
    186  CG2       24.8820   -7.4790   59.8680 C.3   142  THR142      0.0378
    187  N         38.2450   -0.7660   60.6930 N.3   149  PHE149     -0.1241
    188  CA        37.0810   -0.5860   59.8410 C.3   149  PHE149      0.1605
    189  C         37.5100    0.0520   58.5330 C.2   149  PHE149      0.2264
    190  O         38.2700    1.0200   58.5210 O.2   149  PHE149     -0.2867
    191  CB        36.0320    0.3100   60.5150 C.3   149  PHE149      0.0534
    192  CG        34.8650    0.6390   59.6230 C.ar  149  PHE149     -0.0203
    193  CD1       34.8640    1.7980   58.8640 C.ar  149  PHE149     -0.0042
    194  CD2       33.7900   -0.2340   59.5170 C.ar  149  PHE149     -0.0042
    195  CE1       33.8080    2.0920   58.0100 C.ar  149  PHE149     -0.0003
    196  CE2       32.7280    0.0410   58.6660 C.ar  149  PHE149     -0.0003
    197  CZ        32.7370    1.2120   57.9100 C.ar  149  PHE149     -0.0000
@<TRIPOS>BOND
     1   118   117    2
     2   117   116    1
     3   133   130    1
     4   125   126    1
     5   115   116    1
     6   150   148   ar
     7   150   152   ar
     8   116   119    1
     9   129   130    1
    10   129   127   am
    11   126   127    1
    12   130   131    1
    13   148   147   ar
    14   127   128    2
    15   119   120    1
    16   152   151   ar
    17   147   146    1
    18   147   149   ar
    19   131   134   am
    20   131   132    2
    21   159   158    1
    22   159   153    1
    23   143   146    1
    24   143   142    1
    25   143   144    1
    26   120   121   ar
    27   120   122   ar
    28   134   135    1
    29   151   149   ar
    30    68    69    1
    31    68    65    1
    32   158   157    1
    33   121   123   ar
    34    69    70    1
    35   122   124   ar
    36   153   144   am
    37   153   154    1
    38   144   145    2
    39   136   135    1
    40   136   137    2
    41   135   138    1
    42   108   107    2
    43   111   113   ar
    44   111   110   ar
    45   138   139    1
    46    65    66    1
    47    65    64    1
    48   157   154    1
    49   113   114   ar
    50    66    67    2
    51   123   124   ar
    52   106   107    1
    53   106   105    1
    54   106   109    1
    55   154   155    1
    56    70    64    1
    57    64    55   am
    58   110   109    1
    59   110   112   ar
    60   139   141    1
    61   139   140    1
    62   114   112   ar
    63   160   155   am
    64   160   161    1
    65   165   164    1
    66   165   167    1
    67    94    92   ar
    68    94    95   ar
    69   197   195   ar
    70   197   196   ar
    71   155   156    2
    72   195   193   ar
    73    92    91   ar
    74   164   161    1
    75   164   166    1
    76    55    56    2
    77    55    54    1
    78   190   189    2
    79   189   188    1
    80    89    88    2
    81   196   194   ar
    82    95    93   ar
    83   163   162    2
    84   193   192   ar
    85   161   162    1
    86    91    93   ar
    87    91    90    1
    88   185   184    1
    89    87    88    1
    90    87    90    1
    91    87    86    1
    92   194   192   ar
    93   162   168   am
    94    88    96   am
    95   192   191    1
    96    54    57    1
    97    54    53    1
    98    99    98    2
    99   188   191    1
   100   188   187    1
   101   186   184    1
   102    51    50    2
   103    57    58    1
   104    98    97    1
   105   184   181    1
   106    12    11    1
   107    53    50   am
   108    50    49    1
   109    96    97    1
   110   168   169    1
   111    97   100    1
   112    60    58   ar
   113    60    62   ar
   114    58    59   ar
   115    52    49    1
   116   180   181    1
   117   180   170   am
   118    77    76    1
   119   169   170    1
   120   169   172    1
   121    11     9   ar
   122    11    10   ar
   123   181   182    1
   124   170   171    2
   125     9     7   ar
   126    49    48    1
   127   183   182    2
   128   103   102   ar
   129    48    40   am
   130    62    63   ar
   131    74    73    2
   132   100   101    1
   133    76    78    1
   134    76    75    1
   135   102   104   ar
   136   102   101    1
   137    59    61   ar
   138    10     8   ar
   139     7     6   ar
   140   172   173    1
   141    82    81    2
   142    40    39    1
   143    40    41    2
   144    73    72    1
   145    73    79   am
   146    63    61   ar
   147    42    39    1
   148    42    43    1
   149    39    38    1
   150    72    75    1
   151    72    71    1
   152     8     6   ar
   153    81    80    1
   154   173   174   ar
   155   173   175   ar
   156     6     5    1
   157   174   176   ar
   158    36    35    2
   159    80    79    1
   160    80    83    1
   161    24    22    1
   162    43    44   ar
   163    43    45   ar
   164   175   177   ar
   165    38    35   am
   166    35    34    1
   167   176   178   ar
   168    44    46   ar
   169     5     2    1
   170    45    47   ar
   171    84    83    1
   172    83    85    1
   173   177   178   ar
   174    31    30    1
   175    22    23    1
   176    22    21    1
   177   178   179    1
   178    46    47   ar
   179     2     1    1
   180     2     3    1
   181    37    34    1
   182    34    33    1
   183    30    29    1
   184    30    32    1
   185    16    15    2
   186    33    27   am
   187    18    21    1
   188    18    17    1
   189    18    19    1
   190    29    26    1
   191    25    19   am
   192    25    26    1
   193    15    17   am
   194    15    14    1
   195    14    13    1
   196    19    20    2
   197    26    27    1
   198     3     4    2
   199    27    28    2
