@<TRIPOS>MOLECULE
tmp/3elnA00.pdb
 145 140 0 0 0
SMALL
GASTEIGER

@<TRIPOS>ATOM
      1  N        -10.1870   -1.2880  -59.1440 N.3    55  TYR55      -0.1241
      2  CA       -10.3170   -0.1010  -58.2960 C.3    55  TYR55       0.1605
      3  C         -9.3380   -0.1710  -57.1320 C.2    55  TYR55       0.2264
      4  O         -8.9760   -1.2360  -56.6670 O.2    55  TYR55      -0.2867
      5  CB       -11.7380    0.1070  -57.7820 C.3    55  TYR55       0.0534
      6  CG       -12.2030   -0.7880  -56.6540 C.ar   55  TYR55      -0.0201
      7  CD1      -12.1160   -0.3560  -55.3400 C.ar   55  TYR55      -0.0009
      8  CD2      -12.8140   -1.9990  -56.8910 C.ar   55  TYR55      -0.0009
      9  CE1      -12.5760   -1.1160  -54.3220 C.ar   55  TYR55       0.0417
     10  CE2      -13.3180   -2.7490  -55.8560 C.ar   55  TYR55       0.0417
     11  CZ       -13.1640   -2.3140  -54.5610 C.ar   55  TYR55       0.1957
     12  OH       -13.6800   -3.0470  -53.4760 O.3    55  TYR55      -0.2866
     13  N         -7.9470    1.4010  -53.2370 N.3    57  ARG57      -0.1245
     14  CA        -8.3540    1.9300  -51.9320 C.3    57  ARG57       0.1563
     15  C         -7.1960    2.7030  -51.3070 C.2    57  ARG57       0.2260
     16  O         -6.1270    2.1420  -51.0860 O.2    57  ARG57      -0.2867
     17  CB        -8.7830    0.7770  -51.0340 C.3    57  ARG57       0.0307
     18  CG        -9.8310   -0.1400  -51.6310 C.3    57  ARG57       0.0489
     19  CD       -10.1300   -1.3320  -50.8000 C.3    57  ARG57       0.2205
     20  NE       -11.1450   -1.0690  -49.8300 N.pl3  57  ARG57      -0.0865
     21  CZ       -10.9050   -1.0340  -48.5390 C.cat  57  ARG57       0.5346
     22  NH1       -9.6660   -1.2140  -48.1050 N.pl3  57  ARG57       0.1354
     23  NH2      -11.9100   -0.8180  -47.6990 N.pl3  57  ARG57       0.1354
     24  N        -11.5760    5.8000  -52.9180 N.3    72  LEU72      -0.1245
     25  CA       -11.5720    4.7050  -53.8760 C.3    72  LEU72       0.1561
     26  C        -11.6150    5.2670  -55.2910 C.2    72  LEU72       0.2260
     27  O        -12.3760    6.1810  -55.5930 O.2    72  LEU72      -0.2867
     28  CB       -12.7270    3.7350  -53.6450 C.3    72  LEU72       0.0270
     29  CG       -12.5120    2.6330  -52.5810 C.3    72  LEU72       0.0019
     30  CD1      -12.1040    3.2100  -51.2240 C.3    72  LEU72       0.0001
     31  CD2      -13.6950    1.7190  -52.4210 C.3    72  LEU72       0.0001
     32  N        -11.9580    4.3420  -59.2750 N.3    74  TRP74      -0.1241
     33  CA       -12.5800    3.3150  -60.1390 C.3    74  TRP74       0.1605
     34  C        -12.3180    3.7020  -61.5910 C.2    74  TRP74       0.2264
     35  O        -12.8710    4.6710  -62.1010 O.2    74  TRP74      -0.2867
     36  CB       -14.1020    3.2480  -59.9130 C.3    74  TRP74       0.0550
     37  CG       -14.5380    3.2370  -58.4700 C.ar   74  TRP74       0.0003
     38  CD1      -14.5810    4.3020  -57.6230 C.ar   74  TRP74       0.0946
     39  CD2      -15.0620    2.1310  -57.7410 C.ar   74  TRP74       0.0152
     40  NE1      -15.0990    3.9310  -56.4110 N.ar   74  TRP74      -0.2442
     41  CE2      -15.3970    2.6020  -56.4460 C.ar   74  TRP74       0.0810
     42  CE3      -15.3110    0.7950  -58.0550 C.ar   74  TRP74       0.0012
     43  CZ2      -15.8930    1.7570  -55.4620 C.ar   74  TRP74       0.0191
     44  CZ3      -15.8230   -0.0110  -57.1140 C.ar   74  TRP74       0.0001
     45  CH2      -16.1090    0.4600  -55.8110 C.ar   74  TRP74       0.0015
     46  N        -20.7060   -7.8770  -51.8120 N.3    83  HIS83      -0.1241
     47  CA       -20.0050   -7.9580  -50.5380 C.3    83  HIS83       0.1621
     48  C        -20.7760   -7.3560  -49.3580 C.2    83  HIS83       0.2264
     49  O        -21.7570   -6.6160  -49.5190 O.2    83  HIS83      -0.2867
     50  CB       -18.6500   -7.3060  -50.6430 C.3    83  HIS83       0.0745
     51  CG       -18.7030   -5.8410  -50.9580 C.ar   83  HIS83       0.0817
     52  ND1      -18.7420   -5.3530  -52.2490 N.ar   83  HIS83      -0.2268
     53  CD2      -18.7830   -4.7590  -50.1400 C.ar   83  HIS83       0.1154
     54  CE1      -18.8310   -4.0260  -52.1980 C.ar   83  HIS83       0.1986
     55  NE2      -18.8510   -3.6430  -50.9290 N.ar   83  HIS83      -0.2212
     56  N        -20.0670   -5.8000  -45.1180 N.3    85  HIS85      -0.1241
     57  CA       -19.3110   -4.7060  -44.4560 C.3    85  HIS85       0.1621
     58  C        -18.9570   -4.9860  -43.0090 C.2    85  HIS85       0.2264
     59  O        -18.7190   -4.0880  -42.2000 O.2    85  HIS85      -0.2867
     60  CB       -19.9860   -3.3570  -44.6250 C.3    85  HIS85       0.0745
     61  CG       -20.1620   -2.9860  -46.0700 C.ar   85  HIS85       0.0817
     62  ND1      -21.2540   -3.3920  -46.8120 N.ar   85  HIS85      -0.2268
     63  CD2      -19.3430   -2.3340  -46.9440 C.ar   85  HIS85       0.1154
     64  CE1      -21.0960   -2.9930  -48.0720 C.ar   85  HIS85       0.1986
     65  NE2      -19.9630   -2.3180  -48.1680 N.ar   85  HIS85      -0.2212
     66  N        -20.9790    1.8910  -43.1950 N.3    90  CYS90      -0.1235
     67  CA       -20.2270    2.2330  -44.4150 C.3    90  CYS90       0.1672
     68  C        -20.9670    3.3500  -45.1630 C.2    90  CYS90       0.2270
     69  O        -22.0650    3.1810  -45.6410 O.2    90  CYS90      -0.2867
     70  CB       -20.0250    0.9750  -45.2920 C.3    90  CYS90       0.0892
     71  SG       -18.9540    1.2080  -46.7120 S.3    90  CYS90      -0.1085
     72  N        -20.6160    6.1190  -48.3320 N.3    92  LEU92      -0.1245
     73  CA       -19.9820    6.2600  -49.6390 C.3    92  LEU92       0.1561
     74  C        -20.4260    7.5690  -50.2940 C.2    92  LEU92       0.2260
     75  O        -21.5860    7.7130  -50.6350 O.2    92  LEU92      -0.2867
     76  CB       -20.4260    5.0600  -50.5050 C.3    92  LEU92       0.0270
     77  CG       -19.8490    4.7870  -51.8610 C.3    92  LEU92       0.0019
     78  CD1      -20.4760    3.4600  -52.2820 C.3    92  LEU92       0.0001
     79  CD2      -20.1900    5.8370  -52.8480 C.3    92  LEU92       0.0001
     80  N        -24.6710    2.1470  -46.2120 N.3   130  ILE130     -0.1245
     81  CA       -25.0220    0.7350  -46.1160 C.3   130  ILE130      0.1561
     82  C        -24.5110    0.1400  -44.8180 C.2   130  ILE130      0.2260
     83  O        -23.5480    0.5630  -44.2400 O.2   130  ILE130     -0.2867
     84  CB       -24.5620   -0.1000  -47.3650 C.3   130  ILE130      0.0252
     85  CG1      -25.3190   -1.4430  -47.3720 C.3   130  ILE130      0.0019
     86  CG2      -23.0730   -0.2930  -47.4110 C.3   130  ILE130      0.0019
     87  CD1      -25.3320   -2.1450  -48.6840 C.3   130  ILE130      0.0001
     88  N        -24.1820   -5.4070  -51.1380 N.3   137  HIS137     -0.1241
     89  CA       -24.2130   -4.6510  -52.4020 C.3   137  HIS137      0.1621
     90  C        -23.0090   -4.8980  -53.2680 C.2   137  HIS137      0.2264
     91  O        -22.0380   -5.4920  -52.8480 O.2   137  HIS137     -0.2867
     92  CB       -24.4330   -3.1340  -52.1870 C.3   137  HIS137      0.0745
     93  CG       -23.2490   -2.3600  -51.6650 C.ar  137  HIS137      0.0817
     94  ND1      -23.3040   -1.0020  -51.4420 N.ar  137  HIS137     -0.2268
     95  CD2      -21.9900   -2.7450  -51.3220 C.ar  137  HIS137      0.1154
     96  CE1      -22.1240   -0.5950  -50.9720 C.ar  137  HIS137      0.1986
     97  NE2      -21.3000   -1.6290  -50.9250 N.ar  137  HIS137     -0.2212
     98  N        -20.8630   -2.4150  -56.1250 N.3   139  VAL139     -0.1245
     99  CA       -20.6610   -1.0420  -56.5980 C.3   139  VAL139      0.1561
    100  C        -19.7880   -1.1010  -57.8370 C.2   139  VAL139      0.2260
    101  O        -18.8160   -1.8220  -57.8630 O.2   139  VAL139     -0.2867
    102  CB       -20.0460   -0.1820  -55.5250 C.3   139  VAL139      0.0252
    103  CG1      -19.7400    1.2170  -55.9790 C.3   139  VAL139      0.0019
    104  CG2      -21.0040   -0.1250  -54.2680 C.3   139  VAL139      0.0019
    105  N        -15.0480    6.9900  -48.8030 N.3   152  HIS152     -0.1241
    106  CA       -15.6960    5.9740  -47.9720 C.3   152  HIS152      0.1621
    107  C        -15.2680    6.0950  -46.5330 C.2   152  HIS152      0.2264
    108  O        -14.0980    6.3410  -46.2320 O.2   152  HIS152     -0.2867
    109  CB       -15.3250    4.5610  -48.4550 C.3   152  HIS152      0.0745
    110  CG       -15.8230    4.2490  -49.8390 C.ar  152  HIS152      0.0817
    111  ND1      -16.6510    3.1900  -50.1160 N.ar  152  HIS152     -0.2268
    112  CD2      -15.6510    4.9000  -51.0160 C.ar  152  HIS152      0.1154
    113  CE1      -16.9060    3.1530  -51.4180 C.ar  152  HIS152      0.1986
    114  NE2      -16.3390    4.2030  -51.9870 N.ar  152  HIS152     -0.2212
    115  N        -15.7570    3.9760  -42.9080 N.3   154  TYR154     -0.1241
    116  CA       -16.1500    2.7460  -42.2070 C.3   154  TYR154      0.1605
    117  C        -15.8960    2.8600  -40.7140 C.2   154  TYR154      0.2264
    118  O        -14.8310    3.2690  -40.3110 O.2   154  TYR154     -0.2867
    119  CB       -15.3500    1.5560  -42.7630 C.3   154  TYR154      0.0534
    120  CG       -15.6250    1.3870  -44.2340 C.ar  154  TYR154     -0.0196
    121  CD1      -14.6140    1.4330  -45.1680 C.ar  154  TYR154     -0.0009
    122  CD2      -16.9170    1.2750  -44.6790 C.ar  154  TYR154      0.0052
    123  CE1      -14.8790    1.3020  -46.5370 C.ar  154  TYR154      0.0422
    124  CE2      -17.1960    1.1770  -46.0050 C.ar  154  TYR154      0.0639
    125  CZ       -16.1670    1.1700  -46.9600 C.ar  154  TYR154      0.2013
    126  OH       -16.4360    1.0680  -48.3100 O.3   154  TYR154     -0.2860
    127  N        -12.4060   -1.9920  -40.6100 N.3   158  PHE158     -0.1241
    128  CA       -12.3080   -3.4370  -40.8710 C.3   158  PHE158      0.1605
    129  C        -11.4160   -3.6890  -42.0560 C.2   158  PHE158      0.2264
    130  O        -11.3330   -2.8640  -42.9640 O.2   158  PHE158     -0.2867
    131  CB       -13.6910   -4.0900  -41.0830 C.3   158  PHE158      0.0534
    132  CG       -14.4300   -3.6070  -42.2810 C.ar  158  PHE158     -0.0203
    133  CD1      -14.3060   -4.2490  -43.5030 C.ar  158  PHE158     -0.0042
    134  CD2      -15.2780   -2.5340  -42.2010 C.ar  158  PHE158     -0.0042
    135  CE1      -15.0260   -3.8160  -44.6040 C.ar  158  PHE158     -0.0003
    136  CE2      -15.9670   -2.0920  -43.3030 C.ar  158  PHE158     -0.0003
    137  CZ       -15.8370   -2.7250  -44.5020 C.ar  158  PHE158     -0.0000
    138  N         -8.7950   -7.1120  -47.4020 N.3   176  MET176     -0.1245
    139  CA        -8.7830   -5.8940  -48.1600 C.3   176  MET176      0.1570
    140  C         -7.4140   -5.3040  -48.0540 C.2   176  MET176      0.2261
    141  O         -6.7130   -5.4210  -47.0550 O.2   176  MET176     -0.2867
    142  CB        -9.8520   -4.9750  -47.6370 C.3   176  MET176      0.0387
    143  CG       -11.1560   -5.7830  -47.5060 C.3   176  MET176      0.0595
    144  SD       -12.4910   -4.8990  -46.7610 S.3   176  MET176     -0.1393
    145  CE       -12.8230   -3.8430  -48.1570 C.3   176  MET176      0.0692
@<TRIPOS>BOND
     1    35    34    2
     2    34    33    1
     3    33    36    1
     4    33    32    1
     5    36    37    1
     6     1     2    1
     7    37    39   ar
     8    37    38   ar
     9     2     5    1
    10     2     3    1
    11    42    39   ar
    12    42    44   ar
    13   101   100    2
    14   100    99    1
    15     5     6    1
    16    39    41   ar
    17    38    40   ar
    18     3     4    2
    19    44    45   ar
    20     8     6   ar
    21     8    10   ar
    22     6     7   ar
    23    99    98    1
    24    99   102    1
    25    41    40   ar
    26    41    43   ar
    27   103   102    1
    28    10    11   ar
    29    45    43   ar
    30    27    26    2
    31   102   104    1
    32     7     9   ar
    33    26    25    1
    34    11     9   ar
    35    11    12    1
    36    25    28    1
    37    25    24    1
    38    28    29    1
    39    90    91    2
    40    90    89    1
    41    13    14    1
    42    79    77    1
    43    29    31    1
    44    29    30    1
    45    89    92    1
    46    89    88    1
    47    78    77    1
    48    52    54   ar
    49    52    51   ar
    50    54    55   ar
    51    92    93    1
    52   114   113   ar
    53   114   112   ar
    54    14    15    1
    55    14    17    1
    56    77    76    1
    57    46    47    1
    58    93    94   ar
    59    93    95   ar
    60    18    17    1
    61    18    19    1
    62    94    96   ar
    63   113   111   ar
    64    95    97   ar
    65    15    16    2
    66   112   110   ar
    67    96    97   ar
    68    51    50    1
    69    51    53   ar
    70    55    53   ar
    71    19    20    1
    72    50    47    1
    73    75    74    2
    74    47    48    1
    75    76    73    1
    76    74    73    1
    77   111   110   ar
    78   110   109    1
    79    20    21    2
    80    73    72    1
    81    49    48    2
    82   105   106    1
    83    87    85    1
    84    21    22    1
    85    21    23    1
    86   109   106    1
    87   126   125    1
    88    65    64   ar
    89    65    63   ar
    90   139   140    1
    91   139   142    1
    92   139   138    1
    93   145   144    1
    94    64    62   ar
    95   140   141    2
    96   106   107    1
    97   142   143    1
    98   143   144    1
    99    86    84    1
   100    85    84    1
   101    84    81    1
   102   125   123   ar
   103   125   124   ar
   104    63    61   ar
   105    62    61   ar
   106    71   124    1
   107    71    70    1
   108   123   121   ar
   109   107   108    2
   110    80    81    1
   111    81    82    1
   112    61    60    1
   113   124   122   ar
   114    69    68    2
   115    70    67    1
   116   121   120   ar
   117    68    67    1
   118    56    57    1
   119    82    83    2
   120   122   120   ar
   121    60    57    1
   122   135   137   ar
   123   135   133   ar
   124   137   136   ar
   125    57    58    1
   126    67    66    1
   127   120   119    1
   128   133   132   ar
   129   136   134   ar
   130    58    59    2
   131   130   129    2
   132   115   116    1
   133   119   116    1
   134   132   134   ar
   135   132   131    1
   136   116   117    1
   137   129   128    1
   138   131   128    1
   139   128   127    1
   140   117   118    2
