@<TRIPOS>MOLECULE
tmp/3eluA00.pdb
 185 181 0 0 0
SMALL
GASTEIGER

@<TRIPOS>ATOM
      1  N        -19.4600    2.8810    3.6880 N.3    51  SER51      -0.1217
      2  CA       -19.1840    2.8730    5.1270 C.3    51  SER51       0.1889
      3  C        -17.9010    2.1350    5.4920 C.2    51  SER51       0.2288
      4  O        -17.3960    1.2990    4.7350 O.2    51  SER51      -0.2866
      5  CB       -20.3540    2.2810    5.9170 C.3    51  SER51       0.2089
      6  OG       -20.3340    0.8670    5.8780 O.3    51  SER51      -0.2183
      7  N        -17.7590   -0.0250    7.8140 N.3    53  GLY53      -0.1225
      8  CA       -18.1710   -1.3980    8.1390 C.3    53  GLY53       0.1811
      9  C        -17.8940   -2.4480    7.0750 C.2    53  GLY53       0.2280
     10  O        -17.7880   -3.6320    7.3840 O.2    53  GLY53      -0.2866
     11  N        -29.4220   -8.7880    4.0820 N.3    74  ASP74      -0.1239
     12  CA       -28.6270   -7.9110    4.9310 C.3    74  ASP74       0.1674
     13  C        -29.5440   -7.1320    5.8640 C.2    74  ASP74       0.2266
     14  O        -30.1580   -6.1450    5.4660 O.2    74  ASP74      -0.2867
     15  CB       -27.7810   -6.9570    4.0740 C.3    74  ASP74       0.1410
     16  CG       -26.8930   -6.0370    4.8990 C.2    74  ASP74       0.3668
     17  OD1      -26.7710   -6.2340    6.1280 O.co2  74  ASP74      -0.2456
     18  OD2      -26.3160   -5.1010    4.3050 O.co2  74  ASP74      -0.2456
     19  N        -30.4090   -4.7440    8.9310 N.3    76  GLY76      -0.1210
     20  CA       -29.7520   -3.5690    9.5030 C.3    76  GLY76       0.1956
     21  C        -28.6440   -3.0770    8.5840 C.2    76  GLY76       0.2612
     22  O        -27.5110   -2.8870    9.0200 O.2    76  GLY76      -0.2717
     23  N        -28.9740   -2.8700    7.3070 N.am   77  CYS77      -0.1956
     24  CA       -27.9670   -2.5170    6.2990 C.3    77  CYS77       0.1843
     25  C        -27.4180   -1.0980    6.4280 C.2    77  CYS77       0.2626
     26  O        -26.3120   -0.8140    5.9470 O.2    77  CYS77      -0.2714
     27  CB       -28.4900   -2.7600    4.8760 C.3    77  CYS77       0.0997
     28  SG       -29.8970   -1.7520    4.3700 S.3    77  CYS77      -0.0797
     29  N        -28.1750   -0.2190    7.0880 N.am   78  GLY78      -0.1940
     30  CA       -27.8070    1.1950    7.1890 C.3    78  GLY78       0.2014
     31  C        -27.5710    1.7790    5.8080 C.2    78  GLY78       0.2639
     32  O        -28.4080    1.6210    4.9070 O.2    78  GLY78      -0.2714
     33  N        -26.4200    2.4350    5.6430 N.am   79  ARG79      -0.1963
     34  CA       -25.9930    2.9740    4.3530 C.3    79  ARG79       0.1729
     35  C        -25.8210    1.8970    3.2860 C.2    79  ARG79       0.2617
     36  O        -25.9940    2.1690    2.1070 O.2    79  ARG79      -0.2715
     37  CB       -24.6750    3.7270    4.4910 C.3    79  ARG79       0.0348
     38  CG       -24.6480    4.8250    5.5190 C.3    79  ARG79       0.0492
     39  CD       -23.3000    5.4950    5.4520 C.3    79  ARG79       0.2205
     40  NE       -23.0670    6.4330    6.5370 N.pl3  79  ARG79      -0.0865
     41  CZ       -21.9190    7.0770    6.7280 C.cat  79  ARG79       0.5346
     42  NH1      -20.8960    6.8770    5.9040 N.pl3  79  ARG79       0.1354
     43  NH2      -21.7930    7.9170    7.7450 N.pl3  79  ARG79       0.1354
     44  N        -25.4440    0.6880    3.7010 N.am   80  GLY80      -0.1940
     45  CA       -25.3870   -0.4530    2.7930 C.3    80  GLY80       0.2014
     46  C        -24.0020   -0.9850    2.4790 C.2    80  GLY80       0.2639
     47  O        -23.8250   -1.6910    1.4930 O.2    80  GLY80      -0.2714
     48  N        -23.0270   -0.6650    3.3210 N.am   81  GLY81      -0.1939
     49  CA       -21.6460   -1.1160    3.1210 C.3    81  GLY81       0.2014
     50  C        -21.4540   -2.6120    2.9240 C.2    81  GLY81       0.2638
     51  O        -20.6460   -3.0320    2.0920 O.2    81  GLY81      -0.2714
     52  N        -22.1940   -3.4150    3.6870 N.am   82  TRP82      -0.1973
     53  CA       -22.1730   -4.8730    3.5520 C.3    82  TRP82       0.1640
     54  C        -22.9710   -5.3430    2.3300 C.2    82  TRP82       0.2290
     55  O        -22.6260   -6.3580    1.7060 O.2    82  TRP82      -0.2864
     56  CB       -22.7510   -5.5340    4.8000 C.3    82  TRP82       0.0576
     57  CG       -21.8500   -5.5730    6.0110 C.ar   82  TRP82       0.0006
     58  CD1      -20.8070   -4.7360    6.3060 C.ar   82  TRP82       0.0946
     59  CD2      -21.9630   -6.4770    7.1140 C.ar   82  TRP82       0.0152
     60  NE1      -20.2530   -5.0730    7.5240 N.ar   82  TRP82      -0.2442
     61  CE2      -20.9390   -6.1460    8.0350 C.ar   82  TRP82       0.0810
     62  CE3      -22.8100   -7.5590    7.3980 C.ar   82  TRP82       0.0012
     63  CZ2      -20.7420   -6.8620    9.2200 C.ar   82  TRP82       0.0191
     64  CZ3      -22.6210   -8.2640    8.5810 C.ar   82  TRP82       0.0001
     65  CH2      -21.5870   -7.9190    9.4720 C.ar   82  TRP82       0.0015
     66  N        -32.3090   -4.4360    4.4370 N.3    98  TYR98      -0.1227
     67  CA       -33.4020   -3.8680    5.2200 C.3    98  TYR98       0.1736
     68  C        -32.8530   -3.0530    6.3790 C.2    98  TYR98       0.2596
     69  O        -31.9220   -3.4790    7.0390 O.2    98  TYR98      -0.2718
     70  CB       -34.2970   -4.9790    5.7770 C.3    98  TYR98       0.0548
     71  CG       -35.1430   -5.7090    4.7510 C.ar   98  TYR98      -0.0200
     72  CD1      -35.0000   -7.0850    4.5600 C.ar   98  TYR98      -0.0009
     73  CD2      -36.1040   -5.0340    4.0000 C.ar   98  TYR98      -0.0009
     74  CE1      -35.7820   -7.7710    3.6240 C.ar   98  TYR98       0.0417
     75  CE2      -36.9030   -5.7090    3.0670 C.ar   98  TYR98       0.0417
     76  CZ       -36.7300   -7.0720    2.8830 C.ar   98  TYR98       0.1957
     77  OH       -37.5120   -7.7410    1.9730 O.3    98  TYR98      -0.2866
     78  N        -33.4310   -1.8790    6.6240 N.am   99  THR99      -0.1939
     79  CA       -32.9600   -1.0120    7.7000 C.3    99  THR99       0.2028
     80  C        -34.0630   -0.0450    8.1380 C.2    99  THR99       0.2642
     81  O        -34.9930    0.2330    7.3710 O.2    99  THR99      -0.2714
     82  CB       -31.6440   -0.2550    7.3170 C.3    99  THR99       0.1808
     83  OG1      -30.9180    0.1120    8.5080 O.3    99  THR99      -0.2208
     84  CG2      -31.9360    0.9860    6.4610 C.3    99  THR99       0.0379
     85  N        -33.9670    0.4300    9.3790 N.am  100  LEU100     -0.1963
     86  CA       -34.9490    1.3780    9.9260 C.3   100  LEU100      0.1728
     87  C        -34.9950    2.6700    9.1250 C.2   100  LEU100      0.2616
     88  O        -36.0280    3.0130    8.5460 O.2   100  LEU100     -0.2715
     89  CB       -34.6620    1.6810   11.3960 C.3   100  LEU100      0.0311
     90  CG       -35.0650    0.6060   12.4000 C.3   100  LEU100      0.0022
     91  CD1      -34.4660    0.9180   13.7580 C.3   100  LEU100      0.0001
     92  CD2      -36.5870    0.4860   12.4910 C.3   100  LEU100      0.0001
     93  N        -33.8680    3.3710    9.0690 N.am  101  GLY101     -0.1955
     94  CA       -33.7970    4.6320    8.3410 C.3   101  GLY101      0.1869
     95  C        -34.6490    5.7270    8.9750 C.2   101  GLY101      0.2309
     96  O        -35.0270    6.6830    8.3030 O.2   101  GLY101     -0.2863
     97  N        -30.9840    7.4430   12.3050 N.3   105  HIS105     -0.1226
     98  CA       -30.4790    6.1720   11.7870 C.3   105  HIS105      0.1752
     99  C        -30.1170    6.3600   10.3220 C.2   105  HIS105      0.2595
    100  O        -30.8400    7.0440    9.5880 O.2   105  HIS105     -0.2718
    101  CB       -31.5300    5.0660   11.9180 C.3   105  HIS105      0.0759
    102  CG       -31.7690    4.6110   13.3260 C.ar  105  HIS105      0.0818
    103  ND1      -31.4150    3.3550   13.7740 N.ar  105  HIS105     -0.2268
    104  CD2      -32.3360    5.2390   14.3830 C.ar  105  HIS105      0.1154
    105  CE1      -31.7530    3.2300   15.0450 C.ar  105  HIS105      0.1986
    106  NE2      -32.3170    4.3590   15.4380 N.ar  105  HIS105     -0.2212
    107  N        -29.0080    5.7560    9.9010 N.am  106  GLU106     -0.1979
    108  CA       -28.5150    5.8910    8.5310 C.3   106  GLU106      0.1602
    109  C        -29.5140    5.3570    7.5090 C.2   106  GLU106      0.2287
    110  O        -30.1550    4.3320    7.7310 O.2   106  GLU106     -0.2864
    111  CB       -27.1770    5.1680    8.3690 C.3   106  GLU106      0.0415
    112  CG       -25.9970    5.8100    9.1130 C.3   106  GLU106      0.1163
    113  CD       -25.5440    7.1540    8.5280 C.2   106  GLU106      0.3649
    114  OE1      -25.7630    7.4160    7.3270 O.co2 106  GLU106     -0.2457
    115  OE2      -24.9510    7.9570    9.2780 O.co2 106  GLU106     -0.2457
    116  N        -37.9610   -0.2970    7.7210 N.3   125  SER125     -0.1202
    117  CA       -38.1960   -1.7310    7.9040 C.3   125  SER125      0.2020
    118  C        -37.5910   -2.2060    9.2100 C.2   125  SER125      0.2619
    119  O        -36.3690   -2.1820    9.3970 O.2   125  SER125     -0.2717
    120  CB       -37.6240   -2.5370    6.7320 C.3   125  SER125      0.2103
    121  OG       -38.2280   -2.1640    5.5010 O.3   125  SER125     -0.2182
    122  N        -38.4470   -2.6240   10.1300 N.am  126  ASN126     -0.1960
    123  CA       -37.9710   -3.1880   11.3780 C.3   126  ASN126      0.1819
    124  C        -37.7620   -4.6850   11.1720 C.2   126  ASN126      0.2621
    125  O        -38.7290   -5.4390   11.0300 O.2   126  ASN126     -0.2715
    126  CB       -38.9640   -2.9020   12.5110 C.3   126  ASN126      0.1195
    127  CG       -38.4760   -3.3840   13.8660 C.2   126  ASN126      0.2630
    128  OD1      -37.4940   -4.1330   13.9800 O.2   126  ASN126     -0.2716
    129  ND2      -39.1770   -2.9680   14.9070 N.am  126  ASN126     -0.0877
    130  N        -36.4950   -5.1060   11.1490 N.am  127  VAL127     -0.1963
    131  CA       -36.1580   -6.5050   10.8800 C.3   127  VAL127      0.1727
    132  C        -36.6140   -7.4650   11.9910 C.2   127  VAL127      0.2616
    133  O        -36.7470   -8.6700   11.7460 O.2   127  VAL127     -0.2715
    134  CB       -34.6410   -6.7210   10.5770 C.3   127  VAL127      0.0290
    135  CG1      -34.1860   -5.8690    9.3850 C.3   127  VAL127      0.0023
    136  CG2      -33.7930   -6.4540   11.8100 C.3   127  VAL127      0.0023
    137  N        -36.8510   -6.9310   13.1900 N.am  128  PHE128     -0.1974
    138  CA       -37.3400   -7.7230   14.3340 C.3   128  PHE128      0.1639
    139  C        -38.8180   -8.1030   14.2420 C.2   128  PHE128      0.2290
    140  O        -39.2300   -9.1000   14.8310 O.2   128  PHE128     -0.2864
    141  CB       -37.1360   -6.9880   15.6680 C.3   128  PHE128      0.0560
    142  CG       -35.7010   -6.6700   15.9920 C.ar  128  PHE128     -0.0200
    143  CD1      -35.4000   -5.6240   16.8580 C.ar  128  PHE128     -0.0042
    144  CD2      -34.6540   -7.4080   15.4420 C.ar  128  PHE128     -0.0042
    145  CE1      -34.0790   -5.3150   17.1760 C.ar  128  PHE128     -0.0003
    146  CE2      -33.3290   -7.1030   15.7440 C.ar  128  PHE128     -0.0003
    147  CZ       -33.0410   -6.0520   16.6160 C.ar  128  PHE128     -0.0000
    148  N        -25.8350   -6.8800   10.9650 N.3   141  ASP141     -0.1225
    149  CA       -24.8510   -6.0860   11.6370 C.3   141  ASP141      0.1805
    150  C        -25.3400   -5.1540   12.7800 C.2   141  ASP141      0.2598
    151  O        -24.8160   -4.1160   12.9860 O.2   141  ASP141     -0.2718
    152  CB       -23.9360   -5.4200   10.6290 C.3   141  ASP141      0.1424
    153  CG       -22.7540   -4.7220   11.2540 C.2   141  ASP141      0.3668
    154  OD1      -22.3360   -5.1360   12.3120 O.co2 141  ASP141     -0.2456
    155  OD2      -22.3380   -3.7870   10.6340 O.co2 141  ASP141     -0.2456
    156  N        -26.3530   -5.6340   13.4810 N.am  142  ILE142     -0.1966
    157  CA       -27.0980   -4.8430   14.4390 C.3   142  ILE142      0.1727
    158  C        -26.6190   -5.0480   15.8870 C.2   142  ILE142      0.2617
    159  O        -26.3440   -6.1280   16.2370 O.2   142  ILE142     -0.2715
    160  CB       -28.5870   -5.2400   14.3750 C.3   142  ILE142      0.0290
    161  CG1      -29.1520   -5.1160   12.9660 C.3   142  ILE142      0.0022
    162  CG2      -29.4230   -4.5210   15.4410 C.3   142  ILE142      0.0023
    163  CD1      -30.4700   -5.4970   12.7750 C.3   142  ILE142      0.0001
    164  N        -26.6170   -4.0120   16.6970 N.am  143  GLY143     -0.1940
    165  CA       -26.1740   -4.0820   18.0860 C.3   143  GLY143      0.2014
    166  C        -25.6730   -2.7070   18.4340 C.2   143  GLY143      0.2638
    167  O        -24.5280   -2.3720   18.1490 O.2   143  GLY143     -0.2714
    168  N        -26.5570   -1.9010   19.0090 N.am  144  GLU144     -0.1977
    169  CA       -26.2500   -0.5140   19.3690 C.3   144  GLU144      0.1602
    170  C        -25.6790   -0.4520   20.7870 C.2   144  GLU144      0.2287
    171  O        -26.3440   -0.8490   21.7380 O.2   144  GLU144     -0.2864
    172  CB       -27.5270    0.3300   19.2790 C.3   144  GLU144      0.0415
    173  CG       -27.3320    1.8310   19.5090 C.3   144  GLU144      0.1163
    174  CD       -28.6450    2.6010   19.4420 C.2   144  GLU144      0.3649
    175  OE1      -29.6440    2.0460   18.9300 O.co2 144  GLU144     -0.2457
    176  OE2      -28.6800    3.7590   19.8980 O.co2 144  GLU144     -0.2457
    177  N        -23.7330   -9.9290   14.1190 N.3   177  LYS177     -0.1245
    178  CA       -23.0780   -9.1570   15.1700 C.3   177  LYS177      0.1561
    179  C        -23.5800   -9.5860   16.5500 C.2   177  LYS177      0.2260
    180  O        -24.7910   -9.7140   16.7800 O.2   177  LYS177     -0.2867
    181  CB       -23.3010   -7.6560   14.9710 C.3   177  LYS177      0.0271
    182  CG       -22.5230   -6.7700   15.9550 C.3   177  LYS177      0.0035
    183  CD       -22.9880   -5.3220   15.8620 C.3   177  LYS177      0.0206
    184  CE       -22.1960   -4.4280   16.7930 C.3   177  LYS177      0.1093
    185  NZ       -22.4520   -3.0030   16.4670 N.3   177  LYS177     -0.1314
@<TRIPOS>BOND
     1    47    46    2
     2    55    54    2
     3    77    76    1
     4    51    50    2
     5    36    35    2
     6    54    53    1
     7    46    45    1
     8    46    48   am
     9    45    44    1
    10    76    75   ar
    11    76    74   ar
    12    50    49    1
    13    50    52   am
    14    75    73   ar
    15    49    48    1
    16    35    44   am
    17    35    34    1
    18    53    52    1
    19    53    56    1
    20    74    72   ar
    21     1     2    1
    22    73    71   ar
    23    15    16    1
    24    15    12    1
    25    11    12    1
    26    18    16   ar
    27    34    37    1
    28    34    33    1
    29    28    27    1
    30    66    67    1
    31    37    38    1
    32    72    71   ar
    33     4     3    2
    34    71    70    1
    35    56    57    1
    36    27    24    1
    37    16    17   ar
    38    32    31    2
    39    12    13    1
    40     2     3    1
    41     2     5    1
    42    67    70    1
    43    67    68    1
    44    39    38    1
    45    39    40    1
    46    14    13    2
    47   121   120    1
    48    33    31   am
    49    31    30    1
    50     6     5    1
    51    42    41    1
    52    26    25    2
    53    57    58   ar
    54    57    59   ar
    55    24    25    1
    56    24    23    1
    57    58    60   ar
    58    68    78   am
    59    68    69    2
    60    25    29   am
    61    84    82    1
    62    40    41    2
    63    78    79    1
    64    41    43    1
    65   120   117    1
    66     9    10    2
    67     9     8    1
    68    29    30    1
    69    59    62   ar
    70    59    61   ar
    71    23    21   am
    72    82    79    1
    73    82    83    1
    74   114   113   ar
    75    81    80    2
    76    62    64   ar
    77   109   110    2
    78   109   108    1
    79    60    61   ar
    80    79    80    1
    81   116   117    1
    82     7     8    1
    83   117   118    1
    84    61    63   ar
    85    80    85   am
    86    96    95    2
    87    94    95    1
    88    94    93    1
    89   111   108    1
    90   111   112    1
    91   113   112    1
    92   113   115   ar
    93   108   107    1
    94    88    87    2
    95    64    65   ar
    96    21    22    2
    97    21    20    1
    98    19    20    1
    99    93    87   am
   100    87    86    1
   101   118   119    2
   102   118   122   am
   103    63    65   ar
   104    85    86    1
   105   135   134    1
   106   100    99    2
   107   107    99   am
   108    86    89    1
   109   122   123    1
   110    99    98    1
   111   134   131    1
   112   134   136    1
   113   152   153    1
   114   152   149    1
   115   155   153   ar
   116   131   130    1
   117   131   132    1
   118   148   149    1
   119   125   124    2
   120   130   124   am
   121   124   123    1
   122   153   154   ar
   123   123   126    1
   124    89    90    1
   125   149   150    1
   126   133   132    2
   127    98   101    1
   128    98    97    1
   129   101   102    1
   130   132   137   am
   131    90    92    1
   132    90    91    1
   133   126   127    1
   134   163   161    1
   135   150   151    2
   136   150   156   am
   137   161   160    1
   138   137   138    1
   139   102   103   ar
   140   102   104   ar
   141   156   157    1
   142   103   105   ar
   143   127   128    2
   144   127   129   am
   145   177   178    1
   146   139   138    1
   147   139   140    2
   148   138   141    1
   149   160   157    1
   150   160   162    1
   151   104   106   ar
   152   157   158    1
   153   181   178    1
   154   181   182    1
   155   105   106   ar
   156   178   179    1
   157   144   146   ar
   158   144   142   ar
   159   141   142    1
   160   146   147   ar
   161   183   182    1
   162   183   184    1
   163   158   159    2
   164   158   164   am
   165   142   143   ar
   166   185   184    1
   167   179   180    2
   168   147   145   ar
   169   164   165    1
   170   143   145   ar
   171   165   166    1
   172   167   166    2
   173   166   168   am
   174   175   174   ar
   175   168   169    1
   176   172   169    1
   177   172   173    1
   178   169   170    1
   179   174   173    1
   180   174   176   ar
   181   170   171    2
