@<TRIPOS>MOLECULE
tmp/3elwA01.pdb
 181 169 0 0 0
SMALL
GASTEIGER

@<TRIPOS>ATOM
      1  N        -16.3580    3.4880  -29.9790 N.3     8  LYS8       -0.1245
      2  CA       -17.4200    2.5190  -29.6680 C.3     8  LYS8        0.1561
      3  C        -17.5620    1.4630  -30.7650 C.2     8  LYS8        0.2260
      4  O        -17.7390    0.2720  -30.4790 O.2     8  LYS8       -0.2867
      5  CB       -18.7570    3.2470  -29.4420 C.3     8  LYS8        0.0271
      6  CG       -19.9520    2.3480  -29.0730 C.3     8  LYS8        0.0035
      7  CD       -19.7790    1.6970  -27.6810 C.3     8  LYS8        0.0206
      8  CE       -21.0390    0.9730  -27.2480 C.3     8  LYS8        0.1093
      9  NZ       -20.8100    0.0840  -26.0700 N.3     8  LYS8       -0.1314
     10  N        -14.4550   -0.8180  -30.4660 N.3    11  LEU11      -0.1231
     11  CA       -14.5410   -1.7260  -29.3170 C.3    11  LEU11       0.1693
     12  C        -15.2610   -3.0340  -29.6790 C.2    11  LEU11       0.2592
     13  O        -14.8470   -4.1080  -29.2390 O.2    11  LEU11      -0.2718
     14  CB       -15.2500   -1.0420  -28.1330 C.3    11  LEU11       0.0284
     15  CG       -15.4180   -1.8560  -26.8430 C.3    11  LEU11       0.0019
     16  CD1      -14.0740   -2.0270  -26.1310 C.3    11  LEU11       0.0001
     17  CD2      -16.4440   -1.2140  -25.9010 C.3    11  LEU11       0.0001
     18  N        -16.3320   -2.9310  -30.4690 N.am   12  ASN12      -0.1974
     19  CA       -17.1150   -4.1000  -30.8880 C.3    12  ASN12       0.1688
     20  C        -16.3770   -5.0090  -31.8780 C.2    12  ASN12       0.2292
     21  O        -16.7550   -6.1700  -32.0620 O.2    12  ASN12      -0.2864
     22  CB       -18.4670   -3.6760  -31.4800 C.3    12  ASN12       0.1181
     23  CG       -19.5030   -4.8030  -31.4490 C.2    12  ASN12       0.2629
     24  OD1      -19.9030   -5.3440  -32.4920 O.2    12  ASN12      -0.2716
     25  ND2      -19.9360   -5.1620  -30.2490 N.am   12  ASN12      -0.0877
     26  N        -13.2750   -5.9190  -31.5710 N.3    14  LEU14      -0.1231
     27  CA       -12.2420   -6.6450  -30.8410 C.3    14  LEU14       0.1693
     28  C        -12.6420   -8.0760  -30.4920 C.2    14  LEU14       0.2593
     29  O        -13.6830   -8.3140  -29.8740 O.2    14  LEU14      -0.2718
     30  CB       -11.8410   -5.8840  -29.5660 C.3    14  LEU14       0.0284
     31  CG       -11.1550   -4.5230  -29.7210 C.3    14  LEU14       0.0019
     32  CD1      -10.9170   -3.8890  -28.3570 C.3    14  LEU14       0.0001
     33  CD2       -9.8370   -4.6420  -30.4940 C.3    14  LEU14       0.0001
     34  N        -11.7960   -9.0230  -30.8860 N.am   15  GLY15      -0.1942
     35  CA       -11.9470  -10.4160  -30.4680 C.3    15  GLY15       0.2014
     36  C        -11.7930  -10.5530  -28.9630 C.2    15  GLY15       0.2638
     37  O        -11.4160   -9.5970  -28.2820 O.2    15  GLY15      -0.2714
     38  N        -12.0850  -11.7440  -28.4480 N.am   16  LYS16      -0.1977
     39  CA       -12.1390  -11.9940  -27.0050 C.3    16  LYS16       0.1596
     40  C        -10.8620  -11.6040  -26.2600 C.2    16  LYS16       0.2287
     41  O        -10.9130  -10.8560  -25.2770 O.2    16  LYS16      -0.2864
     42  CB       -12.4920  -13.4600  -26.7290 C.3    16  LYS16       0.0298
     43  CG       -12.6210  -13.8010  -25.2480 C.3    16  LYS16       0.0038
     44  CD       -12.7730  -15.3010  -25.0260 C.3    16  LYS16       0.0206
     45  CE       -12.2520  -15.7180  -23.6510 C.3    16  LYS16       0.1093
     46  NZ       -12.8320  -14.9170  -22.5320 N.3    16  LYS16      -0.1314
     47  N        -10.1450   -7.8200  -26.5100 N.3    19  PHE19      -0.1227
     48  CA       -11.0780   -7.0830  -25.6470 C.3    19  PHE19       0.1736
     49  C        -10.6940   -7.1740  -24.1670 C.2    19  PHE19       0.2595
     50  O        -10.6810   -6.1600  -23.4590 O.2    19  PHE19      -0.2718
     51  CB       -12.5280   -7.5430  -25.8530 C.3    19  PHE19       0.0547
     52  CG       -13.4980   -6.9370  -24.8680 C.ar   19  PHE19      -0.0202
     53  CD1      -14.0090   -5.6530  -25.0710 C.ar   19  PHE19      -0.0042
     54  CD2      -13.8890   -7.6440  -23.7330 C.ar   19  PHE19      -0.0042
     55  CE1      -14.9040   -5.0800  -24.1460 C.ar   19  PHE19      -0.0003
     56  CE2      -14.7770   -7.0830  -22.8010 C.ar   19  PHE19      -0.0003
     57  CZ       -15.2860   -5.8040  -23.0130 C.ar   19  PHE19      -0.0000
     58  N        -10.3830   -8.3890  -23.7130 N.am   20  GLU20      -0.1979
     59  CA       -10.0280   -8.6360  -22.3150 C.3    20  GLU20       0.1602
     60  C         -8.7480   -7.9030  -21.9140 C.2    20  GLU20       0.2287
     61  O         -8.6790   -7.3100  -20.8290 O.2    20  GLU20      -0.2864
     62  CB        -9.9210  -10.1410  -22.0320 C.3    20  GLU20       0.0415
     63  CG       -11.2670  -10.8580  -21.8830 C.3    20  GLU20       0.1163
     64  CD       -12.1310  -10.2910  -20.7600 C.2    20  GLU20       0.3649
     65  OE1      -11.6700  -10.2510  -19.5970 O.co2  20  GLU20      -0.2457
     66  OE2      -13.2770   -9.8860  -21.0430 O.co2  20  GLU20      -0.2457
     67  N         -9.6120   -3.8530  -22.0070 N.3    23  LYS23      -0.1231
     68  CA       -10.4940   -3.2240  -21.0180 C.3    23  LYS23       0.1693
     69  C         -9.7930   -2.8180  -19.7090 C.2    23  LYS23       0.2591
     70  O        -10.2170   -1.8650  -19.0520 O.2    23  LYS23      -0.2718
     71  CB       -11.7490   -4.0710  -20.7690 C.3    23  LYS23       0.0285
     72  CG       -11.5530   -5.3210  -19.9440 C.3    23  LYS23       0.0035
     73  CD       -12.8780   -6.0460  -19.7770 C.3    23  LYS23       0.0206
     74  CE       -12.7570   -7.2150  -18.8290 C.3    23  LYS23       0.1093
     75  NZ       -13.9240   -8.1370  -18.9560 N.3    23  LYS23      -0.1314
     76  N         -8.7090   -3.5200  -19.3640 N.am   24  VAL24      -0.1980
     77  CA        -7.9500   -3.2520  -18.1320 C.3    24  VAL24       0.1595
     78  C         -6.6550   -2.4480  -18.3590 C.2    24  VAL24       0.2287
     79  O         -5.9560   -2.1020  -17.3970 O.2    24  VAL24      -0.2864
     80  CB        -7.6170   -4.5600  -17.3480 C.3    24  VAL24       0.0276
     81  CG1       -8.8900   -5.3180  -16.9810 C.3    24  VAL24       0.0022
     82  CG2       -6.6500   -5.4560  -18.1320 C.3    24  VAL24       0.0022
     83  N         -7.5190   -0.0820  -10.5410 N.3    29  GLU29      -0.1245
     84  CA        -8.4530   -1.0050   -9.8890 C.3    29  GLU29       0.1567
     85  C         -8.1980   -1.0160   -8.3930 C.2    29  GLU29       0.2260
     86  O         -7.0390   -1.0240   -7.9660 O.2    29  GLU29      -0.2867
     87  CB        -8.2650   -2.4410  -10.3900 C.3    29  GLU29       0.0388
     88  CG        -8.6980   -2.7140  -11.8160 C.3    29  GLU29       0.1160
     89  CD        -8.4470   -4.1630  -12.2270 C.2    29  GLU29       0.3649
     90  OE1       -7.8780   -4.9360  -11.4180 O.co2  29  GLU29      -0.2457
     91  OE2       -8.8190   -4.5270  -13.3610 O.co2  29  GLU29      -0.2457
     92  N        -14.4610   -8.8060   -0.5860 N.3    36  ARG36      -0.1245
     93  CA       -15.1100  -10.0150   -1.1050 C.3    36  ARG36       0.1563
     94  C        -15.1240  -11.1540   -0.0870 C.2    36  ARG36       0.2260
     95  O        -16.1270  -11.8570    0.0350 O.2    36  ARG36      -0.2867
     96  CB       -14.4720  -10.4600   -2.4260 C.3    36  ARG36       0.0307
     97  CG       -15.0140   -9.7010   -3.6320 C.3    36  ARG36       0.0489
     98  CD       -14.1180   -9.8200   -4.8550 C.3    36  ARG36       0.2205
     99  NE       -14.5710   -8.9010   -5.8990 N.pl3  36  ARG36      -0.0865
    100  CZ       -13.9600   -8.6960   -7.0650 C.cat  36  ARG36       0.5346
    101  NH1      -12.8460   -9.3510   -7.3740 N.pl3  36  ARG36       0.1354
    102  NH2      -14.4770   -7.8290   -7.9300 N.pl3  36  ARG36       0.1354
    103  N        -19.3750   -2.3420   -2.5070 N.3    51  SER51      -0.1202
    104  CA       -19.1780   -2.4100   -3.9510 C.3    51  SER51       0.2020
    105  C        -17.8760   -1.7660   -4.4190 C.2    51  SER51       0.2618
    106  O        -17.2940   -0.9180   -3.7320 O.2    51  SER51      -0.2717
    107  CB       -20.3660   -1.7700   -4.6870 C.3    51  SER51       0.2103
    108  OG       -20.3290   -0.3580   -4.5660 O.3    51  SER51      -0.2182
    109  N        -17.4470   -2.1760   -5.6080 N.am   52  ARG52      -0.1979
    110  CA       -16.3120   -1.5850   -6.3030 C.3    52  ARG52       0.1597
    111  C        -16.5950   -0.1230   -6.6460 C.2    52  ARG52       0.2287
    112  O        -15.6760    0.6810   -6.7600 O.2    52  ARG52      -0.2864
    113  CB       -16.0390   -2.3850   -7.5790 C.3    52  ARG52       0.0334
    114  CG       -14.7400   -2.0530   -8.2720 C.3    52  ARG52       0.0492
    115  CD       -14.4900   -2.9510   -9.4800 C.3    52  ARG52       0.2205
    116  NE       -13.9620   -4.2670   -9.1160 N.pl3  52  ARG52      -0.0865
    117  CZ       -12.7090   -4.5050   -8.7260 C.cat  52  ARG52       0.5346
    118  NH1      -11.8280   -3.5140   -8.6170 N.pl3  52  ARG52       0.1354
    119  NH2      -12.3360   -5.7430   -8.4280 N.pl3  52  ARG52       0.1354
    120  N        -26.2030   -1.7750   -4.4630 N.3    79  ARG79      -0.1245
    121  CA       -25.7200   -2.3370   -3.1940 C.3    79  ARG79       0.1563
    122  C        -25.5260   -1.2710   -2.1100 C.2    79  ARG79       0.2260
    123  O        -25.7030   -1.5460   -0.9250 O.2    79  ARG79      -0.2867
    124  CB       -24.4050   -3.0780   -3.3990 C.3    79  ARG79       0.0307
    125  CG       -24.4830   -4.3400   -4.2330 C.3    79  ARG79       0.0489
    126  CD       -23.0790   -4.8640   -4.4350 C.3    79  ARG79       0.2205
    127  NE       -23.0450   -6.2400   -4.9110 N.pl3  79  ARG79      -0.0865
    128  CZ       -21.9620   -7.0120   -4.8880 C.cat  79  ARG79       0.5346
    129  NH1      -20.8130   -6.5520   -4.4010 N.pl3  79  ARG79       0.1354
    130  NH2      -22.0290   -8.2540   -5.3480 N.pl3  79  ARG79       0.1354
    131  N        -24.8030   -0.1770  -19.6360 N.3   145  SER145     -0.1202
    132  CA       -24.1120   -0.3370  -20.9130 C.3   145  SER145      0.2020
    133  C        -24.9510   -1.1050  -21.9320 C.2   145  SER145      0.2619
    134  O        -25.7420   -1.9860  -21.5780 O.2   145  SER145     -0.2717
    135  CB       -22.7640   -1.0470  -20.7170 C.3   145  SER145      0.2103
    136  OG       -21.8560   -0.2430  -19.9840 O.3   145  SER145     -0.2182
    137  N        -24.7590   -0.7470  -23.1970 N.am  146  SER146     -0.1937
    138  CA       -25.3240   -1.4600  -24.3280 C.3   146  SER146      0.2055
    139  C        -24.3300   -1.3550  -25.4730 C.2   146  SER146      0.2643
    140  O        -23.6440   -0.3380  -25.6140 O.2   146  SER146     -0.2714
    141  CB       -26.6540   -0.8390  -24.7410 C.3   146  SER146      0.2130
    142  OG       -27.1310   -1.4210  -25.9380 O.3   146  SER146     -0.2179
    143  N        -24.2320   -2.4110  -26.2790 N.am  147  SER147     -0.1949
    144  CA       -23.3810   -2.3640  -27.4680 C.3   147  SER147      0.1924
    145  C        -23.9970   -1.4730  -28.5530 C.2   147  SER147      0.2314
    146  O        -23.3200   -1.0750  -29.4960 O.2   147  SER147     -0.2863
    147  CB       -23.0900   -3.7670  -28.0070 C.3   147  SER147      0.2116
    148  OG       -24.2920   -4.4500  -28.3190 O.3   147  SER147     -0.2180
    149  N        -27.4580    3.5520  -25.5890 N.3   152  GLU152     -0.1245
    150  CA       -26.6530    4.2650  -24.5920 C.3   152  GLU152      0.1567
    151  C        -26.9820    5.7590  -24.5640 C.2   152  GLU152      0.2260
    152  O        -27.0820    6.3510  -23.4850 O.2   152  GLU152     -0.2867
    153  CB       -25.1570    4.0490  -24.8270 C.3   152  GLU152      0.0388
    154  CG       -24.6740    2.6180  -24.5650 C.3   152  GLU152      0.1160
    155  CD       -23.2120    2.5530  -24.1590 C.2   152  GLU152      0.3649
    156  OE1      -22.4110    3.3750  -24.6510 O.co2 152  GLU152     -0.2457
    157  OE2      -22.8610    1.6800  -23.3340 O.co2 152  GLU152     -0.2457
    158  N        -13.4640    1.1300  -16.5280 N.3   208  ARG208     -0.1245
    159  CA       -12.7990    0.2730  -17.5140 C.3   208  ARG208      0.1563
    160  C        -12.7350    0.9570  -18.8820 C.2   208  ARG208      0.2260
    161  O        -13.5410    1.8440  -19.1820 O.2   208  ARG208     -0.2867
    162  CB       -13.4960   -1.0890  -17.6100 C.3   208  ARG208      0.0307
    163  CG       -13.3740   -1.9280  -16.3370 C.3   208  ARG208      0.0489
    164  CD       -14.1060   -3.2640  -16.4470 C.3   208  ARG208      0.2205
    165  NE       -15.5460   -3.1180  -16.6760 N.pl3 208  ARG208     -0.0865
    166  CZ       -16.4560   -2.9110  -15.7240 C.cat 208  ARG208      0.5346
    167  NH1      -16.0950   -2.8080  -14.4490 N.pl3 208  ARG208      0.1354
    168  NH2      -17.7360   -2.7960  -16.0500 N.pl3 208  ARG208      0.1354
    169  N        -13.6130   -0.2500  -21.5130 N.3   210  SER210     -0.1202
    170  CA       -14.7750   -0.7590  -22.2490 C.3   210  SER210      0.2020
    171  C        -16.0280    0.1150  -22.0980 C.2   210  SER210      0.2619
    172  O        -17.0760   -0.1760  -22.6870 O.2   210  SER210     -0.2717
    173  CB       -15.0810   -2.1800  -21.7920 C.3   210  SER210      0.2103
    174  OG       -15.2170   -2.2140  -20.3850 O.3   210  SER210     -0.2182
    175  N        -15.9250    1.1780  -21.3040 N.am  211  THR211     -0.1952
    176  CA       -17.0020    2.1620  -21.2000 C.3   211  THR211      0.1897
    177  C        -16.4610    3.5840  -21.3830 C.2   211  THR211      0.2313
    178  O        -15.3340    3.8800  -20.9790 O.2   211  THR211     -0.2863
    179  CB       -17.7980    2.0480  -19.8640 C.3   211  THR211      0.1794
    180  OG1      -18.8160    3.0540  -19.8420 O.3   211  THR211     -0.2208
    181  CG2      -16.8910    2.2370  -18.6330 C.3   211  THR211      0.0378
@<TRIPOS>BOND
     1    24    23    2
     2    21    20    2
     3    20    19    1
     4    26    27    1
     5    22    23    1
     6    22    19    1
     7    23    25   am
     8    19    18    1
     9    34    28   am
    10    34    35    1
    11    27    28    1
    12    27    30    1
    13     3     4    2
    14     3     2    1
    15    33    31    1
    16    28    29    2
    17    18    12   am
    18    35    36    1
    19    10    11    1
    20     1     2    1
    21    31    30    1
    22    31    32    1
    23    12    11    1
    24    12    13    2
    25     2     5    1
    26   146   145    2
    27     5     6    1
    28    11    14    1
    29     6     7    1
    30    36    38   am
    31    36    37    2
    32   145   144    1
    33    38    39    1
    34   148   147    1
    35    14    15    1
    36   147   144    1
    37     7     8    1
    38   144   143    1
    39     8     9    1
    40    39    42    1
    41    39    40    1
    42    15    16    1
    43    15    17    1
    44    42    43    1
    45    47    48    1
    46   143   139   am
    47    40    41    2
    48   142   141    1
    49    51    48    1
    50    51    52    1
    51    48    49    1
    52   140   139    2
    53   149   150    1
    54   139   138    1
    55    43    44    1
    56    53    52   ar
    57    53    55   ar
    58    44    45    1
    59    52    54   ar
    60   153   150    1
    61   153   154    1
    62   141   138    1
    63   156   155   ar
    64   150   151    1
    65   154   155    1
    66   151   152    2
    67   138   137    1
    68    49    58   am
    69    49    50    2
    70   155   157   ar
    71    55    57   ar
    72    54    56   ar
    73    58    59    1
    74    45    46    1
    75   137   133   am
    76    57    56   ar
    77   172   171    2
    78    59    62    1
    79    59    60    1
    80   170   171    1
    81   170   173    1
    82   170   169    1
    83   171   175   am
    84    62    63    1
    85    67    68    1
    86   133   134    2
    87   133   132    1
    88    60    61    2
    89    63    64    1
    90   173   174    1
    91   177   176    1
    92   177   178    2
    93   175   176    1
    94   176   179    1
    95    66    64   ar
    96    68    71    1
    97    68    69    1
    98   132   135    1
    99   132   131    1
   100    71    72    1
   101    64    65   ar
   102   135   136    1
   103    72    73    1
   104   179   180    1
   105   179   181    1
   106    73    74    1
   107    69    76   am
   108    69    70    2
   109    76    77    1
   110   161   160    2
   111    75    74    1
   112   160   159    1
   113    78    77    1
   114    78    79    2
   115    77    80    1
   116    82    80    1
   117   162   159    1
   118   162   163    1
   119   159   158    1
   120    80    81    1
   121   165   164    1
   122   165   166    2
   123   164   163    1
   124   168   166    1
   125   166   167    1
   126    91    89   ar
   127    89    88    1
   128    89    90   ar
   129    88    87    1
   130    83    84    1
   131    87    84    1
   132    84    85    1
   133   115   116    1
   134   115   114    1
   135   116   117    2
   136   117   118    1
   137   117   119    1
   138    85    86    2
   139   114   113    1
   140   102   100    1
   141   113   110    1
   142   101   100    1
   143   100    99    2
   144   112   111    2
   145   111   110    1
   146   110   109    1
   147    99    98    1
   148   109   105   am
   149   130   128    1
   150   127   128    2
   151   127   126    1
   152   128   129    1
   153    98    97    1
   154   107   108    1
   155   107   104    1
   156   120   121    1
   157   126   125    1
   158   105   104    1
   159   105   106    2
   160   125   124    1
   161   104   103    1
   162    97    96    1
   163   124   121    1
   164   121   122    1
   165    96    93    1
   166   122   123    2
   167    93    92    1
   168    93    94    1
   169    94    95    2
