@<TRIPOS>MOLECULE
tmp/3em0B00.pdb
 199 188 0 0 0
SMALL
GASTEIGER

@<TRIPOS>ATOM
      1  N        -37.6000  -20.2810    1.4960 N.3    18  PHE18      -0.1241
      2  CA       -37.9650  -20.8490    0.1910 C.3    18  PHE18       0.1605
      3  C        -36.8130  -21.6310   -0.4700 C.2    18  PHE18       0.2264
      4  O        -37.0160  -22.7420   -0.9630 O.2    18  PHE18      -0.2867
      5  CB       -38.5000  -19.7480   -0.7410 C.3    18  PHE18       0.0534
      6  CG       -39.0790  -20.2650   -2.0330 C.ar   18  PHE18      -0.0203
      7  CD1      -40.4310  -20.5850   -2.1250 C.ar   18  PHE18      -0.0042
      8  CD2      -38.2740  -20.4110   -3.1630 C.ar   18  PHE18      -0.0042
      9  CE1      -40.9670  -21.0600   -3.3150 C.ar   18  PHE18      -0.0003
     10  CE2      -38.8010  -20.8830   -4.3580 C.ar   18  PHE18      -0.0003
     11  CZ       -40.1440  -21.2120   -4.4330 C.ar   18  PHE18      -0.0000
     12  N        -36.6280  -25.9530   -1.1910 N.3    22  ILE22      -0.1245
     13  CA       -36.4550  -26.5660   -2.5110 C.3    22  ILE22       0.1561
     14  C        -35.1170  -27.3130   -2.6750 C.2    22  ILE22       0.2260
     15  O        -34.8980  -27.9890   -3.6780 O.2    22  ILE22      -0.2867
     16  CB       -36.6940  -25.5570   -3.6900 C.3    22  ILE22       0.0252
     17  CG1      -35.6210  -24.4590   -3.7220 C.3    22  ILE22       0.0019
     18  CG2      -38.0900  -24.9650   -3.6040 C.3    22  ILE22       0.0019
     19  CD1      -35.7000  -23.5640   -4.9440 C.3    22  ILE22       0.0001
     20  N        -39.4220  -15.5080  -21.7180 N.3    50  TRP50      -0.1241
     21  CA       -39.1270  -15.0980  -20.3550 C.3    50  TRP50       0.1605
     22  C        -37.6870  -15.4330  -20.0740 C.2    50  TRP50       0.2264
     23  O        -37.3320  -16.6030  -19.9730 O.2    50  TRP50      -0.2867
     24  CB       -40.0210  -15.8660  -19.3860 C.3    50  TRP50       0.0550
     25  CG       -40.2100  -15.2030  -18.0470 C.ar   50  TRP50       0.0003
     26  CD1      -39.3520  -15.2310  -16.9850 C.ar   50  TRP50       0.0946
     27  CD2      -41.3420  -14.4330  -17.6380 C.ar   50  TRP50       0.0152
     28  NE1      -39.8880  -14.5290  -15.9320 N.ar   50  TRP50      -0.2442
     29  CE2      -41.1050  -14.0170  -16.3130 C.ar   50  TRP50       0.0810
     30  CE3      -42.5390  -14.0520  -18.2700 C.ar   50  TRP50       0.0012
     31  CZ2      -42.0230  -13.2450  -15.5960 C.ar   50  TRP50       0.0191
     32  CZ3      -43.4540  -13.2780  -17.5560 C.ar   50  TRP50       0.0001
     33  CH2      -43.1900  -12.8860  -16.2330 C.ar   50  TRP50       0.0015
     34  N        -34.2040  -15.0200  -17.7300 N.3    52  GLN52      -0.1245
     35  CA       -33.6030  -14.6930  -16.4410 C.3    52  GLN52       0.1566
     36  C        -32.0850  -14.7830  -16.5310 C.2    52  GLN52       0.2260
     37  O        -31.5340  -15.8070  -16.9540 O.2    52  GLN52      -0.2867
     38  CB       -34.1260  -15.6330  -15.3590 C.3    52  GLN52       0.0367
     39  CG       -35.6020  -15.4420  -15.0660 C.3    52  GLN52       0.0905
     40  CD       -36.1670  -16.5520  -14.2130 C.2    52  GLN52       0.2608
     41  OE1      -36.8560  -16.2940  -13.2270 O.2    52  GLN52      -0.2717
     42  NE2      -35.8730  -17.7950  -14.5840 N.am   52  GLN52      -0.0878
     43  N        -28.9030  -15.2830  -14.8550 N.3    54  TYR54      -0.1241
     44  CA       -28.2880  -15.8720  -13.6690 C.3    54  TYR54       0.1605
     45  C        -26.8020  -15.5280  -13.6110 C.2    54  TYR54       0.2264
     46  O        -26.2590  -14.9920  -14.5880 O.2    54  TYR54      -0.2867
     47  CB       -28.5060  -17.3930  -13.6780 C.3    54  TYR54       0.0534
     48  CG       -29.7890  -17.8530  -12.9880 C.ar   54  TYR54      -0.0201
     49  CD1      -29.7320  -18.6150  -11.8210 C.ar   54  TYR54      -0.0009
     50  CD2      -31.0500  -17.5390  -13.5080 C.ar   54  TYR54      -0.0009
     51  CE1      -30.8960  -19.0490  -11.1830 C.ar   54  TYR54       0.0417
     52  CE2      -32.2290  -17.9640  -12.8740 C.ar   54  TYR54       0.0417
     53  CZ       -32.1370  -18.7220  -11.7090 C.ar   54  TYR54       0.1957
     54  OH       -33.2770  -19.1620  -11.0590 O.3    54  TYR54      -0.2866
     55  N        -31.3890  -18.2410  -18.4790 N.3    60  VAL60      -0.1245
     56  CA       -32.4750  -19.2020  -18.3370 C.3    60  VAL60       0.1561
     57  C        -33.6870  -18.6460  -19.0880 C.2    60  VAL60       0.2260
     58  O        -34.2580  -17.6260  -18.6980 O.2    60  VAL60      -0.2867
     59  CB       -32.8000  -19.4630  -16.8450 C.3    60  VAL60       0.0252
     60  CG1      -34.0540  -20.3070  -16.6910 C.3    60  VAL60       0.0019
     61  CG2      -31.6250  -20.1230  -16.1660 C.3    60  VAL60       0.0019
     62  N        -37.4650  -19.3110  -20.8200 N.3    62  ASN62      -0.1240
     63  CA       -38.6850  -20.0890  -20.8780 C.3    62  ASN62       0.1653
     64  C        -39.6170  -19.4450  -21.8930 C.2    62  ASN62       0.2266
     65  O        -39.9810  -18.2680  -21.7620 O.2    62  ASN62      -0.2867
     66  CB       -39.3480  -20.2060  -19.4920 C.3    62  ASN62       0.1155
     67  CG       -38.8000  -21.3770  -18.6640 C.2    62  ASN62       0.2627
     68  OD1      -39.1480  -22.5310  -18.9010 O.2    62  ASN62      -0.2716
     69  ND2      -37.9470  -21.0780  -17.6880 N.am   62  ASN62      -0.0877
     70  N        -43.2890  -19.7700  -23.7530 N.3    64  PHE64      -0.1241
     71  CA       -44.6070  -20.3600  -23.5920 C.3    64  PHE64       0.1605
     72  C        -45.7230  -19.6350  -24.3280 C.2    64  PHE64       0.2264
     73  O        -45.5840  -18.4750  -24.7240 O.2    64  PHE64      -0.2867
     74  CB       -44.9700  -20.5540  -22.1040 C.3    64  PHE64       0.0534
     75  CG       -45.0770  -19.2790  -21.3180 C.ar   64  PHE64      -0.0203
     76  CD1      -43.9480  -18.7260  -20.7000 C.ar   64  PHE64      -0.0042
     77  CD2      -46.3130  -18.6490  -21.1600 C.ar   64  PHE64      -0.0042
     78  CE1      -44.0380  -17.5490  -19.9530 C.ar   64  PHE64      -0.0003
     79  CE2      -46.4220  -17.4710  -20.4080 C.ar   64  PHE64      -0.0003
     80  CZ       -45.2800  -16.9200  -19.8030 C.ar   64  PHE64      -0.0000
     81  N        -40.8790  -26.2130  -20.6990 N.3    72  MET72      -0.1230
     82  CA       -40.2990  -25.2830  -19.7430 C.3    72  MET72       0.1702
     83  C        -39.0670  -25.9470  -19.1290 C.2    72  MET72       0.2592
     84  O        -38.9450  -27.1740  -19.1600 O.2    72  MET72      -0.2718
     85  CB       -41.3260  -24.9310  -18.6550 C.3    72  MET72       0.0401
     86  CG       -42.4870  -24.0450  -19.1290 C.3    72  MET72       0.0596
     87  SD       -43.9030  -24.0770  -18.0000 S.3    72  MET72      -0.1393
     88  CE       -45.1600  -23.3100  -19.0240 C.3    72  MET72       0.0692
     89  N        -38.1660  -25.1510  -18.5630 N.am   73  GLU73      -0.1966
     90  CA       -36.9610  -25.6920  -17.9450 C.3    73  GLU73       0.1733
     91  C        -36.5210  -24.8890  -16.7270 C.2    73  GLU73       0.2617
     92  O        -36.7200  -23.6780  -16.6700 O.2    73  GLU73      -0.2715
     93  CB       -35.8160  -25.7530  -18.9670 C.3    73  GLU73       0.0429
     94  CG       -34.7540  -26.7860  -18.6340 C.3    73  GLU73       0.1163
     95  CD       -33.6280  -26.8280  -19.6460 C.2    73  GLU73       0.3649
     96  OE1      -33.8450  -26.4540  -20.8190 O.co2  73  GLU73      -0.2457
     97  OE2      -32.5170  -27.2430  -19.2640 O.co2  73  GLU73      -0.2457
     98  N        -35.9330  -25.5710  -15.7490 N.am   74  THR74      -0.1937
     99  CA       -35.3280  -24.8950  -14.6030 C.3    74  THR74       0.2028
    100  C        -33.8560  -24.5850  -14.9000 C.2    74  THR74       0.2642
    101  O        -33.2940  -25.0880  -15.8850 O.2    74  THR74      -0.2714
    102  CB       -35.4640  -25.7230  -13.2980 C.3    74  THR74       0.1808
    103  OG1      -34.6760  -26.9120  -13.3930 O.3    74  THR74      -0.2208
    104  CG2      -36.9350  -26.0880  -13.0200 C.3    74  THR74       0.0379
    105  N        -33.2380  -23.7450  -14.0670 N.am   75  VAL75      -0.1977
    106  CA       -31.8070  -23.4600  -14.1950 C.3    75  VAL75       0.1596
    107  C        -30.9940  -24.7550  -14.0350 C.2    75  VAL75       0.2287
    108  O        -29.9080  -24.8860  -14.5990 O.2    75  VAL75      -0.2864
    109  CB       -31.3220  -22.3300  -13.2160 C.3    75  VAL75       0.0276
    110  CG1      -31.5120  -22.7230  -11.7550 C.3    75  VAL75       0.0022
    111  CG2      -29.8610  -21.9370  -13.4920 C.3    75  VAL75       0.0022
    112  N        -39.7960  -29.8470  -18.3920 N.3    80  PHE80      -0.1241
    113  CA       -41.1830  -30.2210  -18.1450 C.3    80  PHE80       0.1605
    114  C        -42.1300  -29.4390  -19.0430 C.2    80  PHE80       0.2264
    115  O        -41.7010  -28.5630  -19.7830 O.2    80  PHE80      -0.2867
    116  CB       -41.5520  -30.0700  -16.6560 C.3    80  PHE80       0.0534
    117  CG       -41.6290  -28.6380  -16.1650 C.ar   80  PHE80      -0.0203
    118  CD1      -40.4750  -27.9530  -15.7740 C.ar   80  PHE80      -0.0042
    119  CD2      -42.8640  -27.9970  -16.0440 C.ar   80  PHE80      -0.0042
    120  CE1      -40.5420  -26.6450  -15.3080 C.ar   80  PHE80      -0.0003
    121  CE2      -42.9480  -26.6870  -15.5770 C.ar   80  PHE80      -0.0003
    122  CZ       -41.7830  -26.0070  -15.2040 C.ar   80  PHE80      -0.0000
    123  N        -49.7880  -22.1930  -18.7160 N.3    84  VAL84      -0.1245
    124  CA       -49.8910  -20.9440  -17.9860 C.3    84  VAL84       0.1561
    125  C        -51.2200  -20.3090  -18.3540 C.2    84  VAL84       0.2260
    126  O        -51.5470  -20.2040  -19.5350 O.2    84  VAL84      -0.2867
    127  CB       -48.7510  -19.9730  -18.3960 C.3    84  VAL84       0.0252
    128  CG1      -48.7370  -18.7340  -17.4990 C.3    84  VAL84       0.0019
    129  CG2      -47.4170  -20.6820  -18.3660 C.3    84  VAL84       0.0019
    130  N        -50.5050  -13.8020  -14.3760 N.3    91  LEU91      -0.1245
    131  CA       -49.9640  -14.9460  -15.0940 C.3    91  LEU91       0.1561
    132  C        -49.7540  -16.0500  -14.0550 C.2    91  LEU91       0.2260
    133  O        -48.9410  -15.8990  -13.1410 O.2    91  LEU91      -0.2867
    134  CB       -48.6370  -14.5310  -15.7330 C.3    91  LEU91       0.0270
    135  CG       -48.1400  -14.8120  -17.1600 C.3    91  LEU91       0.0019
    136  CD1      -49.2090  -14.7700  -18.2570 C.3    91  LEU91       0.0001
    137  CD2      -47.0220  -13.8180  -17.4800 C.3    91  LEU91       0.0001
    138  N        -49.5150  -20.4010  -12.9330 N.3    93  ILE93      -0.1245
    139  CA       -49.3970  -21.8390  -13.1840 C.3    93  ILE93       0.1561
    140  C        -49.5060  -22.5640  -11.8410 C.2    93  ILE93       0.2260
    141  O        -48.8770  -22.1500  -10.8570 O.2    93  ILE93      -0.2867
    142  CB       -48.0730  -22.2020  -13.9590 C.3    93  ILE93       0.0252
    143  CG1      -48.1590  -23.6150  -14.5640 C.3    93  ILE93       0.0019
    144  CG2      -46.8220  -22.0050  -13.0800 C.3    93  ILE93       0.0019
    145  CD1      -47.0100  -23.9720  -15.5470 C.3    93  ILE93       0.0001
    146  N        -49.4060  -26.3840   -9.9300 N.3    95  PHE95      -0.1241
    147  CA       -49.1630  -27.8200   -9.8450 C.3    95  PHE95       0.1605
    148  C        -49.5990  -28.2590   -8.4580 C.2    95  PHE95       0.2264
    149  O        -49.8300  -27.3980   -7.6000 O.2    95  PHE95      -0.2867
    150  CB       -47.6870  -28.1240  -10.0270 C.3    95  PHE95       0.0534
    151  CG       -47.1780  -27.8690  -11.4010 C.ar   95  PHE95      -0.0203
    152  CD1      -46.9930  -28.9240  -12.2910 C.ar   95  PHE95      -0.0042
    153  CD2      -46.8430  -26.5900  -11.8050 C.ar   95  PHE95      -0.0042
    154  CE1      -46.5020  -28.7000  -13.5830 C.ar   95  PHE95      -0.0003
    155  CE2      -46.3500  -26.3650  -13.0940 C.ar   95  PHE95      -0.0003
    156  CZ       -46.1860  -27.4310  -13.9790 C.ar   95  PHE95      -0.0000
    157  N        -46.8350  -26.9070   -6.1030 N.3    98  TYR98      -0.1241
    158  CA       -46.1390  -25.6880   -6.5380 C.3    98  TYR98       0.1605
    159  C        -47.0320  -24.7760   -7.3640 C.2    98  TYR98       0.2264
    160  O        -47.7430  -25.2470   -8.2530 O.2    98  TYR98      -0.2867
    161  CB       -44.8850  -26.0410   -7.3470 C.3    98  TYR98       0.0534
    162  CG       -44.1490  -24.8430   -7.9340 C.ar   98  TYR98      -0.0201
    163  CD1      -44.3880  -24.4350   -9.2570 C.ar   98  TYR98      -0.0009
    164  CD2      -43.2190  -24.1250   -7.1770 C.ar   98  TYR98      -0.0009
    165  CE1      -43.7330  -23.3350   -9.8040 C.ar   98  TYR98       0.0417
    166  CE2      -42.5400  -23.0160   -7.7170 C.ar   98  TYR98       0.0417
    167  CZ       -42.8040  -22.6260   -9.0320 C.ar   98  TYR98       0.1957
    168  OH       -42.1460  -21.5400   -9.5970 O.3    98  TYR98      -0.2866
    169  N        -46.7260  -20.6060   -9.2510 N.3   100  GLN100     -0.1245
    170  CA       -46.2530  -19.2410   -9.3950 C.3   100  GLN100      0.1566
    171  C        -47.3460  -18.3380   -9.9280 C.2   100  GLN100      0.2260
    172  O        -48.1020  -18.7270  -10.8090 O.2   100  GLN100     -0.2867
    173  CB       -45.0420  -19.1430  -10.2960 C.3   100  GLN100      0.0367
    174  CG       -44.3020  -17.7990  -10.1250 C.3   100  GLN100      0.0905
    175  CD       -43.0820  -17.6800  -10.9950 C.2   100  GLN100      0.2608
    176  OE1      -42.7850  -16.6040  -11.5120 O.2   100  GLN100     -0.2717
    177  NE2      -42.3700  -18.7780  -11.1760 N.am  100  GLN100     -0.0878
    178  N        -47.5470  -14.2660  -11.3050 N.3   102  THR102     -0.1218
    179  CA       -46.8200  -13.0580  -11.6680 C.3   102  THR102      0.1862
    180  C        -47.8240  -12.0120  -12.1300 C.2   102  THR102      0.2287
    181  O        -48.6900  -12.2840  -12.9490 O.2   102  THR102     -0.2866
    182  CB       -45.7850  -13.3330  -12.7870 C.3   102  THR102      0.1770
    183  OG1      -45.0330  -14.5150  -12.4710 O.3   102  THR102     -0.2211
    184  CG2      -44.8370  -12.1590  -12.9700 C.3   102  THR102      0.0375
    185  N        -43.6400  -11.4410   -8.3970 N.3   111  GLU111     -0.1245
    186  CA       -43.6210  -12.8630   -8.6430 C.3   111  GLU111      0.1567
    187  C        -43.7680  -13.5970   -7.3060 C.2   111  GLU111      0.2260
    188  O        -42.8570  -13.5690   -6.4650 O.2   111  GLU111     -0.2867
    189  CB       -42.3110  -13.2570   -9.3130 C.3   111  GLU111      0.0388
    190  CG       -42.0220  -12.5340  -10.6380 C.3   111  GLU111      0.1160
    191  CD       -40.6290  -12.8120  -11.1530 C.2   111  GLU111      0.3649
    192  OE1      -39.7580  -11.9120  -11.0620 O.co2 111  GLU111     -0.2457
    193  OE2      -40.3890  -13.9370  -11.6310 O.co2 111  GLU111     -0.2457
    194  N        -44.2970  -17.1940   -5.4850 N.3   113  SER113     -0.1217
    195  CA       -44.1840  -18.6510   -5.5710 C.3   113  SER113      0.1889
    196  C        -44.5700  -19.3380   -4.2730 C.2   113  SER113      0.2288
    197  O        -44.2500  -18.8630   -3.1870 O.2   113  SER113     -0.2866
    198  CB       -42.7560  -19.0810   -5.8960 C.3   113  SER113      0.2089
    199  OG       -42.2540  -18.3260   -6.9580 O.3   113  SER113     -0.2183
@<TRIPOS>BOND
     1    73    72    2
     2    72    71    1
     3    70    71    1
     4    71    74    1
     5    74    75    1
     6    64    65    2
     7    64    63    1
     8    20    21    1
     9    75    77   ar
    10    75    76   ar
    11    77    79   ar
    12    63    62    1
    13    63    66    1
    14    96    95   ar
    15    76    78   ar
    16    81    82    1
    17    79    80   ar
    18    21    22    1
    19    21    24    1
    20    22    23    2
    21    78    80   ar
    22   115   114    2
    23    82    83    1
    24    82    85    1
    25    95    97   ar
    26    95    94    1
    27   126   125    2
    28    66    67    1
    29    24    25    1
    30    84    83    2
    31    83    89   am
    32    86    85    1
    33    86    87    1
    34    57    58    2
    35    57    56    1
    36   114   113    1
    37    88    87    1
    38    93    94    1
    39    93    90    1
    40    68    67    2
    41   123   124    1
    42    67    69   am
    43    89    90    1
    44    55    56    1
    45   127   129    1
    46   127   124    1
    47   127   128    1
    48   112   113    1
    49   125   124    1
    50    56    59    1
    51    30    27   ar
    52    30    32   ar
    53   136   135    1
    54   113   116    1
    55    25    27   ar
    56    25    26   ar
    57    90    91    1
    58    34    35    1
    59    27    29   ar
    60    32    33   ar
    61   137   135    1
    62   135   134    1
    63    26    28   ar
    64    37    36    2
    65    59    60    1
    66    59    61    1
    67    91    92    2
    68    91    98   am
    69   116   117    1
    70    36    35    1
    71    35    38    1
    72    29    28   ar
    73    29    31   ar
    74    33    31   ar
    75   117   119   ar
    76   117   118   ar
    77   119   121   ar
    78   101   100    2
    79   118   120   ar
    80    98    99    1
    81   134   131    1
    82   121   122   ar
    83   145   143    1
    84    38    39    1
    85   120   122   ar
    86   131   130    1
    87   131   132    1
    88    39    40    1
    89   100    99    1
    90   100   105   am
    91    43    44    1
    92    99   102    1
    93   108   107    2
    94    46    45    2
    95    42    40   am
    96   143   142    1
    97    40    41    2
    98   106   105    1
    99   106   107    1
   100   106   109    1
   101   132   133    2
   102   156   154   ar
   103   156   155   ar
   104   142   139    1
   105   142   144    1
   106    47    44    1
   107    47    48    1
   108    44    45    1
   109   154   152   ar
   110    50    48   ar
   111    50    52   ar
   112   111   109    1
   113   103   102    1
   114   102   104    1
   115   109   110    1
   116   139   138    1
   117   139   140    1
   118   155   153   ar
   119    48    49   ar
   120   184   182    1
   121   181   180    2
   122    52    53   ar
   123   182   183    1
   124   182   179    1
   125   152   151   ar
   126   180   179    1
   127   140   141    2
   128    49    51   ar
   129   153   151   ar
   130    53    51   ar
   131    53    54    1
   132   179   178    1
   133   193   191   ar
   134   176   175    2
   135   151   150    1
   136   177   175   am
   137   191   192   ar
   138   191   190    1
   139   175   174    1
   140   172   171    2
   141   190   189    1
   142   173   174    1
   143   173   170    1
   144   150   147    1
   145   146   147    1
   146   171   170    1
   147   147   148    1
   148   165   163   ar
   149   165   167   ar
   150   168   167    1
   151   170   169    1
   152   189   186    1
   153   163   162   ar
   154   167   166   ar
   155   186   185    1
   156   186   187    1
   157   148   149    2
   158   160   159    2
   159   162   161    1
   160   162   164   ar
   161   166   164   ar
   162   159   158    1
   163   161   158    1
   164   187   188    2
   165   199   198    1
   166   158   157    1
   167   198   195    1
   168   195   194    1
   169   195   196    1
   170    19    17    1
   171    11    10   ar
   172    11     9   ar
   173    10     8   ar
   174   196   197    2
   175    17    16    1
   176    16    18    1
   177    16    13    1
   178    15    14    2
   179     9     7   ar
   180     8     6   ar
   181    14    13    1
   182    13    12    1
   183     7     6   ar
   184     6     5    1
   185     4     3    2
   186     5     2    1
   187     3     2    1
   188     2     1    1
