@<TRIPOS>MOLECULE
tmp/3em0B03.pdb
 102 100 0 0 0
SMALL
GASTEIGER

@<TRIPOS>ATOM
      1  N        -36.3040  -24.8850    1.4570 N.3    21  LEU21      -0.1231
      2  CA       -37.3340  -25.8830    1.1390 C.3    21  LEU21       0.1693
      3  C        -37.0760  -26.6530   -0.1540 C.2    21  LEU21       0.2591
      4  O        -37.3010  -27.8610   -0.2060 O.2    21  LEU21      -0.2718
      5  CB       -38.7360  -25.2450    1.1010 C.3    21  LEU21       0.0284
      6  CG       -39.9740  -26.1600    0.9840 C.3    21  LEU21       0.0019
      7  CD1      -41.1790  -25.4790    1.5300 C.3    21  LEU21       0.0001
      8  CD2      -40.2780  -26.6170   -0.4490 C.3    21  LEU21       0.0001
      9  N        -36.6280  -25.9530   -1.1910 N.am   22  ILE22      -0.1980
     10  CA       -36.4550  -26.5660   -2.5110 C.3    22  ILE22       0.1595
     11  C        -35.1170  -27.3130   -2.6750 C.2    22  ILE22       0.2287
     12  O        -34.8980  -27.9890   -3.6780 O.2    22  ILE22      -0.2864
     13  CB       -36.6940  -25.5570   -3.6900 C.3    22  ILE22       0.0276
     14  CG1      -35.6210  -24.4590   -3.7220 C.3    22  ILE22       0.0022
     15  CG2      -38.0900  -24.9650   -3.6040 C.3    22  ILE22       0.0022
     16  CD1      -35.7000  -23.5640   -4.9440 C.3    22  ILE22       0.0001
     17  N        -35.9330  -25.5710  -15.7490 N.3    74  THR74      -0.1218
     18  CA       -35.3280  -24.8950  -14.6030 C.3    74  THR74       0.1862
     19  C        -33.8560  -24.5850  -14.9000 C.2    74  THR74       0.2287
     20  O        -33.2940  -25.0880  -15.8850 O.2    74  THR74      -0.2866
     21  CB       -35.4640  -25.7230  -13.2980 C.3    74  THR74       0.1770
     22  OG1      -34.6760  -26.9120  -13.3930 O.3    74  THR74      -0.2211
     23  CG2      -36.9350  -26.0880  -13.0200 C.3    74  THR74       0.0375
     24  N        -33.8710  -29.3030  -15.3490 N.3    78  LYS78      -0.1245
     25  CA       -35.1300  -30.0520  -15.2500 C.3    78  LYS78       0.1561
     26  C        -36.1400  -29.5450  -16.2870 C.2    78  LYS78       0.2260
     27  O        -36.6040  -28.4100  -16.2150 O.2    78  LYS78      -0.2867
     28  CB       -35.6860  -29.9480  -13.8280 C.3    78  LYS78       0.0271
     29  CG       -36.8700  -30.8560  -13.5060 C.3    78  LYS78       0.0035
     30  CD       -37.1180  -30.9130  -11.9980 C.3    78  LYS78       0.0206
     31  CE       -37.2910  -29.5110  -11.3850 C.3    78  LYS78       0.1093
     32  NZ       -37.0170  -29.4630   -9.9200 N.3    78  LYS78      -0.1314
     33  N        -39.7960  -29.8470  -18.3920 N.3    80  PHE80      -0.1241
     34  CA       -41.1830  -30.2210  -18.1450 C.3    80  PHE80       0.1605
     35  C        -42.1300  -29.4390  -19.0430 C.2    80  PHE80       0.2264
     36  O        -41.7010  -28.5630  -19.7830 O.2    80  PHE80      -0.2867
     37  CB       -41.5520  -30.0700  -16.6560 C.3    80  PHE80       0.0534
     38  CG       -41.6290  -28.6380  -16.1650 C.ar   80  PHE80      -0.0203
     39  CD1      -40.4750  -27.9530  -15.7740 C.ar   80  PHE80      -0.0042
     40  CD2      -42.8640  -27.9970  -16.0440 C.ar   80  PHE80      -0.0042
     41  CE1      -40.5420  -26.6450  -15.3080 C.ar   80  PHE80      -0.0003
     42  CE2      -42.9480  -26.6870  -15.5770 C.ar   80  PHE80      -0.0003
     43  CZ       -41.7830  -26.0070  -15.2040 C.ar   80  PHE80      -0.0000
     44  N        -49.4060  -26.3840   -9.9300 N.3    95  PHE95      -0.1228
     45  CA       -49.1630  -27.8200   -9.8450 C.3    95  PHE95       0.1721
     46  C        -49.5990  -28.2590   -8.4580 C.2    95  PHE95       0.2437
     47  O        -49.8300  -27.3980   -7.6000 O.2    95  PHE95      -0.2733
     48  CB       -47.6870  -28.1240  -10.0270 C.3    95  PHE95       0.0547
     49  CG       -47.1780  -27.8690  -11.4010 C.ar   95  PHE95      -0.0202
     50  CD1      -46.9930  -28.9240  -12.2910 C.ar   95  PHE95      -0.0042
     51  CD2      -46.8430  -26.5900  -11.8050 C.ar   95  PHE95      -0.0042
     52  CE1      -46.5020  -28.7000  -13.5830 C.ar   95  PHE95      -0.0003
     53  CE2      -46.3500  -26.3650  -13.0940 C.ar   95  PHE95      -0.0003
     54  CZ       -46.1860  -27.4310  -13.9790 C.ar   95  PHE95      -0.0000
     55  N        -49.7370  -29.5870   -8.2220 N.am   96  PRO96      -0.2718
     56  CA       -50.1510  -30.0370   -6.8830 C.3    96  PRO96       0.1535
     57  C        -49.3030  -29.5240   -5.6990 C.2    96  PRO96       0.2598
     58  O        -49.8680  -29.2220   -4.6430 O.2    96  PRO96      -0.2715
     59  CB       -50.0780  -31.5700   -6.9880 C.3    96  PRO96       0.0310
     60  CG       -50.2670  -31.8450   -8.4310 C.3    96  PRO96       0.0237
     61  CD       -49.5620  -30.7360   -9.1400 C.3    96  PRO96       0.0939
     62  N        -47.9860  -29.4230   -5.8670 N.am   97  LYS97      -0.1964
     63  CA       -47.1020  -28.9620   -4.7830 C.3    97  LYS97       0.1728
     64  C        -46.3840  -27.6300   -5.0820 C.2    97  LYS97       0.2616
     65  O        -45.4280  -27.2700   -4.3940 O.2    97  LYS97      -0.2715
     66  CB       -46.0540  -30.0390   -4.4390 C.3    97  LYS97       0.0311
     67  CG       -46.6170  -31.3760   -3.9380 C.3    97  LYS97       0.0038
     68  CD       -45.4800  -32.3440   -3.5650 C.3    97  LYS97       0.0206
     69  CE       -45.3710  -32.5390   -2.0410 C.3    97  LYS97       0.1093
     70  NZ       -44.1170  -33.2560   -1.5970 N.3    97  LYS97      -0.1314
     71  N        -46.8350  -26.9070   -6.1030 N.am   98  TYR98      -0.1974
     72  CA       -46.1390  -25.6880   -6.5380 C.3    98  TYR98       0.1639
     73  C        -47.0320  -24.7760   -7.3640 C.2    98  TYR98       0.2290
     74  O        -47.7430  -25.2470   -8.2530 O.2    98  TYR98      -0.2864
     75  CB       -44.8850  -26.0410   -7.3470 C.3    98  TYR98       0.0560
     76  CG       -44.1490  -24.8430   -7.9340 C.ar   98  TYR98      -0.0198
     77  CD1      -44.3880  -24.4350   -9.2570 C.ar   98  TYR98      -0.0009
     78  CD2      -43.2190  -24.1250   -7.1770 C.ar   98  TYR98      -0.0009
     79  CE1      -43.7330  -23.3350   -9.8040 C.ar   98  TYR98       0.0417
     80  CE2      -42.5400  -23.0160   -7.7170 C.ar   98  TYR98       0.0417
     81  CZ       -42.8040  -22.6260   -9.0320 C.ar   98  TYR98       0.1957
     82  OH       -42.1460  -21.5400   -9.5970 O.3    98  TYR98      -0.2866
     83  N        -44.2920  -23.2580   -2.6130 N.3   115  ALA115     -0.1231
     84  CA       -43.7950  -24.6240   -2.7160 C.3   115  ALA115      0.1694
     85  C        -44.2100  -25.4370   -1.4910 C.2   115  ALA115      0.2593
     86  O        -44.3000  -24.9160   -0.3880 O.2   115  ALA115     -0.2718
     87  CB       -42.2900  -24.6430   -2.9180 C.3   115  ALA115      0.0304
     88  N        -44.4910  -26.7120   -1.7220 N.am  116  SER116     -0.1938
     89  CA       -44.9570  -27.6360   -0.7030 C.3   116  SER116      0.2055
     90  C        -43.9940  -28.8180   -0.6750 C.2   116  SER116      0.2644
     91  O        -43.8710  -29.5390   -1.6620 O.2   116  SER116     -0.2714
     92  CB       -46.3710  -28.0980   -1.0590 C.3   116  SER116      0.2130
     93  OG       -46.8620  -29.0430   -0.1310 O.3   116  SER116     -0.2179
     94  N        -43.2880  -28.9900    0.4400 N.am  117  GLY117     -0.1939
     95  CA       -42.3130  -30.0680    0.5910 C.3   117  GLY117      0.2014
     96  C        -42.7200  -31.0860    1.6400 C.2   117  GLY117      0.2638
     97  O        -43.7980  -30.9970    2.2320 O.2   117  GLY117     -0.2714
     98  N        -41.8470  -32.0590    1.8790 N.am  118  ALA118     -0.1977
     99  CA       -42.1150  -33.1220    2.8450 C.3   118  ALA118      0.1597
    100  C        -42.4050  -32.5780    4.2480 C.2   118  ALA118      0.2287
    101  O        -43.2750  -33.1020    4.9560 O.2   118  ALA118     -0.2864
    102  CB       -40.9580  -34.1130    2.8870 C.3   118  ALA118      0.0319
@<TRIPOS>BOND
     1    36    35    2
     2    35    34    1
     3    33    34    1
     4    34    37    1
     5    37    38    1
     6    26    27    2
     7    26    25    1
     8    38    40   ar
     9    38    39   ar
    10    40    42   ar
    11    20    19    2
    12    39    41   ar
    13    17    18    1
    14    42    43   ar
    15    24    25    1
    16    41    43   ar
    17    25    28    1
    18    19    18    1
    19    18    21    1
    20    54    52   ar
    21    54    53   ar
    22    28    29    1
    23    52    50   ar
    24    29    30    1
    25    22    21    1
    26    21    23    1
    27    53    51   ar
    28    50    49   ar
    29    30    31    1
    30    51    49   ar
    31    49    48    1
    32    31    32    1
    33    48    45    1
    34    44    45    1
    35    45    46    1
    36    79    77   ar
    37    79    81   ar
    38    82    81    1
    39    77    76   ar
    40    61    60    1
    41    61    55    1
    42    81    80   ar
    43    46    55   am
    44    46    47    2
    45    60    59    1
    46    74    73    2
    47    55    56    1
    48    76    75    1
    49    76    78   ar
    50    80    78   ar
    51    73    72    1
    52    75    72    1
    53    59    56    1
    54    56    57    1
    55    72    71    1
    56    71    64   am
    57    62    57   am
    58    62    63    1
    59    57    58    2
    60    64    63    1
    61    64    65    2
    62    16    14    1
    63    63    66    1
    64    66    67    1
    65    67    68    1
    66    14    13    1
    67    13    15    1
    68    13    10    1
    69    12    11    2
    70    68    69    1
    71    87    84    1
    72    84    83    1
    73    84    85    1
    74    11    10    1
    75    10     9    1
    76    69    70    1
    77    88    85   am
    78    88    89    1
    79    91    90    2
    80    85    86    2
    81     9     3   am
    82    92    89    1
    83    92    93    1
    84    89    90    1
    85    90    94   am
    86     8     6    1
    87     4     3    2
    88     3     2    1
    89    94    95    1
    90    95    96    1
    91     6     5    1
    92     6     7    1
    93     5     2    1
    94     2     1    1
    95    96    98   am
    96    96    97    2
    97    98    99    1
    98    99   102    1
    99    99   100    1
   100   100   101    2
