@<TRIPOS>MOLECULE
tmp/3em0B02.pdb
 82 81 0 0 0
SMALL
GASTEIGER

@<TRIPOS>ATOM
      1  N        -36.6280  -25.9530   -1.1910 N.3    22  ILE22      -0.1231
      2  CA       -36.4550  -26.5660   -2.5110 C.3    22  ILE22       0.1692
      3  C        -35.1170  -27.3130   -2.6750 C.2    22  ILE22       0.2593
      4  O        -34.8980  -27.9890   -3.6780 O.2    22  ILE22      -0.2718
      5  CB       -36.6940  -25.5570   -3.6900 C.3    22  ILE22       0.0266
      6  CG1      -35.6210  -24.4590   -3.7220 C.3    22  ILE22       0.0019
      7  CG2      -38.0900  -24.9650   -3.6040 C.3    22  ILE22       0.0020
      8  CD1      -35.7000  -23.5640   -4.9440 C.3    22  ILE22       0.0001
      9  N        -34.2310  -27.1830   -1.6930 N.am   23  GLY23      -0.1942
     10  CA       -32.9910  -27.9580   -1.6810 C.3    23  GLY23       0.2014
     11  C        -31.7490  -27.2430   -2.1710 C.2    23  GLY23       0.2639
     12  O        -30.7440  -27.8890   -2.4760 O.2    23  GLY23      -0.2714
     13  N        -31.8130  -25.9140   -2.2640 N.am   24  ILE24      -0.1963
     14  CA       -30.6150  -25.1060   -2.5060 C.3    24  ILE24       0.1712
     15  C        -29.6940  -25.2370   -1.2870 C.2    24  ILE24       0.2458
     16  O        -30.1480  -25.0150   -0.1650 O.2    24  ILE24      -0.2730
     17  CB       -30.9610  -23.5960   -2.7570 C.3    24  ILE24       0.0289
     18  CG1      -32.1000  -23.4280   -3.7890 C.3    24  ILE24       0.0022
     19  CG2      -29.6980  -22.7850   -3.1140 C.3    24  ILE24       0.0023
     20  CD1      -31.7690  -23.8250   -5.2600 C.3    24  ILE24       0.0001
     21  N        -28.4060  -25.6120   -1.5010 N.am   25  PRO25      -0.2727
     22  CA       -27.4200  -25.7340   -0.4070 C.3    25  PRO25       0.1402
     23  C        -27.1320  -24.4000    0.2910 C.2    25  PRO25       0.2269
     24  O        -27.1330  -23.3470   -0.3530 O.2    25  PRO25      -0.2865
     25  CB       -26.1510  -26.2350   -1.1170 C.3    25  PRO25       0.0296
     26  CG       -26.6180  -26.7760   -2.4230 C.3    25  PRO25       0.0237
     27  CD       -27.8090  -25.9610   -2.8040 C.3    25  PRO25       0.0939
     28  N        -24.6690  -21.8550   -1.3140 N.3    28  VAL28      -0.1245
     29  CA       -25.2140  -21.2970   -2.5540 C.3    28  VAL28       0.1561
     30  C        -26.3120  -20.2710   -2.2200 C.2    28  VAL28       0.2260
     31  O        -26.4550  -19.2620   -2.9180 O.2    28  VAL28      -0.2867
     32  CB       -25.7430  -22.4150   -3.5120 C.3    28  VAL28       0.0252
     33  CG1      -26.4550  -21.8290   -4.7420 C.3    28  VAL28       0.0019
     34  CG2      -24.6060  -23.3340   -3.9480 C.3    28  VAL28       0.0019
     35  N        -28.9030  -15.2830  -14.8550 N.3    54  TYR54      -0.1228
     36  CA       -28.2880  -15.8720  -13.6690 C.3    54  TYR54       0.1721
     37  C        -26.8020  -15.5280  -13.6110 C.2    54  TYR54       0.2437
     38  O        -26.2590  -14.9920  -14.5880 O.2    54  TYR54      -0.2733
     39  CB       -28.5060  -17.3930  -13.6780 C.3    54  TYR54       0.0547
     40  CG       -29.7890  -17.8530  -12.9880 C.ar   54  TYR54      -0.0200
     41  CD1      -29.7320  -18.6150  -11.8210 C.ar   54  TYR54      -0.0009
     42  CD2      -31.0500  -17.5390  -13.5080 C.ar   54  TYR54      -0.0009
     43  CE1      -30.8960  -19.0490  -11.1830 C.ar   54  TYR54       0.0417
     44  CE2      -32.2290  -17.9640  -12.8740 C.ar   54  TYR54       0.0417
     45  CZ       -32.1370  -18.7220  -11.7090 C.ar   54  TYR54       0.1957
     46  OH       -33.2770  -19.1620  -11.0590 O.3    54  TYR54      -0.2866
     47  N        -26.1320  -15.8360  -12.4720 N.am   55  PRO55      -0.2718
     48  CA       -24.6970  -15.5550  -12.3610 C.3    55  PRO55       0.1535
     49  C        -23.8720  -16.3080  -13.3950 C.2    55  PRO55       0.2598
     50  O        -24.3740  -17.2290  -14.0460 O.2    55  PRO55      -0.2715
     51  CB       -24.3520  -16.0230  -10.9360 C.3    55  PRO55       0.0310
     52  CG       -25.6520  -15.9710  -10.2080 C.3    55  PRO55       0.0237
     53  CD       -26.6480  -16.4360  -11.2260 C.3    55  PRO55       0.0939
     54  N        -22.6260  -15.8680  -13.5620 N.am   56  ASN56      -0.1973
     55  CA       -21.6650  -16.4700  -14.4890 C.3    56  ASN56       0.1688
     56  C        -22.1660  -16.6130  -15.9330 C.2    56  ASN56       0.2292
     57  O        -21.8460  -17.5970  -16.6130 O.2    56  ASN56      -0.2864
     58  CB       -21.1340  -17.7910  -13.9240 C.3    56  ASN56       0.1181
     59  CG       -20.4500  -17.6110  -12.5780 C.2    56  ASN56       0.2629
     60  OD1      -19.2770  -17.2510  -12.5090 O.2    56  ASN56      -0.2716
     61  ND2      -21.1890  -17.8530  -11.5010 N.am   56  ASN56      -0.0877
     62  N        -25.0980  -17.1910  -17.2930 N.3    58  HIS58      -0.1241
     63  CA       -26.0920  -18.2300  -17.6140 C.3    58  HIS58       0.1621
     64  C        -27.4770  -17.6370  -17.8090 C.2    58  HIS58       0.2264
     65  O        -28.0270  -16.9750  -16.9280 O.2    58  HIS58      -0.2867
     66  CB       -26.1060  -19.3560  -16.5650 C.3    58  HIS58       0.0745
     67  CG       -24.8540  -20.1860  -16.5650 C.ar   58  HIS58       0.0817
     68  ND1      -24.6860  -21.2810  -17.3840 N.ar   58  HIS58      -0.2268
     69  CD2      -23.6980  -20.0540  -15.8730 C.ar   58  HIS58       0.1154
     70  CE1      -23.4870  -21.7980  -17.1840 C.ar   58  HIS58       0.1986
     71  NE2      -22.8670  -21.0730  -16.2720 N.ar   58  HIS58      -0.2212
     72  N        -33.2380  -23.7450  -14.0670 N.3    75  VAL75      -0.1231
     73  CA       -31.8070  -23.4600  -14.1950 C.3    75  VAL75       0.1692
     74  C        -30.9940  -24.7550  -14.0350 C.2    75  VAL75       0.2592
     75  O        -29.9080  -24.8860  -14.5990 O.2    75  VAL75      -0.2718
     76  CB       -31.3220  -22.3300  -13.2160 C.3    75  VAL75       0.0266
     77  CG1      -31.5120  -22.7230  -11.7550 C.3    75  VAL75       0.0020
     78  CG2      -29.8610  -21.9370  -13.4920 C.3    75  VAL75       0.0020
     79  N        -31.5560  -25.7100  -13.2900 N.am   76  GLY76      -0.1957
     80  CA       -30.9110  -26.9880  -13.0200 C.3    76  GLY76       0.1869
     81  C        -31.0070  -28.0270  -14.1210 C.2    76  GLY76       0.2309
     82  O        -30.4990  -29.1410  -13.9670 O.2    76  GLY76      -0.2863
@<TRIPOS>BOND
     1    64    63    1
     2    64    65    2
     3    63    62    1
     4    63    66    1
     5    68    70   ar
     6    68    67   ar
     7    70    71   ar
     8    57    56    2
     9    67    66    1
    10    67    69   ar
    11    71    69   ar
    12    56    55    1
    13    35    36    1
    14    75    74    2
    15    38    37    2
    16    55    58    1
    17    55    54    1
    18    73    72    1
    19    73    74    1
    20    73    76    1
    21    81    82    2
    22    81    80    1
    23    50    49    2
    24    74    79   am
    25    58    59    1
    26    39    36    1
    27    39    40    1
    28    36    37    1
    29    37    47   am
    30    54    49   am
    31    42    40   ar
    32    42    44   ar
    33    78    76    1
    34    49    48    1
    35    79    80    1
    36    76    77    1
    37    40    41   ar
    38    44    45   ar
    39    59    60    2
    40    59    61   am
    41    47    48    1
    42    47    53    1
    43    48    51    1
    44    41    43   ar
    45    45    43   ar
    46    45    46    1
    47    53    52    1
    48    51    52    1
    49    20    18    1
    50     8     6    1
    51    33    32    1
    52    34    32    1
    53    18    17    1
    54     6     5    1
    55     5     7    1
    56     5     2    1
    57     4     3    2
    58    32    29    1
    59    19    17    1
    60    31    30    2
    61    27    26    1
    62    27    21    1
    63    17    14    1
    64     3     2    1
    65     3     9   am
    66    29    30    1
    67    29    28    1
    68     2     1    1
    69    14    13    1
    70    14    15    1
    71    12    11    2
    72    26    25    1
    73    13    11   am
    74    11    10    1
    75     9    10    1
    76    21    15   am
    77    21    22    1
    78    15    16    2
    79    25    22    1
    80    22    23    1
    81    24    23    2
