@<TRIPOS>MOLECULE
tmp/3em0B01.pdb
 179 167 0 0 0
SMALL
GASTEIGER

@<TRIPOS>ATOM
      1  N        -36.6150   -9.8040   -2.4240 N.3    12  GLN12      -0.1245
      2  CA       -36.9320  -11.2330   -2.4480 C.3    12  GLN12       0.1566
      3  C        -37.3620  -11.6760   -1.0500 C.2    12  GLN12       0.2260
      4  O        -36.5490  -12.1440   -0.2570 O.2    12  GLN12      -0.2867
      5  CB       -35.7220  -12.0510   -2.9110 C.3    12  GLN12       0.0367
      6  CG       -35.1770  -11.6430   -4.2640 C.3    12  GLN12       0.0905
      7  CD       -34.2760  -12.6790   -4.8930 C.2    12  GLN12       0.2608
      8  OE1      -34.5580  -13.1680   -5.9960 O.2    12  GLN12      -0.2717
      9  NE2      -33.1740  -13.0080   -4.2190 N.am   12  GLN12      -0.0878
     10  N        -36.9460  -15.4830    0.8440 N.3    15  TYR15      -0.1241
     11  CA       -35.8430  -16.0610    0.0680 C.3    15  TYR15       0.1605
     12  C        -35.1720  -17.2500    0.7550 C.2    15  TYR15       0.2264
     13  O        -35.0210  -18.3250    0.1690 O.2    15  TYR15      -0.2867
     14  CB       -34.8090  -14.9510   -0.2740 C.3    15  TYR15       0.0534
     15  CG       -33.4590  -15.4420   -0.7740 C.ar   15  TYR15      -0.0201
     16  CD1      -33.2670  -15.7830   -2.1130 C.ar   15  TYR15      -0.0009
     17  CD2      -32.3700  -15.5460    0.0940 C.ar   15  TYR15      -0.0009
     18  CE1      -32.0180  -16.2310   -2.5750 C.ar   15  TYR15       0.0417
     19  CE2      -31.1190  -15.9890   -0.3490 C.ar   15  TYR15       0.0417
     20  CZ       -30.9520  -16.3320   -1.6850 C.ar   15  TYR15       0.1957
     21  OH       -29.7120  -16.7770   -2.1180 O.3    15  TYR15      -0.2866
     22  N        -37.6000  -20.2810    1.4960 N.3    18  PHE18      -0.1227
     23  CA       -37.9650  -20.8490    0.1910 C.3    18  PHE18       0.1736
     24  C        -36.8130  -21.6310   -0.4700 C.2    18  PHE18       0.2595
     25  O        -37.0160  -22.7420   -0.9630 O.2    18  PHE18      -0.2718
     26  CB       -38.5000  -19.7480   -0.7410 C.3    18  PHE18       0.0547
     27  CG       -39.0790  -20.2650   -2.0330 C.ar   18  PHE18      -0.0202
     28  CD1      -40.4310  -20.5850   -2.1250 C.ar   18  PHE18      -0.0042
     29  CD2      -38.2740  -20.4110   -3.1630 C.ar   18  PHE18      -0.0042
     30  CE1      -40.9670  -21.0600   -3.3150 C.ar   18  PHE18      -0.0003
     31  CE2      -38.8010  -20.8830   -4.3580 C.ar   18  PHE18      -0.0003
     32  CZ       -40.1440  -21.2120   -4.4330 C.ar   18  PHE18      -0.0000
     33  N        -35.6180  -21.0430   -0.4930 N.am   19  CYS19      -0.1970
     34  CA       -34.4290  -21.7480   -0.9840 C.3    19  CYS19       0.1712
     35  C        -34.1080  -23.0030   -0.1550 C.2    19  CYS19       0.2296
     36  O        -33.7300  -24.0390   -0.7120 O.2    19  CYS19      -0.2864
     37  CB       -33.2220  -20.8140   -1.0330 C.3    19  CYS19       0.0983
     38  SG       -33.2840  -19.6140   -2.3780 S.3    19  CYS19      -0.0798
     39  N        -36.6280  -25.9530   -1.1910 N.3    22  ILE22      -0.1245
     40  CA       -36.4550  -26.5660   -2.5110 C.3    22  ILE22       0.1561
     41  C        -35.1170  -27.3130   -2.6750 C.2    22  ILE22       0.2260
     42  O        -34.8980  -27.9890   -3.6780 O.2    22  ILE22      -0.2867
     43  CB       -36.6940  -25.5570   -3.6900 C.3    22  ILE22       0.0252
     44  CG1      -35.6210  -24.4590   -3.7220 C.3    22  ILE22       0.0019
     45  CG2      -38.0900  -24.9650   -3.6040 C.3    22  ILE22       0.0019
     46  CD1      -35.7000  -23.5640   -4.9440 C.3    22  ILE22       0.0001
     47  N        -31.8130  -25.9140   -2.2640 N.3    24  ILE24      -0.1245
     48  CA       -30.6150  -25.1060   -2.5060 C.3    24  ILE24       0.1561
     49  C        -29.6940  -25.2370   -1.2870 C.2    24  ILE24       0.2260
     50  O        -30.1480  -25.0150   -0.1650 O.2    24  ILE24      -0.2867
     51  CB       -30.9610  -23.5960   -2.7570 C.3    24  ILE24       0.0252
     52  CG1      -32.1000  -23.4280   -3.7890 C.3    24  ILE24       0.0019
     53  CG2      -29.6980  -22.7850   -3.1140 C.3    24  ILE24       0.0019
     54  CD1      -31.7690  -23.8250   -5.2600 C.3    24  ILE24       0.0001
     55  N        -24.6690  -21.8550   -1.3140 N.3    28  VAL28      -0.1245
     56  CA       -25.2140  -21.2970   -2.5540 C.3    28  VAL28       0.1561
     57  C        -26.3120  -20.2710   -2.2200 C.2    28  VAL28       0.2260
     58  O        -26.4550  -19.2620   -2.9180 O.2    28  VAL28      -0.2867
     59  CB       -25.7430  -22.4150   -3.5120 C.3    28  VAL28       0.0252
     60  CG1      -26.4550  -21.8290   -4.7420 C.3    28  VAL28       0.0019
     61  CG2      -24.6060  -23.3340   -3.9480 C.3    28  VAL28       0.0019
     62  N        -24.2550  -17.2070   -1.0340 N.3    31  LYS31      -0.1231
     63  CA       -23.6340  -16.5760   -2.2010 C.3    31  LYS31       0.1693
     64  C        -24.6490  -15.8100   -3.0600 C.2    31  LYS31       0.2592
     65  O        -24.3390  -14.7440   -3.6000 O.2    31  LYS31      -0.2718
     66  CB       -22.8800  -17.6200   -3.0410 C.3    31  LYS31       0.0285
     67  CG       -22.0590  -17.0320   -4.1700 C.3    31  LYS31       0.0035
     68  CD       -20.9700  -17.9770   -4.6600 C.3    31  LYS31       0.0206
     69  CE       -19.9450  -17.1860   -5.4700 C.3    31  LYS31       0.1093
     70  NZ       -18.8790  -18.0270   -6.0870 N.3    31  LYS31      -0.1314
     71  N        -25.8620  -16.3480   -3.1670 N.am   32  GLY32      -0.1957
     72  CA       -26.8960  -15.7240   -3.9770 C.3    32  GLY32       0.1869
     73  C        -27.7510  -14.6470   -3.3310 C.2    32  GLY32       0.2309
     74  O        -28.4930  -13.9570   -4.0270 O.2    32  GLY32      -0.2863
     75  N        -27.4300  -11.2880   -4.9120 N.3    35  PHE35      -0.1241
     76  CA       -27.5220  -11.3000   -6.3630 C.3    35  PHE35       0.1605
     77  C        -28.9300  -10.9350   -6.8730 C.2    35  PHE35       0.2264
     78  O        -29.9250  -11.5720   -6.5120 O.2    35  PHE35      -0.2867
     79  CB       -27.0590  -12.6370   -6.9370 C.3    35  PHE35       0.0534
     80  CG       -27.1040  -12.6830   -8.4310 C.ar   35  PHE35      -0.0203
     81  CD1      -28.2520  -13.1390   -9.0940 C.ar   35  PHE35      -0.0042
     82  CD2      -26.0180  -12.2350   -9.1810 C.ar   35  PHE35      -0.0042
     83  CE1      -28.3080  -13.1680  -10.4750 C.ar   35  PHE35      -0.0003
     84  CE2      -26.0620  -12.2660  -10.5700 C.ar   35  PHE35      -0.0003
     85  CZ       -27.2070  -12.7220  -11.2180 C.ar   35  PHE35      -0.0000
     86  N        -31.5340  -10.6850   -9.8620 N.3    37  LEU37      -0.1245
     87  CA       -31.9260  -11.2070  -11.1770 C.3    37  LEU37       0.1561
     88  C        -32.5740  -10.1290  -12.0430 C.2    37  LEU37       0.2260
     89  O        -33.5530   -9.4880  -11.6260 O.2    37  LEU37      -0.2867
     90  CB       -32.9120  -12.3750  -11.0370 C.3    37  LEU37       0.0270
     91  CG       -32.5000  -13.8370  -10.8610 C.3    37  LEU37       0.0019
     92  CD1      -33.7660  -14.6570  -10.6800 C.3    37  LEU37       0.0001
     93  CD2      -31.6850  -14.3800  -12.0500 C.3    37  LEU37       0.0001
     94  N        -34.2040  -15.0200  -17.7300 N.3    52  GLN52      -0.1245
     95  CA       -33.6030  -14.6930  -16.4410 C.3    52  GLN52       0.1566
     96  C        -32.0850  -14.7830  -16.5310 C.2    52  GLN52       0.2260
     97  O        -31.5340  -15.8070  -16.9540 O.2    52  GLN52      -0.2867
     98  CB       -34.1260  -15.6330  -15.3590 C.3    52  GLN52       0.0367
     99  CG       -35.6020  -15.4420  -15.0660 C.3    52  GLN52       0.0905
    100  CD       -36.1670  -16.5520  -14.2130 C.2    52  GLN52       0.2608
    101  OE1      -36.8560  -16.2940  -13.2270 O.2    52  GLN52      -0.2717
    102  NE2      -35.8730  -17.7950  -14.5840 N.am   52  GLN52      -0.0878
    103  N        -28.9030  -15.2830  -14.8550 N.3    54  TYR54      -0.1228
    104  CA       -28.2880  -15.8720  -13.6690 C.3    54  TYR54       0.1721
    105  C        -26.8020  -15.5280  -13.6110 C.2    54  TYR54       0.2437
    106  O        -26.2590  -14.9920  -14.5880 O.2    54  TYR54      -0.2733
    107  CB       -28.5060  -17.3930  -13.6780 C.3    54  TYR54       0.0547
    108  CG       -29.7890  -17.8530  -12.9880 C.ar   54  TYR54      -0.0200
    109  CD1      -29.7320  -18.6150  -11.8210 C.ar   54  TYR54      -0.0009
    110  CD2      -31.0500  -17.5390  -13.5080 C.ar   54  TYR54      -0.0009
    111  CE1      -30.8960  -19.0490  -11.1830 C.ar   54  TYR54       0.0417
    112  CE2      -32.2290  -17.9640  -12.8740 C.ar   54  TYR54       0.0417
    113  CZ       -32.1370  -18.7220  -11.7090 C.ar   54  TYR54       0.1957
    114  OH       -33.2770  -19.1620  -11.0590 O.3    54  TYR54      -0.2866
    115  N        -26.1320  -15.8360  -12.4720 N.am   55  PRO55      -0.2718
    116  CA       -24.6970  -15.5550  -12.3610 C.3    55  PRO55       0.1535
    117  C        -23.8720  -16.3080  -13.3950 C.2    55  PRO55       0.2598
    118  O        -24.3740  -17.2290  -14.0460 O.2    55  PRO55      -0.2715
    119  CB       -24.3520  -16.0230  -10.9360 C.3    55  PRO55       0.0310
    120  CG       -25.6520  -15.9710  -10.2080 C.3    55  PRO55       0.0237
    121  CD       -26.6480  -16.4360  -11.2260 C.3    55  PRO55       0.0939
    122  N        -22.6260  -15.8680  -13.5620 N.am   56  ASN56      -0.1973
    123  CA       -21.6650  -16.4700  -14.4890 C.3    56  ASN56       0.1688
    124  C        -22.1660  -16.6130  -15.9330 C.2    56  ASN56       0.2292
    125  O        -21.8460  -17.5970  -16.6130 O.2    56  ASN56      -0.2864
    126  CB       -21.1340  -17.7910  -13.9240 C.3    56  ASN56       0.1181
    127  CG       -20.4500  -17.6110  -12.5780 C.2    56  ASN56       0.2629
    128  OD1      -19.2770  -17.2510  -12.5090 O.2    56  ASN56      -0.2716
    129  ND2      -21.1890  -17.8530  -11.5010 N.am   56  ASN56      -0.0877
    130  N        -33.2380  -23.7450  -14.0670 N.3    75  VAL75      -0.1245
    131  CA       -31.8070  -23.4600  -14.1950 C.3    75  VAL75       0.1561
    132  C        -30.9940  -24.7550  -14.0350 C.2    75  VAL75       0.2260
    133  O        -29.9080  -24.8860  -14.5990 O.2    75  VAL75      -0.2867
    134  CB       -31.3220  -22.3300  -13.2160 C.3    75  VAL75       0.0252
    135  CG1      -31.5120  -22.7230  -11.7550 C.3    75  VAL75       0.0019
    136  CG2      -29.8610  -21.9370  -13.4920 C.3    75  VAL75       0.0019
    137  N        -46.7260  -20.6060   -9.2510 N.3   100  GLN100     -0.1245
    138  CA       -46.2530  -19.2410   -9.3950 C.3   100  GLN100      0.1566
    139  C        -47.3460  -18.3380   -9.9280 C.2   100  GLN100      0.2260
    140  O        -48.1020  -18.7270  -10.8090 O.2   100  GLN100     -0.2867
    141  CB       -45.0420  -19.1430  -10.2960 C.3   100  GLN100      0.0367
    142  CG       -44.3020  -17.7990  -10.1250 C.3   100  GLN100      0.0905
    143  CD       -43.0820  -17.6800  -10.9950 C.2   100  GLN100      0.2608
    144  OE1      -42.7850  -16.6040  -11.5120 O.2   100  GLN100     -0.2717
    145  NE2      -42.3700  -18.7780  -11.1760 N.am  100  GLN100     -0.0878
    146  N        -43.6400  -11.4410   -8.3970 N.3   111  GLU111     -0.1245
    147  CA       -43.6210  -12.8630   -8.6430 C.3   111  GLU111      0.1567
    148  C        -43.7680  -13.5970   -7.3060 C.2   111  GLU111      0.2260
    149  O        -42.8570  -13.5690   -6.4650 O.2   111  GLU111     -0.2867
    150  CB       -42.3110  -13.2570   -9.3130 C.3   111  GLU111      0.0388
    151  CG       -42.0220  -12.5340  -10.6380 C.3   111  GLU111      0.1160
    152  CD       -40.6290  -12.8120  -11.1530 C.2   111  GLU111      0.3649
    153  OE1      -39.7580  -11.9120  -11.0620 O.co2 111  GLU111     -0.2457
    154  OE2      -40.3890  -13.9370  -11.6310 O.co2 111  GLU111     -0.2457
    155  N        -44.2970  -17.1940   -5.4850 N.3   113  SER113     -0.1217
    156  CA       -44.1840  -18.6510   -5.5710 C.3   113  SER113      0.1889
    157  C        -44.5700  -19.3380   -4.2730 C.2   113  SER113      0.2288
    158  O        -44.2500  -18.8630   -3.1870 O.2   113  SER113     -0.2866
    159  CB       -42.7560  -19.0810   -5.8960 C.3   113  SER113      0.2089
    160  OG       -42.2540  -18.3260   -6.9580 O.3   113  SER113     -0.2183
    161  N        -42.4460  -17.3360   -1.5580 N.3   124  LEU124     -0.1245
    162  CA       -41.4950  -16.3150   -1.9710 C.3   124  LEU124      0.1561
    163  C        -42.2280  -15.2350   -2.7520 C.2   124  LEU124      0.2260
    164  O        -43.0000  -15.5350   -3.6660 O.2   124  LEU124     -0.2867
    165  CB       -40.3670  -16.9250   -2.8210 C.3   124  LEU124      0.0270
    166  CG       -39.3770  -15.9520   -3.4790 C.3   124  LEU124      0.0019
    167  CD1      -38.4660  -15.3360   -2.4520 C.3   124  LEU124      0.0001
    168  CD2      -38.5710  -16.6190   -4.6080 C.3   124  LEU124      0.0001
    169  N        -41.0960  -12.0520   -4.9370 N.3   126  ARG126     -0.1241
    170  CA       -40.0740  -11.2260   -5.5900 C.3   126  ARG126      0.1606
    171  C        -40.7040   -9.9760   -6.1870 C.2   126  ARG126      0.2264
    172  O        -41.7660  -10.0320   -6.7830 O.2   126  ARG126     -0.2867
    173  CB       -39.3520  -12.0220   -6.6760 C.3   126  ARG126      0.0562
    174  CG       -38.6060  -13.2330   -6.1430 C.2   126  ARG126      0.0159
    175  CD       -37.7000  -13.9390   -7.1580 C.2   126  ARG126      0.1886
    176  NE       -37.7720  -13.4420   -8.5320 N.pl3 126  ARG126     -0.0578
    177  CZ       -36.9410  -12.5370   -9.0480 C.cat 126  ARG126      0.5393
    178  NH1      -35.9810  -11.9950   -8.2980 N.pl3 126  ARG126      0.1358
    179  NH2      -37.0830  -12.1470  -10.3100 N.pl3 126  ARG126      0.1358
@<TRIPOS>BOND
     1    94    95    1
     2    97    96    2
     3   125   124    2
     4    96    95    1
     5    95    98    1
     6   124   123    1
     7    98    99    1
     8    99   100    1
     9   103   104    1
    10   133   132    2
    11   106   105    2
    12   102   100   am
    13   123   126    1
    14   123   122    1
    15   100   101    2
    16   131   130    1
    17   131   132    1
    18   131   134    1
    19   118   117    2
    20   126   127    1
    21   107   104    1
    22   107   108    1
    23   104   105    1
    24   105   115   am
    25   122   117   am
    26   110   108   ar
    27   110   112   ar
    28   136   134    1
    29   117   116    1
    30   134   135    1
    31   108   109   ar
    32   112   113   ar
    33   127   128    2
    34   127   129   am
    35   115   116    1
    36   115   121    1
    37   116   119    1
    38    93    91    1
    39    88    89    2
    40    88    87    1
    41   109   111   ar
    42   113   111   ar
    43   113   114    1
    44   154   152   ar
    45   144   143    2
    46   121   120    1
    47    85    84   ar
    48    85    83   ar
    49    87    90    1
    50    87    86    1
    51   145   143   am
    52   152   153   ar
    53   152   151    1
    54    90    91    1
    55   143   142    1
    56   119   120    1
    57    91    92    1
    58   140   139    2
    59   151   150    1
    60    84    82   ar
    61    83    81   ar
    62   179   177    1
    63   141   142    1
    64   141   138    1
    65   139   138    1
    66   138   137    1
    67   150   147    1
    68    82    80   ar
    69    81    80   ar
    70   177   176    2
    71   177   178    1
    72   147   146    1
    73   147   148    1
    74   176   175    1
    75    80    79    1
    76   148   149    2
    77   175   174    2
    78   160   159    1
    79    79    76    1
    80    77    78    2
    81    77    76    1
    82   172   171    2
    83   173   174    1
    84   173   170    1
    85    76    75    1
    86   171   170    1
    87    70    69    1
    88     8     7    2
    89   159   156    1
    90   170   169    1
    91   156   155    1
    92   156   157    1
    93    69    68    1
    94    54    52    1
    95    46    44    1
    96     7     6    1
    97     7     9   am
    98    60    59    1
    99    68    67    1
   100   168   166    1
   101    32    31   ar
   102    32    30   ar
   103    31    29   ar
   104   157   158    2
   105     6     5    1
   106    67    66    1
   107    74    73    2
   108    72    73    1
   109    72    71    1
   110    61    59    1
   111    52    51    1
   112    44    43    1
   113    43    45    1
   114    43    40    1
   115    42    41    2
   116   164   163    2
   117    65    64    2
   118    59    56    1
   119   166   165    1
   120   166   167    1
   121    30    28   ar
   122    71    64   am
   123    29    27   ar
   124    53    51    1
   125    64    63    1
   126    66    63    1
   127    58    57    2
   128     5     2    1
   129   165   162    1
   130    51    48    1
   131   163   162    1
   132    41    40    1
   133    18    16   ar
   134    18    20   ar
   135    56    57    1
   136    56    55    1
   137    40    39    1
   138    48    47    1
   139    48    49    1
   140     2     1    1
   141     2     3    1
   142    38    37    1
   143    63    62    1
   144    28    27   ar
   145    21    20    1
   146    16    15   ar
   147    27    26    1
   148   162   161    1
   149    20    19   ar
   150    49    50    2
   151     3     4    2
   152    37    34    1
   153    34    33    1
   154    34    35    1
   155    25    24    2
   156    15    14    1
   157    15    17   ar
   158    26    23    1
   159    36    35    2
   160    33    24   am
   161    24    23    1
   162    19    17   ar
   163    14    11    1
   164    11    12    1
   165    11    10    1
   166    13    12    2
   167    23    22    1
