@<TRIPOS>MOLECULE
tmp/3emcA00.pdb
 146 144 0 0 0
SMALL
GASTEIGER

@<TRIPOS>ATOM
      1  N         25.0510    6.8750    1.4910 N.3    47  LYS47      -0.1245
      2  CA        24.4560    5.9730    0.5160 C.3    47  LYS47       0.1561
      3  C         25.4080    5.7560   -0.6480 C.2    47  LYS47       0.2260
      4  O         26.3050    6.5670   -0.8980 O.2    47  LYS47      -0.2867
      5  CB        23.1040    6.5170    0.0410 C.3    47  LYS47       0.0271
      6  CG        22.0610    6.4620    1.1400 C.3    47  LYS47       0.0035
      7  CD        20.7690    7.1570    0.7710 C.3    47  LYS47       0.0206
      8  CE        19.7900    7.0800    1.9290 C.3    47  LYS47       0.1093
      9  NZ        18.5500    7.8480    1.6600 N.3    47  LYS47      -0.1314
     10  N         24.2820    3.8460    7.0990 N.3    80  HIS80      -0.1241
     11  CA        23.0270    3.5810    6.4160 C.3    80  HIS80       0.1621
     12  C         23.0840    2.9540    5.0320 C.2    80  HIS80       0.2264
     13  O         23.5920    3.5150    4.0630 O.2    80  HIS80      -0.2867
     14  CB        22.1620    4.8420    6.4080 C.3    80  HIS80       0.0745
     15  CG        20.7780    4.6230    5.8810 C.ar   80  HIS80       0.0817
     16  ND1       19.9990    3.5510    6.2600 N.ar   80  HIS80      -0.2268
     17  CD2       20.0270    5.3500    5.0200 C.ar   80  HIS80       0.1154
     18  CE1       18.8270    3.6270    5.6530 C.ar   80  HIS80       0.1986
     19  NE2       18.8190    4.7100    4.8960 N.ar   80  HIS80      -0.2212
     20  N         20.8250   -1.3850   -1.4790 N.3    84  TRP84      -0.1241
     21  CA        19.4530   -0.9080   -1.5670 C.3    84  TRP84       0.1605
     22  C         19.1400   -0.6370   -3.0440 C.2    84  TRP84       0.2264
     23  O         20.0260   -0.2430   -3.8000 O.2    84  TRP84      -0.2867
     24  CB        19.3310    0.3620   -0.7180 C.3    84  TRP84       0.0550
     25  CG        17.9710    0.9730   -0.6560 C.ar   84  TRP84       0.0003
     26  CD1       16.7730    0.3180   -0.6110 C.ar   84  TRP84       0.0946
     27  CD2       17.6710    2.3660   -0.5400 C.ar   84  TRP84       0.0152
     28  NE1       15.7470    1.2190   -0.4710 N.ar   84  TRP84      -0.2442
     29  CE2       16.2700    2.4840   -0.4240 C.ar   84  TRP84       0.0810
     30  CE3       18.4520    3.5300   -0.5190 C.ar   84  TRP84       0.0012
     31  CZ2       15.6290    3.7210   -0.2880 C.ar   84  TRP84       0.0191
     32  CZ3       17.8160    4.7600   -0.3850 C.ar   84  TRP84       0.0001
     33  CH2       16.4170    4.8440   -0.2710 C.ar   84  TRP84       0.0015
     34  N         17.3910    1.7080   -4.2410 N.3    86  ASN86      -0.1225
     35  CA        17.3310    3.1370   -4.5080 C.3    86  ASN86       0.1785
     36  C         18.6860    3.7720   -4.2250 C.2    86  ASN86       0.2597
     37  O         19.5260    3.1960   -3.5370 O.2    86  ASN86      -0.2718
     38  CB        16.2580    3.8050   -3.6370 C.3    86  ASN86       0.1169
     39  CG        14.8420    3.5100   -4.1140 C.2    86  ASN86       0.2627
     40  OD1       13.8800    3.6480   -3.3570 O.2    86  ASN86      -0.2716
     41  ND2       14.7080    3.1150   -5.3740 N.am   86  ASN86      -0.0877
     42  N         18.8890    4.9610   -4.7750 N.am   87  GLN87      -0.1979
     43  CA        20.1130    5.7210   -4.5930 C.3    87  GLN87       0.1601
     44  C         21.4180    4.9620   -4.8430 C.2    87  GLN87       0.2287
     45  O         22.4410    5.2020   -4.1930 O.2    87  GLN87      -0.2864
     46  CB        20.0930    6.3780   -3.2080 C.3    87  GLN87       0.0394
     47  CG        19.0020    7.4530   -3.1240 C.3    87  GLN87       0.0908
     48  CD        18.9550    8.1830   -1.7940 C.2    87  GLN87       0.2608
     49  OE1       18.2580    7.7730   -0.8660 O.2    87  GLN87      -0.2717
     50  NE2       19.7030    9.2730   -1.6980 N.am   87  GLN87      -0.0878
     51  N         18.7740   -3.1060    2.6970 N.3   132  ASN132     -0.1225
     52  CA        17.6150   -2.2650    2.9710 C.3   132  ASN132      0.1785
     53  C         16.4290   -2.5350    2.0470 C.2   132  ASN132      0.2597
     54  O         16.5750   -2.5730    0.8210 O.2   132  ASN132     -0.2718
     55  CB        18.0510   -0.7940    2.8540 C.3   132  ASN132      0.1169
     56  CG        17.0490    0.1860    3.4550 C.2   132  ASN132      0.2627
     57  OD1       16.5690   -0.0020    4.5720 O.2   132  ASN132     -0.2716
     58  ND2       16.7550    1.2570    2.7180 N.am  132  ASN132     -0.0877
     59  N         15.2620   -2.7480    2.6510 N.am  133  GLU133     -0.1979
     60  CA        14.0170   -2.9480    1.9110 C.3   133  GLU133      0.1602
     61  C         14.0490   -4.0010    0.8070 C.2   133  GLU133      0.2287
     62  O         13.7780   -3.6880   -0.3510 O.2   133  GLU133     -0.2864
     63  CB        13.5870   -1.6010    1.3200 C.3   133  GLU133      0.0415
     64  CG        13.3560   -0.5350    2.3850 C.3   133  GLU133      0.1163
     65  CD        13.2310    0.8640    1.8180 C.2   133  GLU133      0.3649
     66  OE1       13.0400    0.9980    0.5930 O.co2 133  GLU133     -0.2457
     67  OE2       13.3150    1.8320    2.6040 O.co2 133  GLU133     -0.2457
     68  N         10.7880   -1.0050    6.0950 N.3   178  TYR178     -0.1241
     69  CA         9.6330   -0.2190    6.5430 C.3   178  TYR178      0.1605
     70  C          8.3590   -1.0710    6.5050 C.2   178  TYR178      0.2264
     71  O          8.3660   -2.1780    5.9540 O.2   178  TYR178     -0.2867
     72  CB         9.4460    1.0370    5.6750 C.3   178  TYR178      0.0534
     73  CG         9.1630    0.7480    4.2160 C.ar  178  TYR178     -0.0201
     74  CD1       10.2020    0.5180    3.3170 C.ar  178  TYR178     -0.0009
     75  CD2        7.8540    0.6520    3.7490 C.ar  178  TYR178     -0.0009
     76  CE1        9.9460    0.1960    1.9900 C.ar  178  TYR178      0.0417
     77  CE2        7.5850    0.3290    2.4240 C.ar  178  TYR178      0.0417
     78  CZ         8.6340    0.1020    1.5540 C.ar  178  TYR178      0.1957
     79  OH         8.3720   -0.2270    0.2470 O.3   178  TYR178     -0.2866
     80  N         12.1570    0.5950   10.6590 N.3   209  GLN209     -0.1245
     81  CA        12.2060    1.9860   10.2370 C.3   209  GLN209      0.1566
     82  C         11.3230    2.9250   11.0480 C.2   209  GLN209      0.2260
     83  O         11.7530    4.0160   11.4130 O.2   209  GLN209     -0.2867
     84  CB        11.9180    2.0880    8.7350 C.3   209  GLN209      0.0367
     85  CG        13.1920    1.8880    7.8870 C.3   209  GLN209      0.0905
     86  CD        12.9510    2.0510    6.3910 C.2   209  GLN209      0.2608
     87  OE1       12.1750    2.9040    5.9720 O.2   209  GLN209     -0.2717
     88  NE2       13.6360    1.2440    5.5820 N.am  209  GLN209     -0.0878
     89  N          8.4130    4.4390   10.1490 N.3   211  HIS211     -0.1241
     90  CA         7.7900    5.5320    9.4160 C.3   211  HIS211      0.1621
     91  C          6.3020    5.3230    9.6510 C.2   211  HIS211      0.2264
     92  O          5.5770    4.7540    8.8230 O.2   211  HIS211     -0.2867
     93  CB         8.1600    5.4700    7.9300 C.3   211  HIS211      0.0745
     94  CG         9.5720    5.8850    7.6570 C.ar  211  HIS211      0.0817
     95  ND1       10.0590    7.1260    8.0120 N.ar  211  HIS211     -0.2268
     96  CD2       10.6130    5.2150    7.1070 C.ar  211  HIS211      0.1154
     97  CE1       11.3400    7.2000    7.6940 C.ar  211  HIS211      0.1986
     98  NE2       11.7010    6.0540    7.1440 N.ar  211  HIS211     -0.2212
     99  N         14.3460    4.8750   11.6440 N.3   240  GLU240     -0.1245
    100  CA        13.9630    6.1050   10.9450 C.3   240  GLU240      0.1567
    101  C         12.6130    6.6330   11.4130 C.2   240  GLU240      0.2260
    102  O         11.7610    7.0200   10.6130 O.2   240  GLU240     -0.2867
    103  CB        13.9250    5.8290    9.4460 C.3   240  GLU240      0.0388
    104  CG        15.2280    5.2500    8.9120 C.3   240  GLU240      0.1160
    105  CD        15.1290    4.7840    7.4730 C.2   240  GLU240      0.3649
    106  OE1       14.3410    5.3740    6.7010 O.co2 240  GLU240     -0.2457
    107  OE2       15.8500    3.8310    7.1130 O.co2 240  GLU240     -0.2457
    108  N         14.1180   10.1210   12.1550 N.3   290  TRP290     -0.1241
    109  CA        14.6260   10.4250   10.8220 C.3   290  TRP290      0.1605
    110  C         14.6550   11.9320   10.5770 C.2   290  TRP290      0.2264
    111  O         14.1030   12.4400    9.5970 O.2   290  TRP290     -0.2867
    112  CB        13.7940    9.7300    9.7440 C.3   290  TRP290      0.0550
    113  CG        14.6030    9.4170    8.5230 C.ar  290  TRP290      0.0003
    114  CD1       14.3280    9.7840    7.2340 C.ar  290  TRP290      0.0946
    115  CD2       15.8500    8.7070    8.4800 C.ar  290  TRP290      0.0152
    116  NE1       15.3290    9.3520    6.3940 N.ar  290  TRP290     -0.2442
    117  CE2       16.2750    8.6890    7.1320 C.ar  290  TRP290      0.0810
    118  CE3       16.6500    8.0840    9.4510 C.ar  290  TRP290      0.0012
    119  CZ2       17.4660    8.0730    6.7290 C.ar  290  TRP290      0.0191
    120  CZ3       17.8370    7.4680    9.0480 C.ar  290  TRP290      0.0001
    121  CH2       18.2310    7.4700    7.6960 C.ar  290  TRP290      0.0015
    122  N         12.2500   14.8260    5.3550 N.3   298  TRP298     -0.1241
    123  CA        12.0760   14.2790    4.0230 C.3   298  TRP298      0.1605
    124  C         10.5920   14.1320    3.6970 C.2   298  TRP298      0.2264
    125  O         10.2130   14.0000    2.5350 O.2   298  TRP298     -0.2867
    126  CB        12.7580   12.9130    3.9270 C.3   298  TRP298      0.0550
    127  CG        11.9880   11.8150    4.6050 C.ar  298  TRP298      0.0003
    128  CD1       11.7250   11.6930    5.9410 C.ar  298  TRP298      0.0946
    129  CD2       11.3600   10.7010    3.9680 C.ar  298  TRP298      0.0152
    130  NE1       10.9680   10.5680    6.1740 N.ar  298  TRP298     -0.2442
    131  CE2       10.7300    9.9410    4.9790 C.ar  298  TRP298      0.0810
    132  CE3       11.2670   10.2700    2.6380 C.ar  298  TRP298      0.0012
    133  CZ2       10.0130    8.7730    4.6990 C.ar  298  TRP298      0.0191
    134  CZ3       10.5560    9.1110    2.3610 C.ar  298  TRP298      0.0001
    135  CH2        9.9370    8.3760    3.3890 C.ar  298  TRP298      0.0015
    136  N          7.7920   13.9070    0.3950 N.3   302  PHE302     -0.1241
    137  CA         7.3780   12.5440    0.1020 C.3   302  PHE302      0.1605
    138  C          6.2940   12.1410    1.0890 C.2   302  PHE302      0.2264
    139  O          6.4080   12.3950    2.2880 O.2   302  PHE302     -0.2867
    140  CB         8.5570   11.5740    0.2060 C.3   302  PHE302      0.0534
    141  CG         8.2770   10.2290   -0.3950 C.ar  302  PHE302     -0.0203
    142  CD1        8.3870   10.0310   -1.7680 C.ar  302  PHE302     -0.0042
    143  CD2        7.8500    9.1720    0.4020 C.ar  302  PHE302     -0.0042
    144  CE1        8.0770    8.8030   -2.3400 C.ar  302  PHE302     -0.0003
    145  CE2        7.5350    7.9340   -0.1630 C.ar  302  PHE302     -0.0003
    146  CZ         7.6490    7.7530   -1.5370 C.ar  302  PHE302     -0.0000
@<TRIPOS>BOND
     1    41    39   am
     2    44    43    1
     3    44    45    2
     4    42    43    1
     5    42    36   am
     6    43    46    1
     7    35    34    1
     8    35    36    1
     9    35    38    1
    10    36    37    2
    11    39    38    1
    12    39    40    2
    13    23    22    2
    14    46    47    1
    15    47    48    1
    16    22    21    1
    17   144   142   ar
    18   144   146   ar
    19    48    50   am
    20    48    49    2
    21   142   141   ar
    22    21    20    1
    23    21    24    1
    24   146   145   ar
    25     4     3    2
    26    24    25    1
    27    25    26   ar
    28    25    27   ar
    29     3     2    1
    30    26    28   ar
    31    27    30   ar
    32    27    29   ar
    33    30    32   ar
    34    28    29   ar
    35    29    31   ar
    36   141   140    1
    37   141   143   ar
    38    32    33   ar
    39    62    61    2
    40    31    33   ar
    41   145   143   ar
    42     5     2    1
    43     5     6    1
    44   137   140    1
    45   137   136    1
    46   137   138    1
    47    79    78    1
    48     2     1    1
    49    66    65   ar
    50     7     6    1
    51     7     8    1
    52    61    60    1
    53    54    53    2
    54   138   139    2
    55    63    60    1
    56    63    64    1
    57    78    76   ar
    58    78    77   ar
    59     9     8    1
    60    65    64    1
    61    65    67   ar
    62    60    59    1
    63    76    74   ar
    64    53    59   am
    65    53    52    1
    66   134   132   ar
    67   134   135   ar
    68    77    75   ar
    69   125   124    2
    70   132   129   ar
    71    51    52    1
    72    58    56   am
    73    55    52    1
    74    55    56    1
    75    74    73   ar
    76   135   133   ar
    77    56    57    2
    78   124   123    1
    79    75    73   ar
    80   126   123    1
    81   126   127    1
    82   129   127   ar
    83   129   131   ar
    84   123   122    1
    85    13    12    2
    86    73    72    1
    87   127   128   ar
    88   133   131   ar
    89    19    17   ar
    90    19    18   ar
    91   131   130   ar
    92    17    15   ar
    93    12    11    1
    94    88    86   am
    95    18    16   ar
    96    72    69    1
    97    15    16   ar
    98    15    14    1
    99   128   130   ar
   100    71    70    2
   101    87    86    2
   102    68    69    1
   103    86    85    1
   104   116   117   ar
   105   116   114   ar
   106    14    11    1
   107    11    10    1
   108    70    69    1
   109   106   105   ar
   110   119   117   ar
   111   119   121   ar
   112    96    98   ar
   113    96    94   ar
   114   107   105   ar
   115   117   115   ar
   116    98    97   ar
   117   114   113   ar
   118   105   104    1
   119    94    93    1
   120    94    95   ar
   121    97    95   ar
   122   121   120   ar
   123    85    84    1
   124    93    90    1
   125   115   113   ar
   126   115   118   ar
   127   113   112    1
   128    84    81    1
   129    92    91    2
   130   104   103    1
   131   120   118   ar
   132    90    91    1
   133    90    89    1
   134   103   100    1
   135   111   110    2
   136   112   109    1
   137    81    80    1
   138    81    82    1
   139   110   109    1
   140   102   101    2
   141   109   108    1
   142   100   101    1
   143   100    99    1
   144    82    83    2
