@<TRIPOS>MOLECULE
tmp/3emcA01.pdb
 102 105 0 0 0
SMALL
GASTEIGER

@<TRIPOS>ATOM
      1  N          5.9180   -5.1420   -0.7060 N.3   137  ASP137     -0.1239
      2  CA         4.7470   -4.6850    0.0410 C.3   137  ASP137      0.1674
      3  C          3.5140   -5.4260   -0.4850 C.2   137  ASP137      0.2266
      4  O          2.5080   -5.5620    0.2150 O.2   137  ASP137     -0.2867
      5  CB         4.5460   -3.1720   -0.1200 C.3   137  ASP137      0.1410
      6  CG         5.5930   -2.3580    0.6220 C.2   137  ASP137      0.3668
      7  OD1        5.8020   -2.6050    1.8310 O.co2 137  ASP137     -0.2456
      8  OD2        6.1980   -1.4610   -0.0030 O.co2 137  ASP137     -0.2456
      9  N         10.7880   -1.0050    6.0950 N.3   178  TYR178     -0.1227
     10  CA         9.6330   -0.2190    6.5430 C.3   178  TYR178      0.1736
     11  C          8.3590   -1.0710    6.5050 C.2   178  TYR178      0.2595
     12  O          8.3660   -2.1780    5.9540 O.2   178  TYR178     -0.2718
     13  CB         9.4460    1.0370    5.6750 C.3   178  TYR178      0.0548
     14  CG         9.1630    0.7480    4.2160 C.ar  178  TYR178     -0.0200
     15  CD1       10.2020    0.5180    3.3170 C.ar  178  TYR178     -0.0009
     16  CD2        7.8540    0.6520    3.7490 C.ar  178  TYR178     -0.0009
     17  CE1        9.9460    0.1960    1.9900 C.ar  178  TYR178      0.0417
     18  CE2        7.5850    0.3290    2.4240 C.ar  178  TYR178      0.0417
     19  CZ         8.6340    0.1020    1.5540 C.ar  178  TYR178      0.1957
     20  OH         8.3720   -0.2270    0.2470 O.3   178  TYR178     -0.2866
     21  N          7.2710   -0.5410    7.0720 N.am  179  ASN179     -0.1974
     22  CA         5.9930   -1.2580    7.1580 C.3   179  ASN179      0.1688
     23  C          6.2550   -2.5660    7.8860 C.2   179  ASN179      0.2292
     24  O          5.5380   -3.5560    7.7110 O.2   179  ASN179     -0.2864
     25  CB         5.4180   -1.5460    5.7650 C.3   179  ASN179      0.1181
     26  CG         4.6820   -0.3530    5.1770 C.2   179  ASN179      0.2629
     27  OD1        4.2800   -0.3700    4.0110 O.2   179  ASN179     -0.2716
     28  ND2        4.4980    0.6860    5.9810 N.am  179  ASN179     -0.0877
     29  N          8.4130    4.4390   10.1490 N.3   211  HIS211     -0.1226
     30  CA         7.7900    5.5320    9.4160 C.3   211  HIS211      0.1752
     31  C          6.3020    5.3230    9.6510 C.2   211  HIS211      0.2596
     32  O          5.5770    4.7540    8.8230 O.2   211  HIS211     -0.2718
     33  CB         8.1600    5.4700    7.9300 C.3   211  HIS211      0.0759
     34  CG         9.5720    5.8850    7.6570 C.ar  211  HIS211      0.0818
     35  ND1       10.0590    7.1260    8.0120 N.ar  211  HIS211     -0.2268
     36  CD2       10.6130    5.2150    7.1070 C.ar  211  HIS211      0.1154
     37  CE1       11.3400    7.2000    7.6940 C.ar  211  HIS211      0.1986
     38  NE2       11.7010    6.0540    7.1440 N.ar  211  HIS211     -0.2212
     39  N          5.8730    5.7810   10.8200 N.am  212  TRP212     -0.1976
     40  CA         4.5040    5.6420   11.2750 C.3   212  TRP212      0.1640
     41  C          3.7520    6.9710   11.1960 C.2   212  TRP212      0.2290
     42  O          4.2300    7.9280   10.5970 O.2   212  TRP212     -0.2864
     43  CB         4.5270    5.1060   12.7200 C.3   212  TRP212      0.0576
     44  CG         5.2920    3.7840   12.8650 C.ar  212  TRP212      0.0006
     45  CD1        5.4560    2.8230   11.9020 C.ar  212  TRP212      0.0946
     46  CD2        5.9120    3.2610   14.0520 C.ar  212  TRP212      0.0152
     47  NE1        6.1310    1.7360   12.4150 N.ar  212  TRP212     -0.2442
     48  CE2        6.4220    1.9770   13.7310 C.ar  212  TRP212      0.0810
     49  CE3        6.0820    3.7470   15.3560 C.ar  212  TRP212      0.0012
     50  CZ2        7.0920    1.1750   14.6690 C.ar  212  TRP212      0.0191
     51  CZ3        6.7500    2.9460   16.2920 C.ar  212  TRP212      0.0001
     52  CH2        7.2450    1.6750   15.9390 C.ar  212  TRP212      0.0015
     53  N         -1.6460    7.5650    4.3030 N.3   248  HIS248     -0.1241
     54  CA        -1.2070    7.1480    2.9730 C.3   248  HIS248      0.1621
     55  C         -2.0150    7.9440    1.9530 C.2   248  HIS248      0.2264
     56  O         -3.2160    8.1520    2.1300 O.2   248  HIS248     -0.2867
     57  CB        -1.4750    5.6520    2.7750 C.3   248  HIS248      0.0745
     58  CG        -1.1980    5.1620    1.3860 C.ar  248  HIS248      0.0817
     59  ND1       -1.7250    3.9860    0.8960 N.ar  248  HIS248     -0.2268
     60  CD2       -0.4430    5.6800    0.3870 C.ar  248  HIS248      0.1154
     61  CE1       -1.3080    3.8020   -0.3450 C.ar  248  HIS248      0.1986
     62  NE2       -0.5290    4.8150   -0.6770 N.ar  248  HIS248     -0.2212
     63  N         12.2500   14.8260    5.3550 N.3   298  TRP298     -0.1227
     64  CA        12.0760   14.2790    4.0230 C.3   298  TRP298      0.1737
     65  C         10.5920   14.1320    3.6970 C.2   298  TRP298      0.2595
     66  O         10.2130   14.0000    2.5350 O.2   298  TRP298     -0.2718
     67  CB        12.7580   12.9130    3.9270 C.3   298  TRP298      0.0564
     68  CG        11.9880   11.8150    4.6050 C.ar  298  TRP298      0.0003
     69  CD1       11.7250   11.6930    5.9410 C.ar  298  TRP298      0.0946
     70  CD2       11.3600   10.7010    3.9680 C.ar  298  TRP298      0.0152
     71  NE1       10.9680   10.5680    6.1740 N.ar  298  TRP298     -0.2442
     72  CE2       10.7300    9.9410    4.9790 C.ar  298  TRP298      0.0810
     73  CE3       11.2670   10.2700    2.6380 C.ar  298  TRP298      0.0012
     74  CZ2       10.0130    8.7730    4.6990 C.ar  298  TRP298      0.0191
     75  CZ3       10.5560    9.1110    2.3610 C.ar  298  TRP298      0.0001
     76  CH2        9.9370    8.3760    3.3890 C.ar  298  TRP298      0.0015
     77  N          9.7480   14.1490    4.7240 N.am  299  LEU299     -0.1980
     78  CA         8.3160   14.0100    4.5000 C.3   299  LEU299      0.1596
     79  C          7.7400   15.2740    3.8490 C.2   299  LEU299      0.2287
     80  O          6.6340   15.2510    3.3050 O.2   299  LEU299     -0.2864
     81  CB         7.5990   13.7000    5.8200 C.3   299  LEU299      0.0297
     82  CG         7.9290   12.3420    6.4640 C.3   299  LEU299      0.0022
     83  CD1        7.2980   12.2390    7.8460 C.3   299  LEU299      0.0001
     84  CD2        7.4270   11.2140    5.5730 C.3   299  LEU299      0.0001
     85  N          7.7920   13.9070    0.3950 N.3   302  PHE302     -0.1228
     86  CA         7.3780   12.5440    0.1020 C.3   302  PHE302      0.1721
     87  C          6.2940   12.1410    1.0890 C.2   302  PHE302      0.2437
     88  O          6.4080   12.3950    2.2880 O.2   302  PHE302     -0.2733
     89  CB         8.5570   11.5740    0.2060 C.3   302  PHE302      0.0547
     90  CG         8.2770   10.2290   -0.3950 C.ar  302  PHE302     -0.0202
     91  CD1        8.3870   10.0310   -1.7680 C.ar  302  PHE302     -0.0042
     92  CD2        7.8500    9.1720    0.4020 C.ar  302  PHE302     -0.0042
     93  CE1        8.0770    8.8030   -2.3400 C.ar  302  PHE302     -0.0003
     94  CE2        7.5350    7.9340   -0.1630 C.ar  302  PHE302     -0.0003
     95  CZ         7.6490    7.7530   -1.5370 C.ar  302  PHE302     -0.0000
     96  N          5.2220   11.5040    0.5960 N.am  303  PRO303     -0.2729
     97  CA         5.0060   11.1590   -0.8130 C.3   303  PRO303      0.1401
     98  C          4.5280   12.3160   -1.6970 C.2   303  PRO303      0.2269
     99  O          4.4950   12.1850   -2.9190 O.2   303  PRO303     -0.2865
    100  CB         3.9670   10.0530   -0.7250 C.3   303  PRO303      0.0296
    101  CG         3.1030   10.5400    0.4040 C.3   303  PRO303      0.0237
    102  CD         4.1400   10.9550    1.4360 C.3   303  PRO303      0.0939
@<TRIPOS>BOND
     1    99    98    2
     2    93    91   ar
     3    93    95   ar
     4    91    90   ar
     5    98    97    1
     6    95    94   ar
     7    97   100    1
     8    97    96    1
     9   100   101    1
    10     1     2    1
    11    62    61   ar
    12    62    60   ar
    13     3     2    1
    14     3     4    2
    15    90    89    1
    16    90    92   ar
    17    61    59   ar
    18    94    92   ar
    19     5     2    1
    20     5     6    1
    21     8     6   ar
    22    86    89    1
    23    86    85    1
    24    86    87    1
    25    20    19    1
    26    60    58   ar
    27   101   102    1
    28    96    87   am
    29    96   102    1
    30     6     7   ar
    31    59    58   ar
    32    87    88    2
    33    58    57    1
    34    19    17   ar
    35    19    18   ar
    36    55    56    2
    37    55    54    1
    38    17    15   ar
    39    75    73   ar
    40    75    76   ar
    41    18    16   ar
    42    66    65    2
    43    73    70   ar
    44    57    54    1
    45    54    53    1
    46    80    79    2
    47    15    14   ar
    48    76    74   ar
    49    65    64    1
    50    65    77   am
    51    16    14   ar
    52    79    78    1
    53    67    64    1
    54    67    68    1
    55    70    68   ar
    56    70    72   ar
    57    27    26    2
    58    64    63    1
    59    14    13    1
    60    78    77    1
    61    78    81    1
    62    68    69   ar
    63    74    72   ar
    64    72    71   ar
    65    26    25    1
    66    26    28   am
    67    84    82    1
    68    13    10    1
    69    25    22    1
    70    81    82    1
    71    69    71   ar
    72    12    11    2
    73     9    10    1
    74    82    83    1
    75    11    10    1
    76    11    21   am
    77    21    22    1
    78    36    38   ar
    79    36    34   ar
    80    38    37   ar
    81    22    23    1
    82    34    33    1
    83    34    35   ar
    84    37    35   ar
    85    24    23    2
    86    33    30    1
    87    32    31    2
    88    30    31    1
    89    30    29    1
    90    31    39   am
    91    42    41    2
    92    39    40    1
    93    41    40    1
    94    40    43    1
    95    45    47   ar
    96    45    44   ar
    97    47    48   ar
    98    43    44    1
    99    44    46   ar
   100    48    46   ar
   101    48    50   ar
   102    46    49   ar
   103    50    52   ar
   104    49    51   ar
   105    52    51   ar
