@<TRIPOS>MOLECULE
tmp/3emdA01.pdb
 126 118 0 0 0
SMALL
GASTEIGER

@<TRIPOS>ATOM
      1  N          7.9430    3.4460   36.5100 N.3     8  LYS8       -0.1245
      2  CA         6.9080    4.4230   36.1430 C.3     8  LYS8        0.1561
      3  C          6.6910    5.4440   37.2570 C.2     8  LYS8        0.2260
      4  O          6.5520    6.6370   36.9880 O.2     8  LYS8       -0.2867
      5  CB         5.5930    3.7190   35.7720 C.3     8  LYS8        0.0271
      6  CG         4.4550    4.6310   35.2750 C.3     8  LYS8        0.0035
      7  CD         4.7700    5.2950   33.9160 C.3     8  LYS8        0.0206
      8  CE         3.4930    5.8080   33.2600 C.3     8  LYS8        0.1093
      9  NZ         3.7490    6.5300   31.9690 N.3     8  LYS8       -0.1314
     10  N          9.7650    7.6920   37.3600 N.3    11  LEU11      -0.1231
     11  CA         9.7390    8.5510   36.1780 C.3    11  LEU11       0.1693
     12  C          8.8650    9.7790   36.4110 C.2    11  LEU11       0.2592
     13  O          9.2820   10.9080   36.1410 O.2    11  LEU11      -0.2718
     14  CB         9.2530    7.7790   34.9410 C.3    11  LEU11       0.0284
     15  CG         8.9910    8.5760   33.6520 C.3    11  LEU11       0.0019
     16  CD1       10.2940    8.9890   32.9680 C.3    11  LEU11       0.0001
     17  CD2        8.1180    7.7650   32.7030 C.3    11  LEU11       0.0001
     18  N          7.6620    9.5400   36.9220 N.am   12  ASN12      -0.1974
     19  CA         6.6930   10.5920   37.2010 C.3    12  ASN12       0.1688
     20  C          7.1460   11.6140   38.2510 C.2    12  ASN12       0.2292
     21  O          6.6350   12.7370   38.2910 O.2    12  ASN12      -0.2864
     22  CB         5.3520    9.9720   37.5990 C.3    12  ASN12       0.1181
     23  CG         4.5370    9.5240   36.3980 C.2    12  ASN12       0.2629
     24  OD1        4.7510    9.9930   35.2880 O.2    12  ASN12      -0.2716
     25  ND2        3.6010    8.6080   36.6190 N.am   12  ASN12      -0.0877
     26  N         10.4460   12.6060   38.5680 N.3    14  LEU14      -0.1231
     27  CA        11.5890   13.3670   38.0620 C.3    14  LEU14       0.1693
     28  C         11.2450   14.8390   37.8660 C.2    14  LEU14       0.2593
     29  O         10.1330   15.1740   37.4370 O.2    14  LEU14      -0.2718
     30  CB        12.1170   12.7750   36.7420 C.3    14  LEU14       0.0284
     31  CG        12.7360   11.3710   36.7910 C.3    14  LEU14       0.0019
     32  CD1       13.1190   10.8960   35.3810 C.3    14  LEU14       0.0001
     33  CD2       13.9420   11.3350   37.7240 C.3    14  LEU14       0.0001
     34  N         12.2020   15.7070   38.2010 N.am   15  GLY15      -0.1942
     35  CA        12.1170   17.1310   37.8810 C.3    15  GLY15       0.2014
     36  C         12.2010   17.3100   36.3770 C.2    15  GLY15       0.2638
     37  O         12.5450   16.3700   35.6590 O.2    15  GLY15      -0.2714
     38  N         11.8930   18.5130   35.9020 N.am   16  LYS16      -0.1977
     39  CA        11.7580   18.7810   34.4680 C.3    16  LYS16       0.1596
     40  C         13.0350   18.5150   33.6670 C.2    16  LYS16       0.2287
     41  O         13.0020   17.7980   32.6620 O.2    16  LYS16      -0.2864
     42  CB        11.2580   20.2100   34.2280 C.3    16  LYS16       0.0298
     43  CG        10.9730   20.5500   32.7600 C.3    16  LYS16       0.0038
     44  CD         9.9340   19.6160   32.1500 C.3    16  LYS16       0.0206
     45  CE         9.9460   19.6790   30.6300 C.3    16  LYS16       0.1093
     46  NZ         9.0640   18.6270   30.0350 N.3    16  LYS16      -0.1314
     47  N         13.9750   14.8280   33.7870 N.3    19  PHE19      -0.1241
     48  CA        13.1520   14.0930   32.8270 C.3    19  PHE19       0.1605
     49  C         13.6920   14.2270   31.3980 C.2    19  PHE19       0.2264
     50  O         13.8510   13.2190   30.6980 O.2    19  PHE19      -0.2867
     51  CB        11.6780   14.5250   32.8910 C.3    19  PHE19       0.0534
     52  CG        10.8290   13.9120   31.8050 C.ar   19  PHE19      -0.0203
     53  CD1       10.3440   12.6150   31.9360 C.ar   19  PHE19      -0.0042
     54  CD2       10.5550   14.6150   30.6350 C.ar   19  PHE19      -0.0042
     55  CE1        9.5830   12.0250   30.9160 C.ar   19  PHE19      -0.0003
     56  CE2        9.7900   14.0370   29.6110 C.ar   19  PHE19      -0.0003
     57  CZ         9.3060   12.7430   29.7540 C.ar   19  PHE19      -0.0000
     58  N         15.1040   10.9840   29.3290 N.3    23  LYS23      -0.1245
     59  CA        14.3400   10.4010   28.2190 C.3    23  LYS23       0.1561
     60  C         15.1810   10.0380   26.9780 C.2    23  LYS23       0.2260
     61  O         14.8540    9.0920   26.2670 O.2    23  LYS23      -0.2867
     62  CB        13.0930   11.2380   27.8690 C.3    23  LYS23       0.0271
     63  CG        13.2920   12.3720   26.8990 C.3    23  LYS23       0.0035
     64  CD        11.9670   13.0870   26.6300 C.3    23  LYS23       0.0206
     65  CE        12.1310   14.1620   25.5650 C.3    23  LYS23       0.1093
     66  NZ        11.0660   15.2040   25.6490 N.3    23  LYS23      -0.1314
     67  N         -1.3120    4.8940   23.2230 N.3   144  GLU144     -0.1231
     68  CA        -1.1240    6.2890   23.5880 C.3   144  GLU144      0.1699
     69  C         -0.6680    6.4010   25.0370 C.2   144  GLU144      0.2593
     70  O         -1.3610    5.9340   25.9480 O.2   144  GLU144     -0.2718
     71  CB        -2.4300    7.0670   23.3720 C.3   144  GLU144      0.0402
     72  CG        -2.3380    8.5560   23.7050 C.3   144  GLU144      0.1161
     73  CD        -3.7020    9.2200   23.8720 C.2   144  GLU144      0.3649
     74  OE1       -4.7360    8.5960   23.5360 O.co2 144  GLU144     -0.2457
     75  OE2       -3.7390   10.3720   24.3530 O.co2 144  GLU144     -0.2457
     76  N          0.4910    7.0250   25.2480 N.am  145  SER145     -0.1938
     77  CA         1.0640    7.1750   26.5870 C.3   145  SER145      0.2055
     78  C          0.1220    7.9100   27.5390 C.2   145  SER145      0.2644
     79  O         -0.6890    8.7280   27.1070 O.2   145  SER145     -0.2714
     80  CB         2.4070    7.9130   26.5260 C.3   145  SER145      0.2130
     81  OG         3.4360    7.0820   26.0080 O.3   145  SER145     -0.2179
     82  N          0.2260    7.5800   28.8290 N.am  146  SER146     -0.1935
     83  CA        -0.4520    8.2890   29.9040 C.3   146  SER146      0.2055
     84  C          0.4460    8.2080   31.1270 C.2   146  SER146      0.2643
     85  O          1.0550    7.1660   31.3770 O.2   146  SER146     -0.2714
     86  CB        -1.8150    7.6540   30.2220 C.3   146  SER146      0.2130
     87  OG        -2.4480    8.3040   31.3250 O.3   146  SER146     -0.2179
     88  N          0.5430    9.3040   31.8790 N.am  147  SER147     -0.1949
     89  CA         1.2680    9.2900   33.1600 C.3   147  SER147      0.1924
     90  C          0.6300    8.3270   34.1580 C.2   147  SER147      0.2314
     91  O          1.2990    7.8400   35.0740 O.2   147  SER147     -0.2863
     92  CB         1.3680   10.6980   33.7590 C.3   147  SER147      0.2116
     93  OG         0.0840   11.2350   34.0280 O.3   147  SER147     -0.2180
     94  N         -2.5990    3.2730   30.9900 N.3   152  GLU152     -0.1245
     95  CA        -1.6920    2.5770   30.0590 C.3   152  GLU152      0.1567
     96  C         -1.9670    1.0830   30.0120 C.2   152  GLU152      0.2260
     97  O         -1.9030    0.4710   28.9360 O.2   152  GLU152     -0.2867
     98  CB        -0.2180    2.8090   30.4030 C.3   152  GLU152      0.0388
     99  CG         0.2440    4.2420   30.1960 C.3   152  GLU152      0.1160
    100  CD         1.7340    4.3610   29.9090 C.2   152  GLU152      0.3649
    101  OE1        2.5350    3.5580   30.4400 O.co2 152  GLU152     -0.2457
    102  OE2        2.1050    5.2800   29.1540 O.co2 152  GLU152     -0.2457
    103  N         12.0820    5.9960   23.4660 N.3   208  ARG208     -0.1245
    104  CA        12.5990    6.8850   24.5110 C.3   208  ARG208      0.1563
    105  C         12.5240    6.1730   25.8580 C.2   208  ARG208      0.2260
    106  O         11.6770    5.2970   26.0450 O.2   208  ARG208     -0.2867
    107  CB        11.7920    8.1920   24.5520 C.3   208  ARG208      0.0307
    108  CG        11.9840    9.0870   23.3360 C.3   208  ARG208      0.0489
    109  CD        11.3780   10.4580   23.5860 C.3   208  ARG208      0.2205
    110  NE        11.2770   11.2710   22.3740 N.pl3 208  ARG208     -0.0865
    111  CZ        12.2280   12.0870   21.9240 C.cat 208  ARG208      0.5346
    112  NH1       13.3810   12.2000   22.5690 N.pl3 208  ARG208      0.1354
    113  NH2       12.0290   12.7870   20.8150 N.pl3 208  ARG208      0.1354
    114  N         11.3920    7.2970   28.3840 N.3   210  SER210     -0.1202
    115  CA        10.1810    7.7980   29.0190 C.3   210  SER210      0.2020
    116  C          8.9630    6.9240   28.6970 C.2   210  SER210      0.2619
    117  O          7.8580    7.1890   29.1700 O.2   210  SER210     -0.2717
    118  CB         9.9300    9.2510   28.6090 C.3   210  SER210      0.2103
    119  OG         9.7840    9.3710   27.2030 O.3   210  SER210     -0.2182
    120  N          9.1780    5.8840   27.8940 N.am  211  THR211     -0.1952
    121  CA         8.1460    4.8750   27.6410 C.3   211  THR211      0.1897
    122  C          8.7210    3.4660   27.7860 C.2   211  THR211      0.2313
    123  O          9.8760    3.2150   27.4420 O.2   211  THR211     -0.2863
    124  CB         7.4440    5.0650   26.2610 C.3   211  THR211      0.1794
    125  OG1        6.5230    3.9910   26.0330 O.3   211  THR211     -0.2208
    126  CG2        8.4550    5.1200   25.1000 C.3   211  THR211      0.0378
@<TRIPOS>BOND
     1   113   111    1
     2   111   110    2
     3   111   112    1
     4   110   109    1
     5    67    68    1
     6   108   109    1
     7   108   107    1
     8    71    68    1
     9    71    72    1
    10   103   104    1
    11    74    73   ar
    12    68    69    1
    13    72    73    1
    14    73    75   ar
    15   104   107    1
    16   104   105    1
    17    69    76   am
    18    69    70    2
    19   126   124    1
    20    76    77    1
    21    65    66    1
    22    65    64    1
    23   105   106    2
    24    81    80    1
    25   125   124    1
    26   124   121    1
    27    61    60    2
    28    80    77    1
    29    77    78    1
    30    64    63    1
    31    63    62    1
    32    60    59    1
    33    79    78    2
    34   119   118    1
    35   123   122    2
    36    78    82   am
    37   121   122    1
    38   121   120    1
    39    62    59    1
    40   120   116   am
    41    59    58    1
    42   114   115    1
    43   118   115    1
    44   116   115    1
    45   116   117    2
    46    82    83    1
    47    97    96    2
    48   102   100   ar
    49    56    57   ar
    50    56    54   ar
    51    57    55   ar
    52    83    86    1
    53    83    84    1
    54   100    99    1
    55   100   101   ar
    56    96    95    1
    57    46    45    1
    58    95    98    1
    59    95    94    1
    60    99    98    1
    61    86    87    1
    62    45    44    1
    63    54    52   ar
    64    50    49    2
    65    55    53   ar
    66    84    85    2
    67    84    88   am
    68    49    48    1
    69    52    53   ar
    70    52    51    1
    71    88    89    1
    72     9     8    1
    73    44    43    1
    74    41    40    2
    75    17    15    1
    76    43    42    1
    77    48    51    1
    78    48    47    1
    79    16    15    1
    80    89    92    1
    81    89    90    1
    82     8     7    1
    83    15    14    1
    84    40    39    1
    85    92    93    1
    86     7     6    1
    87    90    91    2
    88    42    39    1
    89    39    38    1
    90    14    11    1
    91     6     5    1
    92    24    23    2
    93    32    31    1
    94    37    36    2
    95     5     2    1
    96    38    36   am
    97    13    12    2
    98     2     1    1
    99     2     3    1
   100    11    12    1
   101    11    10    1
   102    36    35    1
   103    23    25   am
   104    23    22    1
   105    12    18   am
   106    30    31    1
   107    30    27    1
   108    31    33    1
   109    18    19    1
   110     4     3    2
   111    19    22    1
   112    19    20    1
   113    29    28    2
   114    28    27    1
   115    28    34   am
   116    35    34    1
   117    27    26    1
   118    20    21    2
