@<TRIPOS>MOLECULE
tmp/3emgA00.pdb
 177 168 0 0 0
SMALL
GASTEIGER

@<TRIPOS>ATOM
      1  N         17.3000   47.6740    6.5340 N.3    13  LEU13      -0.1231
      2  CA        17.7580   46.9830    7.7440 C.3    13  LEU13       0.1693
      3  C         18.3030   45.5870    7.3570 C.2    13  LEU13       0.2593
      4  O         19.2540   45.0830    7.9690 O.2    13  LEU13      -0.2718
      5  CB        16.6360   46.8900    8.7910 C.3    13  LEU13       0.0284
      6  CG        16.1950   48.3210    9.1560 C.3    13  LEU13       0.0019
      7  CD1       15.0810   48.3720   10.1740 C.3    13  LEU13       0.0001
      8  CD2       17.4030   49.2150    9.6430 C.3    13  LEU13       0.0001
      9  N         17.6970   44.9990    6.3350 N.am   14  GLY14      -0.1942
     10  CA        18.0210   43.6470    5.8760 C.3    14  GLY14       0.2014
     11  C         17.3360   43.3420    4.5670 C.2    14  GLY14       0.2640
     12  O         16.4920   44.1110    4.0910 O.2    14  GLY14      -0.2714
     13  N         17.7450   42.2370    3.9460 N.am   15  SER15      -0.1935
     14  CA        17.2670   41.8220    2.6110 C.3    15  SER15       0.2055
     15  C         17.4060   40.3180    2.4840 C.2    15  SER15       0.2643
     16  O         17.9310   39.6790    3.3780 O.2    15  SER15      -0.2714
     17  CB        18.0140   42.5180    1.5090 C.3    15  SER15       0.2130
     18  OG        19.3820   42.2220    1.6100 O.3    15  SER15      -0.2179
     19  N         16.8840   39.7800    1.3930 N.am   16  GLY16      -0.1954
     20  CA        16.5790   38.3630    1.2390 C.3    16  GLY16       0.1869
     21  C         15.9270   38.1380   -0.1510 C.2    16  GLY16       0.2309
     22  O         15.7630   39.0630   -0.9430 O.2    16  GLY16      -0.2863
     23  N         12.8480   37.2850   -0.7210 N.3    18  PHE18      -0.1241
     24  CA        11.5040   37.8510   -0.7280 C.3    18  PHE18       0.1605
     25  C         11.3880   39.3040   -1.1760 C.2    18  PHE18       0.2264
     26  O         10.5840   39.6320   -2.0490 O.2    18  PHE18      -0.2867
     27  CB        10.9040   37.8230    0.6790 C.3    18  PHE18       0.0534
     28  CG        11.8000   38.4100    1.7320 C.ar   18  PHE18      -0.0203
     29  CD1       11.7020   39.7480    2.0760 C.ar   18  PHE18      -0.0042
     30  CD2       12.7390   37.6240    2.3780 C.ar   18  PHE18      -0.0042
     31  CE1       12.5250   40.2910    3.0440 C.ar   18  PHE18      -0.0003
     32  CE2       13.5650   38.1620    3.3480 C.ar   18  PHE18      -0.0003
     33  CZ        13.4570   39.4970    3.6810 C.ar   18  PHE18      -0.0000
     34  N         13.8180   44.4780    3.8850 N.3    21  VAL21      -0.1245
     35  CA        13.2750   45.0680    5.1570 C.3    21  VAL21       0.1561
     36  C         13.6730   46.5140    5.4820 C.2    21  VAL21       0.2260
     37  O         14.8570   46.8410    5.6840 O.2    21  VAL21      -0.2867
     38  CB        13.4880   44.1480    6.4450 C.3    21  VAL21       0.0252
     39  CG1       12.8690   44.8550    7.7640 C.3    21  VAL21       0.0019
     40  CG2       12.8800   42.6530    6.2320 C.3    21  VAL21       0.0019
     41  N          8.9500   48.1690   11.6270 N.3    35  ALA35      -0.1245
     42  CA         9.7870   47.4550   10.6940 C.3    35  ALA35       0.1562
     43  C          8.9190   46.8360    9.5560 C.2    35  ALA35       0.2260
     44  O          7.7790   46.3350    9.7910 O.2    35  ALA35      -0.2867
     45  CB        10.6900   46.3560   11.4460 C.3    35  ALA35       0.0290
     46  N          8.4090   44.4730    6.1220 N.3    37  LYS37      -0.1245
     47  CA         8.8240   43.4530    5.1640 C.3    37  LYS37       0.1561
     48  C          8.1910   43.7160    3.7450 C.2    37  LYS37       0.2260
     49  O          6.9750   43.5870    3.4980 O.2    37  LYS37      -0.2867
     50  CB         8.4500   42.0600    5.7140 C.3    37  LYS37       0.0271
     51  CG         9.1960   40.9070    5.1170 C.3    37  LYS37       0.0035
     52  CD         8.9000   39.6630    5.8460 C.3    37  LYS37       0.0206
     53  CE         9.3600   38.3910    5.0670 C.3    37  LYS37       0.1093
     54  NZ        10.4700   37.8910    5.9720 N.3    37  LYS37      -0.1314
     55  N          2.3070   34.3100    6.5090 N.3    48  GLU48      -0.1245
     56  CA         3.1240   34.6200    7.5990 C.3    48  GLU48       0.1567
     57  C          2.4170   35.6980    8.3740 C.2    48  GLU48       0.2260
     58  O          2.3000   35.6050    9.5870 O.2    48  GLU48      -0.2867
     59  CB         4.4640   35.0850    7.0720 C.3    48  GLU48       0.0388
     60  CG         5.2330   36.0240    8.0310 C.3    48  GLU48       0.1160
     61  CD         6.5520   36.4330    7.5100 C.2    48  GLU48       0.3649
     62  OE1        6.6910   36.7230    6.3020 O.co2  48  GLU48      -0.2457
     63  OE2        7.4820   36.5540    8.3240 O.co2  48  GLU48      -0.2457
     64  N          0.8160   35.9760   12.4260 N.3    52  MET52      -0.1245
     65  CA         1.1520   37.0300   13.3550 C.3    52  MET52       0.1570
     66  C         -0.1050   37.6350   13.8220 C.2    52  MET52       0.2261
     67  O         -0.1420   38.1280   14.9440 O.2    52  MET52      -0.2867
     68  CB         2.0740   38.0930   12.6770 C.3    52  MET52       0.0387
     69  CG         3.3290   37.4590   12.0480 C.3    52  MET52       0.0595
     70  SD         4.6420   38.5990   11.6440 S.3    52  MET52      -0.1393
     71  CE         4.8900   39.4260   13.3150 C.3    52  MET52       0.0692
     72  N          6.9150   39.4110   18.3500 N.3    61  VAL61      -0.1245
     73  CA         6.7260   40.6790   17.5920 C.3    61  VAL61       0.1561
     74  C          5.2590   40.9220   17.1900 C.2    61  VAL61       0.2260
     75  O          4.6050   40.0560   16.6950 O.2    61  VAL61      -0.2867
     76  CB         7.5660   40.7230   16.3580 C.3    61  VAL61       0.0252
     77  CG1        7.2070   42.0290   15.4360 C.3    61  VAL61       0.0019
     78  CG2        8.9750   40.5930   16.7320 C.3    61  VAL61       0.0019
     79  N          5.1600   45.4950   10.9560 N.3    76  MET76      -0.1230
     80  CA         5.3080   45.0230   12.3440 C.3    76  MET76       0.1702
     81  C          5.8790   46.1580   13.2620 C.2    76  MET76       0.2592
     82  O          6.5620   47.1100   12.7760 O.2    76  MET76      -0.2718
     83  CB         6.3240   43.9040   12.2930 C.3    76  MET76       0.0401
     84  CG         5.9960   42.7910   11.2540 C.3    76  MET76       0.0596
     85  SD         7.2920   41.5440   11.0890 S.3    76  MET76      -0.1393
     86  CE         8.4530   42.6570   10.2180 C.3    76  MET76       0.0692
     87  N          5.6050   46.0870   14.5720 N.am   77  GLU77      -0.1966
     88  CA         6.2540   46.9780   15.4740 C.3    77  GLU77       0.1733
     89  C          7.7030   46.7050   15.3040 C.2    77  GLU77       0.2616
     90  O          8.1110   45.6030   14.8830 O.2    77  GLU77      -0.2715
     91  CB         5.9080   46.7110   16.9080 C.3    77  GLU77       0.0429
     92  CG         6.6300   45.5000   17.5210 C.3    77  GLU77       0.1163
     93  CD         5.9110   45.0250   18.8370 C.2    77  GLU77       0.3649
     94  OE1        5.2000   45.8960   19.4860 O.co2  77  GLU77      -0.2457
     95  OE2        6.0630   43.8260   19.2020 O.co2  77  GLU77      -0.2457
     96  N          8.4930   47.7280   15.6200 N.am   78  MET78      -0.1963
     97  CA         9.8890   47.6720   15.3680 C.3    78  MET78       0.1736
     98  C         10.6780   47.3360   16.6280 C.2    78  MET78       0.2616
     99  O         10.5850   48.0760   17.5730 O.2    78  MET78      -0.2715
    100  CB        10.2850   49.0330   14.9500 C.3    78  MET78       0.0427
    101  CG        11.2710   49.0640   13.8950 C.3    78  MET78       0.0599
    102  SD        12.8980   48.6150   14.4190 S.3    78  MET78      -0.1393
    103  CE        13.5970   48.3170   12.7980 C.3    78  MET78       0.0692
    104  N         11.4650   46.2680   16.6280 N.am   79  ALA79      -0.1963
    105  CA        12.3900   45.9080   17.7390 C.3    79  ALA79       0.1728
    106  C         13.6410   46.5540   17.4250 C.2    79  ALA79       0.2616
    107  O         14.3480   46.0820   16.5940 O.2    79  ALA79      -0.2715
    108  CB        12.6630   44.3520   17.8420 C.3    79  ALA79       0.0334
    109  N         13.9690   47.6200   18.1330 N.am   80  GLU80      -0.1963
    110  CA        15.0080   48.5800   17.6520 C.3    80  GLU80       0.1733
    111  C         16.4390   48.0370   17.5780 C.2    80  GLU80       0.2616
    112  O         17.1550   48.4590   16.7340 O.2    80  GLU80      -0.2715
    113  CB        14.9650   49.8960   18.4610 C.3    80  GLU80       0.0429
    114  CG        13.6950   50.7720   18.2770 C.3    80  GLU80       0.1163
    115  CD        13.6640   51.6030   17.0210 C.2    80  GLU80       0.3649
    116  OE1       14.6350   51.6290   16.2360 O.co2  80  GLU80      -0.2457
    117  OE2       12.6400   52.2830   16.8570 O.co2  80  GLU80      -0.2457
    118  N         16.8140   47.0940   18.4530 N.am   81  LEU81      -0.1963
    119  CA        18.2240   46.6140   18.5640 C.3    81  LEU81       0.1728
    120  C         18.5610   45.4140   17.6590 C.2    81  LEU81       0.2617
    121  O         19.7220   44.9340   17.6450 O.2    81  LEU81      -0.2715
    122  CB        18.6390   46.3010   19.9990 C.3    81  LEU81       0.0311
    123  CG        18.5020   47.5160   20.9190 C.3    81  LEU81       0.0022
    124  CD1       18.7400   47.2120   22.4370 C.3    81  LEU81       0.0001
    125  CD2       19.4570   48.4650   20.3600 C.3    81  LEU81       0.0001
    126  N         17.5390   45.0110   16.8720 N.am   82  GLY82      -0.1941
    127  CA        17.6380   43.8740   15.9540 C.3    82  GLY82       0.1999
    128  C         18.0120   42.5260   16.5830 C.2    82  GLY82       0.2485
    129  O         17.8480   42.2680   17.7860 O.2    82  GLY82      -0.2729
    130  N         18.4870   41.6490   15.7250 N.am   83  PRO83      -0.2651
    131  CA        18.6940   40.2430   16.0190 C.3    83  PRO83       0.1628
    132  C         19.5750   39.9560   17.2950 C.2    83  PRO83       0.2315
    133  O         20.5510   40.6760   17.5190 O.2    83  PRO83      -0.2861
    134  CB        19.2550   39.6460   14.6690 C.2    83  PRO83      -0.0016
    135  CG        19.4000   40.7630   13.7370 C.2    83  PRO83      -0.0072
    136  CD        18.8040   42.0530   14.3220 C.3    83  PRO83       0.1203
    137  N         16.3860   35.0210   14.9670 N.3   127  ASN127     -0.1240
    138  CA        14.9570   35.3080   14.9070 C.3   127  ASN127      0.1653
    139  C         14.4410   35.8830   16.2280 C.2   127  ASN127      0.2266
    140  O         13.3080   36.0190   16.3750 O.2   127  ASN127     -0.2867
    141  CB        14.1530   34.1010   14.4140 C.3   127  ASN127      0.1155
    142  CG        14.5070   33.6920   12.8920 C.2   127  ASN127      0.2627
    143  OD1       15.0440   34.5350   12.1720 O.2   127  ASN127     -0.2716
    144  ND2       14.1340   32.4210   12.4180 N.am  127  ASN127     -0.0877
    145  N         14.3400   39.1780   18.3880 N.3   129  LEU129     -0.1245
    146  CA        14.7380   40.5610   18.2140 C.3   129  LEU129      0.1561
    147  C         14.7710   41.2940   19.5430 C.2   129  LEU129      0.2260
    148  O         14.0300   41.0150   20.5160 O.2   129  LEU129     -0.2867
    149  CB        13.8430   41.2050   17.1690 C.3   129  LEU129      0.0270
    150  CG        14.0730   40.9020   15.6690 C.3   129  LEU129      0.0019
    151  CD1       12.8650   40.9750   14.8730 C.3   129  LEU129      0.0001
    152  CD2       15.0890   41.7880   15.0850 C.3   129  LEU129      0.0001
    153  N         10.7200   36.4420   16.3890 N.3   139  SER139     -0.1202
    154  CA        10.2120   36.9370   15.1120 C.3   139  SER139      0.2020
    155  C         10.2090   35.8870   14.0050 C.2   139  SER139      0.2619
    156  O         10.4210   34.7210   14.3120 O.2   139  SER139     -0.2717
    157  CB        11.0650   38.1300   14.6820 C.3   139  SER139      0.2103
    158  OG        12.4180   37.6600   14.4310 O.3   139  SER139     -0.2182
    159  N         10.0650   36.3310   12.7370 N.am  140  ASP140     -0.1959
    160  CA        10.0650   35.4720   11.5430 C.3   140  ASP140      0.1840
    161  C          9.1210   34.2450   11.4370 C.2   140  ASP140      0.2622
    162  O          9.6090   33.0910   11.3680 O.2   140  ASP140     -0.2715
    163  CB        11.4710   34.9770   11.1550 C.3   140  ASP140      0.1450
    164  CG        12.3790   36.1040   10.5950 C.2   140  ASP140      0.3671
    165  OD1       12.6920   36.0920    9.3860 O.co2 140  ASP140     -0.2456
    166  OD2       12.8050   36.9710   11.3980 O.co2 140  ASP140     -0.2456
    167  N          7.8090   34.4920   11.4000 N.am  141  PHE141     -0.1974
    168  CA         6.8400   33.3950   11.3350 C.3   141  PHE141      0.1639
    169  C          6.6040   32.7790    9.9650 C.2   141  PHE141      0.2290
    170  O          5.6260   32.1480    9.7640 O.2   141  PHE141     -0.2864
    171  CB         5.5040   33.7770   12.1290 C.3   141  PHE141      0.0560
    172  CG         5.7550   34.0620   13.6150 C.ar  141  PHE141     -0.0200
    173  CD1        6.2860   35.2800   14.0200 C.ar  141  PHE141     -0.0042
    174  CD2        5.5730   33.1060   14.5420 C.ar  141  PHE141     -0.0042
    175  CE1        6.5180   35.5590   15.3040 C.ar  141  PHE141     -0.0003
    176  CE2        5.8580   33.3580   15.8860 C.ar  141  PHE141     -0.0003
    177  CZ         6.3240   34.5780   16.2710 C.ar  141  PHE141     -0.0000
@<TRIPOS>BOND
     1    26    25    2
     2    25    24    1
     3    22    21    2
     4    24    23    1
     5    24    27    1
     6    21    20    1
     7    27    28    1
     8    20    19    1
     9    19    15   am
    10    17    18    1
    11    17    14    1
    12    28    29   ar
    13    28    30   ar
    14    29    31   ar
    15    30    32   ar
    16    15    14    1
    17    15    16    2
    18    14    13    1
    19    31    33   ar
    20    32    33   ar
    21    49    48    2
    22    48    47    1
    23    34    35    1
    24    13    11   am
    25    12    11    2
    26    11    10    1
    27    53    52    1
    28    53    54    1
    29    51    50    1
    30    51    52    1
    31    35    36    1
    32    35    38    1
    33    47    50    1
    34    47    46    1
    35    36    37    2
    36    10     9    1
    37    40    38    1
    38    62    61   ar
    39     9     3   am
    40    38    39    1
    41    55    56    1
    42     1     2    1
    43    59    56    1
    44    59    60    1
    45     3     2    1
    46     3     4    2
    47    61    60    1
    48    61    63   ar
    49    56    57    1
    50     2     5    1
    51    57    58    2
    52     5     6    1
    53     6     8    1
    54     6     7    1
    55   165   164   ar
    56    43    44    2
    57    43    42    1
    58   170   169    2
    59   169   168    1
    60    86    85    1
    61   164   163    1
    62   164   166   ar
    63    42    45    1
    64    42    41    1
    65    79    80    1
    66    85    84    1
    67   163   160    1
    68    84    83    1
    69   168   167    1
    70   168   171    1
    71   162   161    2
    72   167   161   am
    73   161   160    1
    74   160   159    1
    75    70    69    1
    76    70    71    1
    77    69    68    1
    78   171   172    1
    79   143   142    2
    80    83    80    1
    81    80    81    1
    82   144   142   am
    83    64    65    1
    84    68    65    1
    85   159   155   am
    86    82    81    2
    87   103   102    1
    88   142   141    1
    89    81    87   am
    90    65    66    1
    91   172   173   ar
    92   172   174   ar
    93   135   136    1
    94   135   134    2
    95    66    67    2
    96   101   102    1
    97   101   100    1
    98   155   156    2
    99   155   154    1
   100   173   175   ar
   101   136   130    1
   102   141   138    1
   103   158   157    1
   104   174   176   ar
   105    87    88    1
   106   134   131    1
   107   157   154    1
   108   151   150    1
   109    90    89    2
   110   138   137    1
   111   138   139    1
   112   100    97    1
   113   152   150    1
   114   154   153    1
   115   175   177   ar
   116    89    88    1
   117    89    96   am
   118    97    96    1
   119    97    98    1
   120    77    76    1
   121    88    91    1
   122   150   149    1
   123   130   131    1
   124   130   128   am
   125   176   177   ar
   126   127   128    1
   127   127   126    1
   128   131   132    1
   129   139   140    2
   130   116   115   ar
   131    76    78    1
   132    76    73    1
   133   128   129    2
   134   107   106    2
   135    98   104   am
   136    98    99    2
   137   104   105    1
   138    75    74    2
   139   112   111    2
   140   117   115   ar
   141   126   120   am
   142    91    92    1
   143   115   114    1
   144   149   146    1
   145    74    73    1
   146   132   133    2
   147   106   105    1
   148   106   109   am
   149    92    93    1
   150   111   110    1
   151   111   118   am
   152    73    72    1
   153   121   120    2
   154   110   109    1
   155   110   113    1
   156   120   119    1
   157   105   108    1
   158   146   145    1
   159   146   147    1
   160   114   113    1
   161   118   119    1
   162   119   122    1
   163    93    95   ar
   164    93    94   ar
   165   147   148    2
   166   122   123    1
   167   125   123    1
   168   123   124    1
