@<TRIPOS>MOLECULE
tmp/3emjL00.pdb
 91 87 0 0 0
SMALL
GASTEIGER

@<TRIPOS>ATOM
      1  N        -10.8270  -12.0140   73.8490 N.3   110  LEU110     -0.1231
      2  CA        -9.4230  -11.8900   74.3230 C.3   110  LEU110      0.1693
      3  C         -8.7060  -13.1590   73.9840 C.2   110  LEU110      0.2592
      4  O         -7.4920  -13.2370   73.8290 O.2   110  LEU110     -0.2718
      5  CB        -9.3210  -11.6660   75.8630 C.3   110  LEU110      0.0284
      6  CG        -9.2340  -10.2540   76.5430 C.3   110  LEU110      0.0019
      7  CD1       -9.0440   -9.1240   75.5580 C.3   110  LEU110      0.0001
      8  CD2      -10.4000   -9.9730   77.4600 C.3   110  LEU110      0.0001
      9  N         -9.5340  -14.1730   73.9340 N.am  111  ASP111     -0.1974
     10  CA        -9.1810  -15.4610   73.4370 C.3   111  ASP111      0.1709
     11  C         -8.3330  -15.4790   72.1990 C.2   111  ASP111      0.2293
     12  O         -7.4780  -16.3070   72.0480 O.2   111  ASP111     -0.2864
     13  CB       -10.4590  -16.1400   72.9890 C.3   111  ASP111      0.1436
     14  CG       -10.4350  -17.4700   73.3840 C.2   111  ASP111      0.3671
     15  OD1       -9.5030  -17.6180   74.1830 O.co2 111  ASP111     -0.2456
     16  OD2      -11.2220  -18.3100   72.9390 O.co2 111  ASP111     -0.2456
     17  N         -1.0790  -14.6480   73.2840 N.3   115  GLU115     -0.1245
     18  CA        -0.9350  -14.8060   74.7100 C.3   115  GLU115      0.1567
     19  C          0.2080  -13.9420   75.2030 C.2   115  GLU115      0.2260
     20  O          0.1370  -13.3800   76.2600 O.2   115  GLU115     -0.2867
     21  CB        -0.6950  -16.2760   75.1080 C.3   115  GLU115      0.0388
     22  CG        -1.8370  -17.1670   74.7560 C.3   115  GLU115      0.1160
     23  CD        -3.0990  -16.7750   75.4230 C.2   115  GLU115      0.3649
     24  OE1       -3.0720  -16.6460   76.6370 O.co2 115  GLU115     -0.2457
     25  OE2       -4.1420  -16.5600   74.7730 O.co2 115  GLU115     -0.2457
     26  N         -0.7030  -10.3550   75.6880 N.3   118  LYS118     -0.1231
     27  CA        -1.5250  -10.1370   76.8500 C.3   118  LYS118      0.1693
     28  C         -0.6140  -10.1400   78.0900 C.2   118  LYS118      0.2591
     29  O         -0.7820   -9.3610   79.0250 O.2   118  LYS118     -0.2718
     30  CB        -2.6400  -11.1690   76.9530 C.3   118  LYS118      0.0285
     31  CG        -3.7260  -10.9100   75.9910 C.3   118  LYS118      0.0035
     32  CD        -4.8730  -11.8360   76.1100 C.3   118  LYS118      0.0206
     33  CE        -4.4040  -13.2660   75.8320 C.3   118  LYS118      0.1093
     34  NZ        -5.4950  -14.1980   75.7560 N.3   118  LYS118     -0.1314
     35  N          0.3830  -10.9980   78.0900 N.am  119  LYS119     -0.1980
     36  CA         1.2390  -11.0400   79.2590 C.3   119  LYS119      0.1596
     37  C          2.0480   -9.7440   79.3220 C.2   119  LYS119      0.2287
     38  O          2.1760   -9.1440   80.3390 O.2   119  LYS119     -0.2864
     39  CB         2.1120  -12.2710   79.2610 C.3   119  LYS119      0.0298
     40  CG         1.2910  -13.4970   79.7720 C.3   119  LYS119      0.0038
     41  CD         2.1620  -14.6990   79.9700 C.3   119  LYS119      0.0206
     42  CE         2.9200  -14.9540   78.7310 C.3   119  LYS119      0.1093
     43  NZ         2.9400  -16.3800   78.3420 N.3   119  LYS119     -0.1314
     44  N          0.0480   -6.9630   80.9240 N.3   122  VAL122     -0.1245
     45  CA         0.0080   -7.0900   82.3670 C.3   122  VAL122      0.1561
     46  C          1.4010   -6.6930   82.9250 C.2   122  VAL122      0.2260
     47  O          1.5800   -5.9500   83.8980 O.2   122  VAL122     -0.2867
     48  CB        -0.3530   -8.5650   82.7690 C.3   122  VAL122      0.0252
     49  CG1       -0.0680   -8.8310   84.2560 C.3   122  VAL122      0.0019
     50  CG2       -1.8130   -8.9240   82.4010 C.3   122  VAL122      0.0019
     51  N          1.8300   -3.5550   85.6770 N.3   126  GLU126     -0.1245
     52  CA         2.2590   -3.9290   87.0140 C.3   126  GLU126      0.1567
     53  C          3.6180   -3.3630   87.3440 C.2   126  GLU126      0.2260
     54  O          4.0060   -3.3790   88.5010 O.2   126  GLU126     -0.2867
     55  CB         2.3210   -5.4860   87.1740 C.3   126  GLU126      0.0388
     56  CG         0.9150   -6.1730   87.1570 C.3   126  GLU126      0.1160
     57  CD         0.9650   -7.7130   87.4570 C.2   126  GLU126      0.3649
     58  OE1        2.0070   -8.3310   87.2850 O.co2 126  GLU126     -0.2457
     59  OE2       -0.0590   -8.3070   87.8340 O.co2 126  GLU126     -0.2457
     60  N         -3.1720   -5.8060   88.8520 N.3   139  VAL139     -0.1231
     61  CA        -4.0690   -6.3730   87.8700 C.3   139  VAL139      0.1692
     62  C         -4.9560   -7.4080   88.5850 C.2   139  VAL139      0.2593
     63  O         -4.4400   -8.2860   89.3000 O.2   139  VAL139     -0.2718
     64  CB        -3.2690   -7.0450   86.7410 C.3   139  VAL139      0.0266
     65  CG1       -4.2000   -7.7290   85.7820 C.3   139  VAL139      0.0020
     66  CG2       -2.3570   -5.9940   86.0010 C.3   139  VAL139      0.0020
     67  N         -6.2800   -7.3060   88.4670 N.am  140  THR140     -0.1939
     68  CA        -7.0850   -8.2500   89.1890 C.3   140  THR140      0.2028
     69  C         -7.6680   -9.3260   88.2960 C.2   140  THR140      0.2643
     70  O         -7.8920  -10.4340   88.7510 O.2   140  THR140     -0.2714
     71  CB        -8.2110   -7.5970   89.9160 C.3   140  THR140      0.1808
     72  OG1       -9.1350   -7.0800   88.9540 O.3   140  THR140     -0.2208
     73  CG2       -7.6900   -6.4800   90.9030 C.3   140  THR140      0.0379
     74  N         -7.9240   -9.0120   87.0370 N.am  141  GLY141     -0.1939
     75  CA        -8.4890   -9.9920   86.1170 C.3   141  GLY141      0.2014
     76  C         -8.6650   -9.4610   84.7140 C.2   141  GLY141      0.2638
     77  O         -8.0860   -8.4250   84.3520 O.2   141  GLY141     -0.2714
     78  N         -9.4290  -10.2070   83.9220 N.am  142  TRP142     -0.1973
     79  CA        -9.8550   -9.7670   82.6020 C.3   142  TRP142      0.1640
     80  C        -11.3350   -9.9800   82.4930 C.2   142  TRP142      0.2290
     81  O        -11.9060  -10.7800   83.2050 O.2   142  TRP142     -0.2864
     82  CB        -9.1740  -10.5030   81.4510 C.3   142  TRP142      0.0576
     83  CG        -7.7310  -10.4510   81.4000 C.ar  142  TRP142      0.0006
     84  CD1       -6.8740  -11.1810   82.1450 C.ar  142  TRP142      0.0946
     85  CD2       -6.9190   -9.6970   80.4930 C.ar  142  TRP142      0.0152
     86  NE1       -5.5930  -10.9110   81.7980 N.ar  142  TRP142     -0.2442
     87  CE2       -5.5890  -10.0040   80.7760 C.ar  142  TRP142      0.0810
     88  CE3       -7.1850   -8.7800   79.4770 C.ar  142  TRP142      0.0012
     89  CZ2       -4.5300   -9.4240   80.0940 C.ar  142  TRP142      0.0191
     90  CZ3       -6.1090   -8.2110   78.7990 C.ar  142  TRP142      0.0001
     91  CH2       -4.8180   -8.5380   79.1140 C.ar  142  TRP142      0.0015
@<TRIPOS>BOND
     1    12    11    2
     2    11    10    1
     3    16    14   ar
     4    13    14    1
     5    13    10    1
     6    17    18    1
     7    14    15   ar
     8    10     9    1
     9     4     3    2
    10     1     2    1
    11     9     3   am
    12     3     2    1
    13     2     5    1
    14    18    21    1
    15    18    19    1
    16    22    21    1
    17    22    23    1
    18    25    23   ar
    19    19    20    2
    20    23    24   ar
    21     7     6    1
    22    26    27    1
    23    34    33    1
    24    33    32    1
    25     5     6    1
    26    31    32    1
    27    31    30    1
    28     6     8    1
    29    27    30    1
    30    27    28    1
    31    28    35   am
    32    28    29    2
    33    35    36    1
    34    43    42    1
    35    42    41    1
    36    90    91   ar
    37    90    88   ar
    38    91    89   ar
    39    36    39    1
    40    36    37    1
    41    39    40    1
    42    37    38    2
    43    88    85   ar
    44    40    41    1
    45    89    87   ar
    46    85    87   ar
    47    85    83   ar
    48    87    86   ar
    49    44    45    1
    50    83    82    1
    51    83    84   ar
    52    82    79    1
    53    86    84   ar
    54    45    48    1
    55    45    46    1
    56    50    48    1
    57    80    79    1
    58    80    81    2
    59    79    78    1
    60    48    49    1
    61    46    47    2
    62    78    76   am
    63    77    76    2
    64    76    75    1
    65    51    52    1
    66    65    64    1
    67    66    64    1
    68    75    74    1
    69    64    61    1
    70    52    55    1
    71    52    53    1
    72    74    69   am
    73    56    55    1
    74    56    57    1
    75    58    57   ar
    76    53    54    2
    77    57    59   ar
    78    61    62    1
    79    61    60    1
    80    69    70    2
    81    69    68    1
    82    67    62   am
    83    67    68    1
    84    62    63    2
    85    72    71    1
    86    68    71    1
    87    71    73    1
