@<TRIPOS>MOLECULE
tmp/3emlA00.pdb
 168 160 0 0 0
SMALL
GASTEIGER

@<TRIPOS>ATOM
      1  N         -8.7030  -18.1870   56.4850 N.3    64  ILE64      -0.1245
      2  CA        -8.2120  -17.1550   57.3900 C.3    64  ILE64       0.1561
      3  C         -9.3310  -16.4680   58.1720 C.2    64  ILE64       0.2260
      4  O         -9.0770  -15.8160   59.1860 O.2    64  ILE64      -0.2867
      5  CB        -7.3880  -16.0970   56.6240 C.3    64  ILE64       0.0252
      6  CG1       -6.5080  -15.2980   57.5860 C.3    64  ILE64       0.0019
      7  CG2       -8.3000  -15.1780   55.8220 C.3    64  ILE64       0.0019
      8  CD1       -5.6440  -14.2650   56.9000 C.3    64  ILE64       0.0001
      9  N         -2.7930  -13.2610   47.9510 N.3    82  VAL82      -0.1231
     10  CA        -3.7290  -12.5650   47.0780 C.3    82  VAL82       0.1692
     11  C         -3.1490  -11.2290   46.6130 C.2    82  VAL82       0.2591
     12  O         -3.4680  -10.7480   45.5250 O.2    82  VAL82      -0.2718
     13  CB        -5.0930  -12.3430   47.7680 C.3    82  VAL82       0.0266
     14  CG1       -4.9590  -11.3530   48.9200 C.3    82  VAL82       0.0020
     15  CG2       -6.1310  -11.8720   46.7610 C.3    82  VAL82       0.0020
     16  N         -2.2870  -10.6400   47.4360 N.am   83  LEU83      -0.1980
     17  CA        -1.6370   -9.3820   47.0870 C.3    83  LEU83       0.1596
     18  C         -0.6920   -9.5820   45.9070 C.2    83  LEU83       0.2287
     19  O         -0.5050   -8.6820   45.0880 O.2    83  LEU83      -0.2864
     20  CB        -0.8790   -8.8100   48.2870 C.3    83  LEU83       0.0297
     21  CG        -1.7080   -8.5880   49.5540 C.3    83  LEU83       0.0022
     22  CD1       -0.8610   -7.9630   50.6540 C.3    83  LEU83       0.0001
     23  CD2       -2.9260   -7.7270   49.2560 C.3    83  LEU83       0.0001
     24  N         -2.9340   -9.6460   42.8300 N.3    86  THR86      -0.1218
     25  CA        -3.4430   -8.3100   42.5490 C.3    86  THR86       0.1862
     26  C         -2.3890   -7.4420   41.8640 C.2    86  THR86       0.2287
     27  O         -2.6780   -6.7650   40.8770 O.2    86  THR86      -0.2866
     28  CB        -3.9250   -7.6100   43.8320 C.3    86  THR86       0.1770
     29  OG1       -4.7740   -8.4970   44.5700 O.3    86  THR86      -0.2211
     30  CG2       -4.6950   -6.3430   43.4910 C.3    86  THR86       0.0375
     31  N         -5.2770  -13.4250   62.2390 N.3   158  LEU158     -0.1231
     32  CA        -6.2100  -12.3640   61.8660 C.3   158  LEU158      0.1693
     33  C         -5.4850  -11.3350   61.0040 C.2   158  LEU158      0.2592
     34  O         -4.4390  -10.8120   61.3950 O.2   158  LEU158     -0.2718
     35  CB        -6.8050  -11.6870   63.1050 C.3   158  LEU158      0.0284
     36  CG        -7.8790  -12.4490   63.8880 C.3   158  LEU158      0.0019
     37  CD1       -8.7280  -13.2980   62.9500 C.3   158  LEU158      0.0001
     38  CD2       -7.2720  -13.2930   64.9980 C.3   158  LEU158      0.0001
     39  N         -6.0430  -11.0500   59.8320 N.am  159  PHE159     -0.1962
     40  CA        -5.3920  -10.1800   58.8550 C.3   159  PHE159      0.1771
     41  C         -4.8150   -8.9050   59.4690 C.2   159  PHE159      0.2619
     42  O         -3.6250   -8.6260   59.3290 O.2   159  PHE159     -0.2715
     43  CB        -6.3610   -9.8240   57.7220 C.3   159  PHE159      0.0574
     44  CG        -5.7020   -9.1580   56.5470 C.ar  159  PHE159     -0.0200
     45  CD1       -5.1780   -9.9120   55.5110 C.ar  159  PHE159     -0.0042
     46  CD2       -5.6040   -7.7780   56.4810 C.ar  159  PHE159     -0.0042
     47  CE1       -4.5700   -9.3030   54.4300 C.ar  159  PHE159     -0.0003
     48  CE2       -4.9990   -7.1640   55.4030 C.ar  159  PHE159     -0.0003
     49  CZ        -4.4810   -7.9280   54.3760 C.ar  159  PHE159     -0.0000
     50  N         -5.6580   -8.1380   60.1520 N.am  160  GLU160     -0.1977
     51  CA        -5.2360   -6.8540   60.7050 C.3   160  GLU160      0.1602
     52  C         -4.2960   -7.0060   61.9010 C.2   160  GLU160      0.2287
     53  O         -3.7510   -6.0200   62.4010 O.2   160  GLU160     -0.2864
     54  CB        -6.4520   -6.0030   61.0840 C.3   160  GLU160      0.0415
     55  CG        -7.3400   -5.6340   59.9020 C.3   160  GLU160      0.1163
     56  CD        -8.2810   -4.4830   60.2110 C.2   160  GLU160      0.3649
     57  OE1       -8.2100   -3.9330   61.3310 O.co2 160  GLU160     -0.2457
     58  OE2       -9.0910   -4.1250   59.3300 O.co2 160  GLU160     -0.2457
     59  N         -0.7000   -2.2150   58.8730 N.3   165  MET165     -0.1245
     60  CA        -1.5560   -1.3140   58.1070 C.3   165  MET165      0.1570
     61  C         -0.7700   -0.2580   57.3390 C.2   165  MET165      0.2261
     62  O         -1.1900    0.1710   56.2640 O.2   165  MET165     -0.2867
     63  CB        -2.5940   -0.6490   59.0100 C.3   165  MET165      0.0387
     64  CG        -3.8270   -1.5030   59.2630 C.3   165  MET165      0.0595
     65  SD        -4.6860   -1.9380   57.7360 S.3   165  MET165     -0.1393
     66  CE        -4.8600   -0.3250   56.9850 C.3   165  MET165      0.0692
     67  N         -0.1510   -1.7380   54.1650 N.3   168  MET168     -0.1245
     68  CA        -1.3580   -1.8240   53.3510 C.3   168  MET168      0.1570
     69  C         -1.7500   -0.4850   52.7360 C.2   168  MET168      0.2261
     70  O         -2.2610   -0.4340   51.6180 O.2   168  MET168     -0.2867
     71  CB        -2.5200   -2.3800   54.1770 C.3   168  MET168      0.0387
     72  CG        -2.3870   -3.8550   54.5090 C.3   168  MET168      0.0595
     73  SD        -2.2080   -4.8780   53.0300 S.3   168  MET168     -0.1393
     74  CE        -3.7600   -4.5530   52.2030 C.3   168  MET168      0.0692
     75  N          1.3420   -0.7410   49.6600 N.3   172  ASN172     -0.1240
     76  CA         0.4010   -1.4340   48.7920 C.3   172  ASN172      0.1653
     77  C         -0.5280   -0.4790   48.0510 C.2   172  ASN172      0.2266
     78  O         -0.4930   -0.3970   46.8250 O.2   172  ASN172     -0.2867
     79  CB        -0.4120   -2.4650   49.5780 C.3   172  ASN172      0.1155
     80  CG        -1.1880   -3.4040   48.6750 C.2   172  ASN172      0.2627
     81  OD1       -2.2250   -3.0380   48.1200 O.2   172  ASN172     -0.2716
     82  ND2       -0.6880   -4.6260   48.5250 N.am  172  ASN172     -0.0877
     83  N        -11.8860   -2.8020   43.8450 N.3   384  TRP384     -0.1241
     84  CA       -10.8100   -2.8160   44.8360 C.3   384  TRP384      0.1605
     85  C        -10.7310   -1.5730   45.7170 C.2   384  TRP384      0.2264
     86  O        -10.2820   -1.6490   46.8600 O.2   384  TRP384     -0.2867
     87  CB        -9.4590   -3.0660   44.1610 C.3   384  TRP384      0.0550
     88  CG        -9.2380   -4.5030   43.8190 C.ar  384  TRP384      0.0003
     89  CD1       -9.3860   -5.0880   42.5950 C.ar  384  TRP384      0.0946
     90  CD2       -8.8420   -5.5470   44.7180 C.ar  384  TRP384      0.0152
     91  NE1       -9.1000   -6.4300   42.6750 N.ar  384  TRP384     -0.2442
     92  CE2       -8.7630   -6.7360   43.9670 C.ar  384  TRP384      0.0810
     93  CE3       -8.5420   -5.5890   46.0830 C.ar  384  TRP384      0.0012
     94  CZ2       -8.3980   -7.9560   44.5360 C.ar  384  TRP384      0.0191
     95  CZ3       -8.1780   -6.7990   46.6450 C.ar  384  TRP384      0.0001
     96  CH2       -8.1100   -7.9660   45.8740 C.ar  384  TRP384      0.0015
     97  N        -12.2610   -1.5440   49.4950 N.3   387  LEU387     -0.1231
     98  CA       -11.4250   -2.1900   50.4990 C.3   387  LEU387      0.1693
     99  C        -10.2440   -1.3050   50.8980 C.2   387  LEU387      0.2592
    100  O         -9.9210   -1.1840   52.0810 O.2   387  LEU387     -0.2718
    101  CB       -10.9340   -3.5480   49.9900 C.3   387  LEU387      0.0284
    102  CG       -10.3160   -4.5000   51.0170 C.3   387  LEU387      0.0019
    103  CD1      -11.1250   -4.5050   52.3050 C.3   387  LEU387      0.0001
    104  CD2      -10.2030   -5.9080   50.4440 C.3   387  LEU387      0.0001
    105  N         -9.6060   -0.6850   49.9090 N.am  388  HIS388     -0.1976
    106  CA        -8.4690    0.1960   50.1630 C.3   388  HIS388      0.1656
    107  C         -8.8660    1.4030   51.0060 C.2   388  HIS388      0.2291
    108  O         -8.1350    1.8100   51.9090 O.2   388  HIS388     -0.2864
    109  CB        -7.8490    0.6750   48.8500 C.3   388  HIS388      0.0771
    110  CG        -7.0850   -0.3830   48.1190 C.ar  388  HIS388      0.0820
    111  ND1       -5.9430   -0.9610   48.6270 N.ar  388  HIS388     -0.2267
    112  CD2       -7.2930   -0.9580   46.9110 C.ar  388  HIS388      0.1154
    113  CE1       -5.4830   -1.8540   47.7670 C.ar  388  HIS388      0.1986
    114  NE2       -6.2840   -1.8700   46.7180 N.ar  388  HIS388     -0.2212
    115  N         -9.4230    0.5690   54.6410 N.3   391  ASN391     -0.1240
    116  CA        -8.1250    0.4420   55.2920 C.3   391  ASN391      0.1653
    117  C         -7.5970    1.8020   55.7370 C.2   391  ASN391      0.2266
    118  O         -7.0550    1.9400   56.8340 O.2   391  ASN391     -0.2867
    119  CB        -7.1190   -0.2390   54.3620 C.3   391  ASN391      0.1155
    120  CG        -7.3410   -1.7360   54.2580 C.2   391  ASN391      0.2627
    121  OD1       -8.0460   -2.3290   55.0730 O.2   391  ASN391     -0.2716
    122  ND2       -6.7340   -2.3550   53.2540 N.am  391  ASN391     -0.0877
    123  N        -14.5500    0.7410   64.4390 N.3   402  HIS402     -0.1241
    124  CA       -14.1520    0.0050   63.2450 C.3   402  HIS402      0.1621
    125  C        -15.3550   -0.3490   62.3750 C.2   402  HIS402      0.2264
    126  O        -16.4750   -0.4760   62.8680 O.2   402  HIS402     -0.2867
    127  CB       -13.3930   -1.2680   63.6300 C.3   402  HIS402      0.0745
    128  CG       -12.6920   -1.9240   62.4810 C.ar  402  HIS402      0.0817
    129  ND1      -13.3530   -2.6880   61.5430 N.ar  402  HIS402     -0.2268
    130  CD2      -11.3870   -1.9310   62.1200 C.ar  402  HIS402      0.1154
    131  CE1      -12.4860   -3.1340   60.6510 C.ar  402  HIS402      0.1986
    132  NE2      -11.2860   -2.6900   60.9790 N.ar  402  HIS402     -0.2212
    133  N        -18.3860   -6.0020   60.6370 N.3   405  LEU405     -0.1245
    134  CA       -17.9340   -7.1960   59.9310 C.3   405  LEU405      0.1561
    135  C        -18.6570   -7.4090   58.6060 C.2   405  LEU405      0.2260
    136  O        -18.0490   -7.8430   57.6280 O.2   405  LEU405     -0.2867
    137  CB       -18.0890   -8.4380   60.8110 C.3   405  LEU405      0.0270
    138  CG       -17.2780   -8.4650   62.1050 C.3   405  LEU405      0.0019
    139  CD1      -17.1360   -9.8950   62.6020 C.3   405  LEU405      0.0001
    140  CD2      -15.9140   -7.8400   61.8900 C.3   405  LEU405      0.0001
    141  N        -17.1180   -5.3190   56.0600 N.3   408  MET408     -0.1230
    142  CA       -15.7660   -5.7860   55.7950 C.3   408  MET408      0.1702
    143  C        -15.7660   -6.9340   54.7900 C.2   408  MET408      0.2592
    144  O        -15.0670   -6.8860   53.7780 O.2   408  MET408     -0.2718
    145  CB       -15.0900   -6.2210   57.0960 C.3   408  MET408      0.0401
    146  CG       -13.6210   -5.8600   57.1650 C.3   408  MET408      0.0596
    147  SD       -13.3790   -4.0760   57.2660 S.3   408  MET408     -0.1393
    148  CE       -11.6010   -3.9700   57.0800 C.3   408  MET408      0.0692
    149  N        -16.5590   -7.9640   55.0690 N.am  409  TYR409     -0.1976
    150  CA       -16.6150   -9.1320   54.1970 C.3   409  TYR409      0.1639
    151  C        -17.3620   -8.8450   52.8990 C.2   409  TYR409      0.2290
    152  O        -17.2790   -9.6150   51.9430 O.2   409  TYR409     -0.2864
    153  CB       -17.2210  -10.3320   54.9310 C.3   409  TYR409      0.0560
    154  CG       -16.2720  -10.9420   55.9370 C.ar  409  TYR409     -0.0198
    155  CD1      -15.2700  -11.8130   55.5310 C.ar  409  TYR409     -0.0009
    156  CD2      -16.3640  -10.6320   57.2870 C.ar  409  TYR409     -0.0009
    157  CE1      -14.3920  -12.3660   56.4410 C.ar  409  TYR409      0.0417
    158  CE2      -15.4890  -11.1810   58.2060 C.ar  409  TYR409      0.0417
    159  CZ       -14.5050  -12.0480   57.7770 C.ar  409  TYR409      0.1957
    160  OH       -13.6310  -12.5990   58.6860 O.3   409  TYR409     -0.2866
    161  N        -14.6290   -7.5270   50.6870 N.3   412  ILE412     -0.1245
    162  CA       -13.7800   -8.6540   50.3190 C.3   412  ILE412      0.1561
    163  C        -14.4130   -9.4820   49.2020 C.2   412  ILE412      0.2260
    164  O        -13.7420   -9.8550   48.2410 O.2   412  ILE412     -0.2867
    165  CB       -13.4800   -9.5500   51.5350 C.3   412  ILE412      0.0252
    166  CG1      -12.5540   -8.8190   52.5110 C.3   412  ILE412      0.0019
    167  CG2      -12.8600  -10.8640   51.0910 C.3   412  ILE412      0.0019
    168  CD1      -12.3960   -9.5150   53.8460 C.3   412  ILE412      0.0001
@<TRIPOS>BOND
     1    27    26    2
     2    26    25    1
     3    25    24    1
     4    25    28    1
     5    89    91   ar
     6    89    88   ar
     7    91    92   ar
     8    30    28    1
     9    88    87    1
    10    88    90   ar
    11    28    29    1
    12    83    84    1
    13    92    94   ar
    14    92    90   ar
    15    87    84    1
    16    94    96   ar
    17    90    93   ar
    18    84    85    1
    19    19    18    2
    20    12    11    2
    21    85    86    2
    22    96    95   ar
    23    18    17    1
    24    93    95   ar
    25    11    10    1
    26    11    16   am
    27   114   112   ar
    28   114   113   ar
    29    15    13    1
    30    78    77    2
    31   112   110   ar
    32    10    13    1
    33    10     9    1
    34    17    16    1
    35    17    20    1
    36   113   111   ar
    37    13    14    1
    38    77    76    1
    39   110   111   ar
    40   110   109    1
    41    81    80    2
    42   164   163    2
    43    20    21    1
    44    82    80   am
    45    80    79    1
    46    76    79    1
    47    76    75    1
    48   109   106    1
    49   163   162    1
    50    23    21    1
    51    97    98    1
    52    21    22    1
    53   105   106    1
    54   105    99   am
    55   101    98    1
    56   101   102    1
    57   106   107    1
    58   162   161    1
    59   162   165    1
    60   104   102    1
    61    98    99    1
    62    99   100    2
    63   107   108    2
    64   102   103    1
    65   167   165    1
    66   165   166    1
    67    70    69    2
    68   152   151    2
    69    74    73    1
    70   166   168    1
    71    69    68    1
    72   151   150    1
    73    73    72    1
    74   122   120   am
    75    68    67    1
    76    68    71    1
    77   144   143    2
    78    71    72    1
    79   150   153    1
    80   150   149    1
    81   120   119    1
    82   120   121    2
    83   119   116    1
    84    49    47   ar
    85    49    48   ar
    86    47    45   ar
    87   115   116    1
    88   143   149   am
    89   143   142    1
    90   153   154    1
    91   116   117    1
    92    48    46   ar
    93    45    44   ar
    94   155   154   ar
    95   155   157   ar
    96   117   118    2
    97   142   141    1
    98   142   145    1
    99     7     5    1
   100   154   156   ar
   101    62    61    2
   102   157   159   ar
   103    46    44   ar
   104     1     2    1
   105    44    43    1
   106     5     2    1
   107     5     6    1
   108     8     6    1
   109    66    65    1
   110   148   147    1
   111   145   146    1
   112   146   147    1
   113   156   158   ar
   114    61    60    1
   115     2     3    1
   116   136   135    2
   117    43    40    1
   118    65    64    1
   119   159   158   ar
   120   159   160    1
   121    60    59    1
   122    60    63    1
   123     3     4    2
   124   135   134    1
   125    40    41    1
   126    40    39    1
   127    63    64    1
   128    42    41    2
   129    58    56   ar
   130    41    50   am
   131    39    33   am
   132    55    56    1
   133    55    54    1
   134   134   133    1
   135   134   137    1
   136    50    51    1
   137    56    57   ar
   138   131   132   ar
   139   131   129   ar
   140    51    54    1
   141    51    52    1
   142   137   138    1
   143   132   130   ar
   144    33    34    2
   145    33    32    1
   146   129   128   ar
   147    32    31    1
   148    32    35    1
   149   140   138    1
   150    52    53    2
   151   138   139    1
   152   130   128   ar
   153   125   126    2
   154   125   124    1
   155   128   127    1
   156    37    36    1
   157    35    36    1
   158   124   127    1
   159   124   123    1
   160    36    38    1
