@<TRIPOS>MOLECULE
tmp/3emlA03.pdb
 82 78 0 0 0
SMALL
GASTEIGER

@<TRIPOS>ATOM
      1  N        -15.5770  -18.4310   42.8030 N.3    15  ALA15      -0.1245
      2  CA       -14.3780  -19.1780   42.4380 C.3    15  ALA15       0.1562
      3  C        -14.5870  -20.0090   41.1720 C.2    15  ALA15       0.2260
      4  O        -13.7280  -20.0410   40.2920 O.2    15  ALA15      -0.2867
      5  CB       -13.9340  -20.0680   43.5940 C.3    15  ALA15       0.0290
      6  N        -12.5800  -19.3740   37.5340 N.3    19  ILE19      -0.1245
      7  CA       -11.8290  -20.4210   36.8500 C.3    19  ILE19       0.1561
      8  C        -12.3710  -20.7070   35.4500 C.2    19  ILE19       0.2260
      9  O        -11.6440  -20.6060   34.4630 O.2    19  ILE19      -0.2867
     10  CB       -11.8220  -21.7260   37.6680 C.3    19  ILE19       0.0252
     11  CG1      -11.0990  -21.5130   39.0000 C.3    19  ILE19       0.0019
     12  CG2      -11.1680  -22.8470   36.8780 C.3    19  ILE19       0.0019
     13  CD1      -11.2180  -22.6780   39.9610 C.3    19  ILE19       0.0001
     14  N         -9.3710  -17.9600   42.0220 N.3    54  GLY54      -0.1210
     15  CA       -10.4110  -18.9360   42.2800 C.3    54  GLY54       0.1956
     16  C         -9.8690  -20.2080   42.9020 C.2    54  GLY54       0.2612
     17  O        -10.5350  -20.8450   43.7180 O.2    54  GLY54      -0.2717
     18  N         -8.6490  -20.5720   42.5230 N.am   55  VAL55      -0.1965
     19  CA        -8.0490  -21.8200   42.9810 C.3    55  VAL55       0.1727
     20  C         -7.4160  -21.7210   44.3700 C.2    55  VAL55       0.2616
     21  O         -7.5580  -22.6320   45.1830 O.2    55  VAL55      -0.2715
     22  CB        -6.9990  -22.3390   41.9800 C.3    55  VAL55       0.0290
     23  CG1       -6.3250  -23.5890   42.5190 C.3    55  VAL55       0.0023
     24  CG2       -7.6460  -22.6170   40.6340 C.3    55  VAL55       0.0023
     25  N         -6.7230  -20.6190   44.6450 N.am   56  LEU56      -0.1977
     26  CA        -5.9830  -20.4920   45.9000 C.3    56  LEU56       0.1596
     27  C         -6.4270  -19.3250   46.7830 C.2    56  LEU56       0.2287
     28  O         -6.7000  -19.5070   47.9690 O.2    56  LEU56      -0.2864
     29  CB        -4.4790  -20.3890   45.6280 C.3    56  LEU56       0.0297
     30  CG        -3.7970  -21.6280   45.0440 C.3    56  LEU56       0.0022
     31  CD1       -2.3340  -21.3410   44.7500 C.3    56  LEU56       0.0001
     32  CD2       -3.9330  -22.8120   45.9870 C.3    56  LEU56       0.0001
     33  N         -9.9540  -19.8350   48.5590 N.3    59  PRO59      -0.2102
     34  CA        -9.8510  -20.8170   49.6450 C.3    59  PRO59       0.1504
     35  C         -9.0280  -20.2810   50.8170 C.2    59  PRO59       0.2575
     36  O         -9.3510  -20.5640   51.9730 O.2    59  PRO59      -0.2718
     37  CB        -9.1310  -21.9940   48.9820 C.3    59  PRO59       0.0282
     38  CG        -9.4950  -21.8840   47.5440 C.3    59  PRO59       0.0208
     39  CD        -9.5640  -20.4080   47.2590 C.3    59  PRO59       0.0893
     40  N         -7.9810  -19.5170   50.5220 N.am   60  PHE60      -0.1977
     41  CA        -7.1810  -18.8910   51.5690 C.3    60  PHE60       0.1639
     42  C         -8.0220  -17.9050   52.3760 C.2    60  PHE60       0.2290
     43  O         -7.9310  -17.8560   53.6030 O.2    60  PHE60      -0.2864
     44  CB        -5.9610  -18.1760   50.9810 C.3    60  PHE60       0.0560
     45  CG        -4.8560  -19.1030   50.5540 C.ar   60  PHE60      -0.0200
     46  CD1       -4.8500  -20.4290   50.9540 C.ar   60  PHE60      -0.0042
     47  CD2       -3.8070  -18.6380   49.7770 C.ar   60  PHE60      -0.0042
     48  CE1       -3.8290  -21.2780   50.5680 C.ar   60  PHE60      -0.0003
     49  CE2       -2.7830  -19.4820   49.3910 C.ar   60  PHE60      -0.0003
     50  CZ        -2.7940  -20.8030   49.7870 C.ar   60  PHE60      -0.0000
     51  N        -10.2390  -19.8000   54.7800 N.3    63  THR63      -0.1218
     52  CA        -9.4370  -20.3990   55.8380 C.3    63  THR63       0.1862
     53  C         -9.0940  -19.3810   56.9180 C.2    63  THR63       0.2287
     54  O         -9.1880  -19.6690   58.1120 O.2    63  THR63      -0.2866
     55  CB        -8.1240  -20.9720   55.2750 C.3    63  THR63       0.1770
     56  OG1       -8.4180  -22.0160   54.3380 O.3    63  THR63      -0.2211
     57  CG2       -7.2590  -21.5280   56.3940 C.3    63  THR63       0.0375
     58  N         -7.6080  -18.9610   63.0610 N.3    68  PHE68      -0.1227
     59  CA        -6.9500  -20.1080   63.6790 C.3    68  PHE68       0.1736
     60  C         -5.5000  -19.8090   64.0580 C.2    68  PHE68       0.2595
     61  O         -4.8880  -18.8770   63.5370 O.2    68  PHE68      -0.2718
     62  CB        -6.9980  -21.3100   62.7360 C.3    68  PHE68       0.0547
     63  CG        -6.1490  -21.1480   61.5100 C.ar   68  PHE68      -0.0202
     64  CD1       -6.5440  -20.3060   60.4840 C.ar   68  PHE68      -0.0042
     65  CD2       -4.9540  -21.8370   61.3830 C.ar   68  PHE68      -0.0042
     66  CE1       -5.7620  -20.1530   59.3540 C.ar   68  PHE68      -0.0003
     67  CE2       -4.1680  -21.6900   60.2560 C.ar   68  PHE68      -0.0003
     68  CZ        -4.5730  -20.8460   59.2400 C.ar   68  PHE68      -0.0000
     69  N         -4.9580  -20.6100   64.9690 N.am   69  CYS69      -0.1970
     70  CA        -3.5740  -20.4600   65.3990 C.3    69  CYS69       0.1712
     71  C         -2.6280  -21.0220   64.3460 C.2    69  CYS69       0.2296
     72  O         -2.8030  -22.1490   63.8840 O.2    69  CYS69      -0.2864
     73  CB        -3.3450  -21.1790   66.7300 C.3    69  CYS69       0.0983
     74  SG        -4.3420  -20.5700   68.1090 S.3    69  CYS69      -0.0798
     75  N         -0.6630  -17.1000   53.5610 N.3    78  ILE78      -0.1245
     76  CA        -2.0890  -17.2730   53.3100 C.3    78  ILE78       0.1561
     77  C         -2.7920  -15.9270   53.1810 C.2    78  ILE78       0.2260
     78  O         -3.7090  -15.7690   52.3760 O.2    78  ILE78      -0.2867
     79  CB        -2.7650  -18.0690   54.4410 C.3    78  ILE78       0.0252
     80  CG1       -2.1590  -19.4680   54.5500 C.3    78  ILE78       0.0019
     81  CG2       -4.2660  -18.1560   54.2090 C.3    78  ILE78       0.0019
     82  CD1       -2.8120  -20.3240   55.6130 C.3    78  ILE78       0.0001
@<TRIPOS>BOND
     1     9     8    2
     2     8     7    1
     3     7     6    1
     4     7    10    1
     5    12    10    1
     6    10    11    1
     7    11    13    1
     8     4     3    2
     9    24    22    1
    10     3     2    1
    11    22    23    1
    12    22    19    1
    13    14    15    1
    14    15    16    1
    15     2     1    1
    16     2     5    1
    17    18    16   am
    18    18    19    1
    19    16    17    2
    20    19    20    1
    21    20    25   am
    22    20    21    2
    23    25    26    1
    24    31    30    1
    25    30    29    1
    26    30    32    1
    27    29    26    1
    28    26    27    1
    29    27    28    2
    30    39    38    1
    31    39    33    1
    32    38    37    1
    33    33    34    1
    34    37    34    1
    35    49    47   ar
    36    49    50   ar
    37    34    35    1
    38    47    45   ar
    39    50    48   ar
    40    40    35   am
    41    40    41    1
    42    45    46   ar
    43    45    44    1
    44    48    46   ar
    45    35    36    2
    46    44    41    1
    47    41    42    1
    48    78    77    2
    49    42    43    2
    50    77    76    1
    51    76    75    1
    52    76    79    1
    53    81    79    1
    54    56    55    1
    55    79    80    1
    56    80    82    1
    57    51    52    1
    58    55    52    1
    59    55    57    1
    60    52    53    1
    61    53    54    2
    62    68    66   ar
    63    68    67   ar
    64    66    64   ar
    65    67    65   ar
    66    64    63   ar
    67    65    63   ar
    68    63    62    1
    69    62    59    1
    70    58    59    1
    71    61    60    2
    72    59    60    1
    73    72    71    2
    74    60    69   am
    75    71    70    1
    76    69    70    1
    77    70    73    1
    78    73    74    1
