@<TRIPOS>MOLECULE
tmp/3emlA04.pdb
 90 86 0 0 0
SMALL
GASTEIGER

@<TRIPOS>ATOM
      1  N         -5.9100  -18.1950   39.3510 N.3    52  ALA52      -0.1245
      2  CA        -5.2300  -18.4700   40.6110 C.3    52  ALA52       0.1562
      3  C         -6.0250  -17.9340   41.8000 C.2    52  ALA52       0.2260
      4  O         -5.9170  -18.4480   42.9130 O.2    52  ALA52      -0.2867
      5  CB        -3.8240  -17.8860   40.5940 C.3    52  ALA52       0.0290
      6  N         -6.7230  -20.6190   44.6450 N.3    56  LEU56      -0.1245
      7  CA        -5.9830  -20.4920   45.9000 C.3    56  LEU56       0.1561
      8  C         -6.4270  -19.3250   46.7830 C.2    56  LEU56       0.2260
      9  O         -6.7000  -19.5070   47.9690 O.2    56  LEU56      -0.2867
     10  CB        -4.4790  -20.3890   45.6280 C.3    56  LEU56       0.0270
     11  CG        -3.7970  -21.6280   45.0440 C.3    56  LEU56       0.0019
     12  CD1       -2.3340  -21.3410   44.7500 C.3    56  LEU56       0.0001
     13  CD2       -3.9330  -22.8120   45.9870 C.3    56  LEU56       0.0001
     14  N         -7.9810  -19.5170   50.5220 N.3    60  PHE60      -0.1241
     15  CA        -7.1810  -18.8910   51.5690 C.3    60  PHE60       0.1605
     16  C         -8.0220  -17.9050   52.3760 C.2    60  PHE60       0.2264
     17  O         -7.9310  -17.8560   53.6030 O.2    60  PHE60      -0.2867
     18  CB        -5.9610  -18.1760   50.9810 C.3    60  PHE60       0.0534
     19  CG        -4.8560  -19.1030   50.5540 C.ar   60  PHE60      -0.0203
     20  CD1       -4.8500  -20.4290   50.9540 C.ar   60  PHE60      -0.0042
     21  CD2       -3.8070  -18.6380   49.7770 C.ar   60  PHE60      -0.0042
     22  CE1       -3.8290  -21.2780   50.5680 C.ar   60  PHE60      -0.0003
     23  CE2       -2.7830  -19.4820   49.3910 C.ar   60  PHE60      -0.0003
     24  CZ        -2.7940  -20.8030   49.7870 C.ar   60  PHE60      -0.0000
     25  N         -7.6080  -18.9610   63.0610 N.3    68  PHE68      -0.1241
     26  CA        -6.9500  -20.1080   63.6790 C.3    68  PHE68       0.1605
     27  C         -5.5000  -19.8090   64.0580 C.2    68  PHE68       0.2264
     28  O         -4.8880  -18.8770   63.5370 O.2    68  PHE68      -0.2867
     29  CB        -6.9980  -21.3100   62.7360 C.3    68  PHE68       0.0534
     30  CG        -6.1490  -21.1480   61.5100 C.ar   68  PHE68      -0.0203
     31  CD1       -6.5440  -20.3060   60.4840 C.ar   68  PHE68      -0.0042
     32  CD2       -4.9540  -21.8370   61.3830 C.ar   68  PHE68      -0.0042
     33  CE1       -5.7620  -20.1530   59.3540 C.ar   68  PHE68      -0.0003
     34  CE2       -4.1680  -21.6900   60.2560 C.ar   68  PHE68      -0.0003
     35  CZ        -4.5730  -20.8460   59.2400 C.ar   68  PHE68      -0.0000
     36  N         -1.6270  -20.2340   63.9700 N.3    70  ALA70      -0.1231
     37  CA        -0.6420  -20.6720   62.9880 C.3    70  ALA70       0.1694
     38  C          0.7100  -20.0100   63.2200 C.2    70  ALA70       0.2591
     39  O          0.8010  -18.9820   63.8950 O.2    70  ALA70      -0.2718
     40  CB        -1.1390  -20.3820   61.5770 C.3    70  ALA70       0.0304
     41  N          1.7570  -20.6090   62.6620 N.am   71  ALA71      -0.1980
     42  CA         3.0770  -20.0020   62.6840 C.3    71  ALA71       0.1597
     43  C          3.0190  -18.6430   61.9940 C.2    71  ALA71       0.2287
     44  O          2.1630  -18.4090   61.1400 O.2    71  ALA71      -0.2864
     45  CB         4.0930  -20.9100   61.9890 C.3    71  ALA71       0.0319
     46  N          3.9220  -18.5660   57.9610 N.3    74  GLY74      -0.1225
     47  CA         2.9380  -19.3820   57.2750 C.3    74  GLY74       0.1811
     48  C          1.5980  -18.6750   57.2060 C.2    74  GLY74       0.2280
     49  O          0.8790  -18.7730   56.2110 O.2    74  GLY74      -0.2866
     50  N          1.7190  -15.8300   54.4880 N.3    77  PHE77      -0.1227
     51  CA         1.5850  -16.2960   53.1140 C.3    77  PHE77       0.1736
     52  C          0.1170  -16.4310   52.7180 C.2    77  PHE77       0.2595
     53  O         -0.3000  -15.9410   51.6700 O.2    77  PHE77      -0.2718
     54  CB         2.3100  -17.6280   52.9180 C.3    77  PHE77       0.0547
     55  CG         2.2240  -18.1580   51.5160 C.ar   77  PHE77      -0.0202
     56  CD1        3.0850  -17.6980   50.5330 C.ar   77  PHE77      -0.0042
     57  CD2        1.2780  -19.1100   51.1780 C.ar   77  PHE77      -0.0042
     58  CE1        3.0060  -18.1810   49.2400 C.ar   77  PHE77      -0.0003
     59  CE2        1.1940  -19.5960   49.8870 C.ar   77  PHE77      -0.0003
     60  CZ         2.0590  -19.1310   48.9180 C.ar   77  PHE77      -0.0000
     61  N         -0.6630  -17.1000   53.5610 N.am   78  ILE78      -0.1980
     62  CA        -2.0890  -17.2730   53.3100 C.3    78  ILE78       0.1595
     63  C         -2.7920  -15.9270   53.1810 C.2    78  ILE78       0.2287
     64  O         -3.7090  -15.7690   52.3760 O.2    78  ILE78      -0.2864
     65  CB        -2.7650  -18.0690   54.4410 C.3    78  ILE78       0.0276
     66  CG1       -2.1590  -19.4680   54.5500 C.3    78  ILE78       0.0022
     67  CG2       -4.2660  -18.1560   54.2090 C.3    78  ILE78       0.0022
     68  CD1       -2.8120  -20.3240   55.6130 C.3    78  ILE78       0.0001
     69  N         -0.8200  -13.8080   49.8560 N.3    81  PHE81      -0.1241
     70  CA        -0.7150  -14.3800   48.5160 C.3    81  PHE81       0.1605
     71  C         -1.6040  -13.6580   47.5110 C.2    81  PHE81       0.2264
     72  O         -1.2190  -13.4640   46.3570 O.2    81  PHE81      -0.2867
     73  CB        -1.0410  -15.8740   48.5190 C.3    81  PHE81       0.0534
     74  CG        -0.9660  -16.5070   47.1580 C.ar   81  PHE81      -0.0203
     75  CD1        0.2530  -16.6630   46.5200 C.ar   81  PHE81      -0.0042
     76  CD2       -2.1140  -16.9400   46.5130 C.ar   81  PHE81      -0.0042
     77  CE1        0.3290  -17.2380   45.2670 C.ar   81  PHE81      -0.0003
     78  CE2       -2.0450  -17.5190   45.2600 C.ar   81  PHE81      -0.0003
     79  CZ        -0.8220  -17.6680   44.6360 C.ar   81  PHE81      -0.0000
     80  N          5.6860  -10.9690   43.3540 N.3   131  PHE131     -0.1241
     81  CA         6.0030  -11.7810   44.5240 C.3   131  PHE131      0.1605
     82  C          6.7770  -10.9670   45.5570 C.2   131  PHE131      0.2264
     83  O          6.5180  -11.0600   46.7560 O.2   131  PHE131     -0.2867
     84  CB         6.8010  -13.0250   44.1250 C.3   131  PHE131      0.0534
     85  CG         5.9440  -14.1770   43.6860 C.ar  131  PHE131     -0.0203
     86  CD1        5.6320  -14.3570   42.3480 C.ar  131  PHE131     -0.0042
     87  CD2        5.4450  -15.0780   44.6130 C.ar  131  PHE131     -0.0042
     88  CE1        4.8390  -15.4160   41.9430 C.ar  131  PHE131     -0.0003
     89  CE2        4.6510  -16.1380   44.2160 C.ar  131  PHE131     -0.0003
     90  CZ         4.3480  -16.3070   42.8790 C.ar  131  PHE131     -0.0000
@<TRIPOS>BOND
     1     1     2    1
     2     5     2    1
     3     2     3    1
     4     3     4    2
     5    88    86   ar
     6    88    90   ar
     7    86    85   ar
     8    90    89   ar
     9    80    81    1
    10    85    84    1
    11    85    87   ar
    12    84    81    1
    13    89    87   ar
    14    81    82    1
    15    79    78   ar
    16    79    77   ar
    17     6     7    1
    18    12    11    1
    19    11    10    1
    20    11    13    1
    21    78    76   ar
    22    77    75   ar
    23    82    83    2
    24    10     7    1
    25     7     8    1
    26    72    71    2
    27    76    74   ar
    28    75    74   ar
    29     8     9    2
    30    74    73    1
    31    71    70    1
    32    70    73    1
    33    70    69    1
    34    60    58   ar
    35    60    59   ar
    36    58    56   ar
    37    23    21   ar
    38    23    24   ar
    39    21    19   ar
    40    24    22   ar
    41    59    57   ar
    42    14    15    1
    43    56    55   ar
    44    19    20   ar
    45    19    18    1
    46    22    20   ar
    47    18    15    1
    48    57    55   ar
    49    55    54    1
    50    15    16    1
    51    53    52    2
    52    64    63    2
    53    16    17    2
    54    52    51    1
    55    52    61   am
    56    54    51    1
    57    51    50    1
    58    63    62    1
    59    62    61    1
    60    62    65    1
    61    67    65    1
    62    65    66    1
    63    66    68    1
    64    49    48    2
    65    48    47    1
    66    47    46    1
    67    35    33   ar
    68    35    34   ar
    69    33    31   ar
    70    34    32   ar
    71    31    30   ar
    72    44    43    2
    73    32    30   ar
    74    30    29    1
    75    40    37    1
    76    45    42    1
    77    43    42    1
    78    41    42    1
    79    41    38   am
    80    29    26    1
    81    37    38    1
    82    37    36    1
    83    25    26    1
    84    38    39    2
    85    28    27    2
    86    26    27    1
