@<TRIPOS>MOLECULE
tmp/3emlA05.pdb
 120 115 0 0 0
SMALL
GASTEIGER

@<TRIPOS>ATOM
      1  N        -16.7640  -19.5660   38.6890 N.3    17  LEU17      -0.1245
      2  CA       -16.8610  -18.7000   37.5170 C.3    17  LEU17       0.1561
      3  C        -15.5100  -18.1000   37.1430 C.2    17  LEU17       0.2260
      4  O        -15.1650  -18.0180   35.9640 O.2    17  LEU17      -0.2867
      5  CB       -17.8920  -17.5900   37.7340 C.3    17  LEU17       0.0270
      6  CG       -19.3240  -17.9070   37.2980 C.3    17  LEU17       0.0019
      7  CD1      -19.9130  -19.0380   38.1290 C.3    17  LEU17       0.0001
      8  CD2      -20.1960  -16.6650   37.3810 C.3    17  LEU17       0.0001
      9  N        -13.6490  -21.0640   35.3690 N.3    20  LEU20      -0.1231
     10  CA       -14.2670  -21.4060   34.0920 C.3    20  LEU20       0.1693
     11  C        -14.1600  -20.2730   33.0760 C.2    20  LEU20       0.2592
     12  O        -13.7980  -20.4950   31.9200 O.2    20  LEU20      -0.2718
     13  CB       -15.7340  -21.7880   34.2920 C.3    20  LEU20       0.0284
     14  CG       -15.9840  -23.1110   35.0140 C.3    20  LEU20       0.0019
     15  CD1      -17.4740  -23.3930   35.1100 C.3    20  LEU20       0.0001
     16  CD2      -15.2640  -24.2460   34.3030 C.3    20  LEU20       0.0001
     17  N        -14.4770  -19.0600   33.5120 N.am   21  GLY21      -0.1957
     18  CA       -14.4550  -17.9100   32.6300 C.3    21  GLY21       0.1869
     19  C        -13.0800  -17.6370   32.0580 C.2    21  GLY21       0.2309
     20  O        -12.9260  -17.4470   30.8530 O.2    21  GLY21      -0.2863
     21  N        -10.3630  -19.6390   32.0760 N.3    23  VAL23      -0.1231
     22  CA        -9.8250  -20.7580   31.3160 C.3    23  VAL23       0.1692
     23  C        -10.2550  -20.5920   29.8640 C.2    23  VAL23       0.2591
     24  O         -9.4990  -20.8840   28.9360 O.2    23  VAL23      -0.2718
     25  CB       -10.3240  -22.1160   31.8520 C.3    23  VAL23       0.0266
     26  CG1      -10.1780  -23.1930   30.7890 C.3    23  VAL23       0.0020
     27  CG2       -9.5590  -22.5070   33.1090 C.3    23  VAL23       0.0020
     28  N        -11.4760  -20.1010   29.6830 N.am   24  LEU24      -0.1980
     29  CA       -12.0450  -19.9040   28.3570 C.3    24  LEU24       0.1596
     30  C        -11.2730  -18.8470   27.5700 C.2    24  LEU24       0.2287
     31  O        -11.0940  -18.9720   26.3590 O.2    24  LEU24      -0.2864
     32  CB       -13.5190  -19.5110   28.4720 C.3    24  LEU24       0.0297
     33  CG       -14.3570  -19.5300   27.1930 C.3    24  LEU24       0.0022
     34  CD1      -14.3640  -20.9190   26.5750 C.3    24  LEU24       0.0001
     35  CD2      -15.7750  -19.0630   27.4820 C.3    24  LEU24       0.0001
     36  N         -8.0710  -20.4350   26.4110 N.3    27  TRP27      -0.1241
     37  CA        -8.4080  -21.4510   25.4190 C.3    27  TRP27       0.1605
     38  C         -8.5650  -20.8280   24.0360 C.2    27  TRP27       0.2264
     39  O         -8.0900  -21.3730   23.0390 O.2    27  TRP27      -0.2867
     40  CB        -9.7070  -22.1570   25.8110 C.3    27  TRP27       0.0550
     41  CG        -9.9350  -23.4600   25.1030 C.ar   27  TRP27       0.0003
     42  CD1       -9.3240  -23.8940   23.9620 C.ar   27  TRP27       0.0946
     43  CD2      -10.8610  -24.4880   25.4780 C.ar   27  TRP27       0.0152
     44  NE1       -9.8010  -25.1340   23.6120 N.ar   27  TRP27      -0.2442
     45  CE2      -10.7470  -25.5200   24.5250 C.ar   27  TRP27       0.0810
     46  CE3      -11.7710  -24.6380   26.5280 C.ar   27  TRP27       0.0012
     47  CZ2      -11.5090  -26.6850   24.5920 C.ar   27  TRP27       0.0191
     48  CZ3      -12.5270  -25.7960   26.5930 C.ar   27  TRP27       0.0001
     49  CH2      -12.3900  -26.8040   25.6300 C.ar   27  TRP27       0.0015
     50  N        -13.9700  -11.9680   31.3240 N.3   423  PRO423     -0.2102
     51  CA       -14.4200  -12.8010   30.2020 C.3   423  PRO423      0.1504
     52  C        -15.7420  -12.3090   29.6120 C.2   423  PRO423      0.2575
     53  O        -15.9170  -12.3430   28.3930 O.2   423  PRO423     -0.2718
     54  CB       -14.6050  -14.1800   30.8430 C.3   423  PRO423      0.0282
     55  CG       -13.6970  -14.1730   32.0230 C.3   423  PRO423      0.0208
     56  CD       -13.7220  -12.7640   32.5390 C.3   423  PRO423      0.0893
     57  N        -16.6540  -11.8600   30.4700 N.am  424  PHE424     -0.1977
     58  CA       -17.9500  -11.3570   30.0230 C.3   424  PHE424      0.1639
     59  C        -17.7890  -10.1220   29.1450 C.2   424  PHE424      0.2290
     60  O        -18.5220   -9.9370   28.1740 O.2   424  PHE424     -0.2864
     61  CB       -18.8470  -11.0340   31.2210 C.3   424  PHE424      0.0560
     62  CG       -19.4090  -12.2490   31.9060 C.ar  424  PHE424     -0.0200
     63  CD1      -18.7510  -12.8220   32.9820 C.ar  424  PHE424     -0.0042
     64  CD2      -20.5950  -12.8170   31.4730 C.ar  424  PHE424     -0.0042
     65  CE1      -19.2670  -13.9390   33.6130 C.ar  424  PHE424     -0.0003
     66  CE2      -21.1150  -13.9350   32.1010 C.ar  424  PHE424     -0.0003
     67  CZ       -20.4510  -14.4960   33.1710 C.ar  424  PHE424     -0.0000
     68  N        -16.5670  -10.9310   25.6410 N.3   427  ALA427     -0.1245
     69  CA       -17.6690  -11.5010   24.8750 C.3   427  ALA427      0.1562
     70  C        -18.5820  -10.4190   24.3040 C.2   427  ALA427      0.2260
     71  O        -18.9650  -10.4720   23.1340 O.2   427  ALA427     -0.2867
     72  CB       -18.4650  -12.4720   25.7350 C.3   427  ALA427      0.0290
     73  N        -15.8250  -13.2760   21.1400 N.3   434  ARG434     -0.1245
     74  CA       -17.1930  -13.7760   21.1630 C.3   434  ARG434      0.1563
     75  C        -17.3890  -14.9450   20.1980 C.2   434  ARG434      0.2260
     76  O        -17.9980  -15.9560   20.5480 O.2   434  ARG434     -0.2867
     77  CB       -18.1680  -12.6430   20.8310 C.3   434  ARG434      0.0307
     78  CG       -19.6350  -13.0350   20.8820 C.3   434  ARG434      0.0489
     79  CD       -20.5430  -11.8100   20.7940 C.3   434  ARG434      0.2205
     80  NE       -20.3880  -11.0850   19.5340 N.pl3 434  ARG434     -0.0865
     81  CZ       -19.6880   -9.9620   19.3950 C.cat 434  ARG434      0.5346
     82  NH1      -19.6040   -9.3750   18.2080 N.pl3 434  ARG434      0.1354
     83  NH2      -19.0730   -9.4250   20.4400 N.pl3 434  ARG434      0.1354
     84  N        -15.5200  -18.0300   21.4460 N.3   437  PHE437     -0.1227
     85  CA       -16.2140  -18.6120   22.5880 C.3   437  PHE437      0.1736
     86  C        -17.3690  -19.4960   22.1270 C.2   437  PHE437      0.2595
     87  O        -17.4870  -20.6470   22.5520 O.2   437  PHE437     -0.2718
     88  CB       -16.7250  -17.5260   23.5370 C.3   437  PHE437      0.0547
     89  CG       -15.6360  -16.7840   24.2580 C.ar  437  PHE437     -0.0202
     90  CD1      -14.3750  -17.3380   24.3980 C.ar  437  PHE437     -0.0042
     91  CD2      -15.8830  -15.5410   24.8170 C.ar  437  PHE437     -0.0042
     92  CE1      -13.3740  -16.6570   25.0660 C.ar  437  PHE437     -0.0003
     93  CE2      -14.8870  -14.8570   25.4900 C.ar  437  PHE437     -0.0003
     94  CZ       -13.6310  -15.4160   25.6140 C.ar  437  PHE437     -0.0000
     95  N        -18.2210  -18.9540   21.2600 N.am  438  ARG438     -0.1980
     96  CA       -19.3210  -19.7280   20.6910 C.3   438  ARG438      0.1597
     97  C        -18.8280  -21.0430   20.1030 C.2   438  ARG438      0.2287
     98  O        -19.4330  -22.0940   20.3130 O.2   438  ARG438     -0.2864
     99  CB       -20.0480  -18.9310   19.6070 C.3   438  ARG438      0.0334
    100  CG       -21.3920  -18.3760   20.0350 C.3   438  ARG438      0.0492
    101  CD       -22.2870  -18.1440   18.8290 C.3   438  ARG438      0.2205
    102  NE       -21.7050  -17.1810   17.9010 N.pl3 438  ARG438     -0.0865
    103  CZ       -21.8140  -15.8640   18.0330 C.cat 438  ARG438      0.5346
    104  NH1      -22.4830  -15.3540   19.0590 N.pl3 438  ARG438      0.1354
    105  NH2      -21.2540  -15.0560   17.1440 N.pl3 438  ARG438      0.1354
    106  N        -17.6600  -23.4460   23.0470 N.3   441  ILE441     -0.1245
    107  CA       -18.7740  -23.9450   23.8420 C.3   441  ILE441      0.1561
    108  C        -19.6180  -24.9510   23.0640 C.2   441  ILE441      0.2260
    109  O        -20.0050  -25.9920   23.5950 O.2   441  ILE441     -0.2867
    110  CB       -19.6600  -22.7910   24.3510 C.3   441  ILE441      0.0252
    111  CG1      -18.8630  -21.9010   25.3070 C.3   441  ILE441      0.0019
    112  CG2      -20.9040  -23.3320   25.0380 C.3   441  ILE441      0.0019
    113  CD1      -19.6600  -20.7560   25.8900 C.3   441  ILE441      0.0001
    114  N        -17.3200  -28.1630   24.1910 N.3   445  VAL445     -0.1245
    115  CA       -17.9780  -28.2700   25.4910 C.3   445  VAL445      0.1561
    116  C        -19.2560  -29.1030   25.4320 C.2   445  VAL445      0.2260
    117  O        -19.4100  -30.0680   26.1780 O.2   445  VAL445     -0.2867
    118  CB       -18.2600  -26.8790   26.0990 C.3   445  VAL445      0.0252
    119  CG1      -19.1650  -26.9990   27.3140 C.3   445  VAL445      0.0019
    120  CG2      -16.9560  -26.1860   26.4690 C.3   445  VAL445      0.0019
@<TRIPOS>BOND
     1   105   103    1
     2   102   103    2
     3   102   101    1
     4   103   104    1
     5    82    81    1
     6   101   100    1
     7    81    80    2
     8    81    83    1
     9    80    79    1
    10    99   100    1
    11    99    96    1
    12    97    98    2
    13    97    96    1
    14    75    76    2
    15    75    74    1
    16    96    95    1
    17    79    78    1
    18    77    78    1
    19    77    74    1
    20    73    74    1
    21    95    86   am
    22    84    85    1
    23    86    87    2
    24    86    85    1
    25    85    88    1
    26    39    38    2
    27   106   107    1
    28   108   109    2
    29   108   107    1
    30    71    70    2
    31    88    89    1
    32    44    42   ar
    33    44    45   ar
    34   107   110    1
    35    42    41   ar
    36    38    37    1
    37   114   115    1
    38    89    90   ar
    39    89    91   ar
    40    70    69    1
    41   110   112    1
    42   110   111    1
    43    90    92   ar
    44    45    47   ar
    45    45    43   ar
    46    47    49   ar
    47    91    93   ar
    48    69    68    1
    49    69    72    1
    50    92    94   ar
    51    41    43   ar
    52    41    40    1
    53   111   113    1
    54    37    40    1
    55    37    36    1
    56   116   115    1
    57   116   117    2
    58    43    46   ar
    59    93    94   ar
    60   115   118    1
    61    49    48   ar
    62   118   120    1
    63   118   119    1
    64    31    30    2
    65    46    48   ar
    66    34    33    1
    67    33    35    1
    68    33    32    1
    69    30    29    1
    70    60    59    2
    71    29    32    1
    72    29    28    1
    73    53    52    2
    74    24    23    2
    75    59    58    1
    76    52    51    1
    77    52    57   am
    78    28    23   am
    79    23    22    1
    80    58    57    1
    81    58    61    1
    82    51    54    1
    83    51    50    1
    84    26    25    1
    85    54    55    1
    86    20    19    2
    87    61    62    1
    88    22    25    1
    89    22    21    1
    90    50    56    1
    91    64    62   ar
    92    64    66   ar
    93    25    27    1
    94    62    63   ar
    95    12    11    2
    96    55    56    1
    97    19    18    1
    98    66    67   ar
    99    18    17    1
   100    63    65   ar
   101    11    17   am
   102    11    10    1
   103    67    65   ar
   104    10    13    1
   105    10     9    1
   106    13    14    1
   107    16    14    1
   108    14    15    1
   109     4     3    2
   110     3     2    1
   111     6     8    1
   112     6     5    1
   113     6     7    1
   114     2     5    1
   115     2     1    1
