@<TRIPOS>MOLECULE
tmp/3emlA02.pdb
 84 81 0 0 0
SMALL
GASTEIGER

@<TRIPOS>ATOM
      1  N         -1.0710  -11.2810   24.9490 N.3    41  TYR41      -0.1241
      2  CA        -0.0720  -11.8790   25.8270 C.3    41  TYR41       0.1605
      3  C         -0.3130  -11.4170   27.2600 C.2    41  TYR41       0.2264
      4  O         -0.1360  -12.1760   28.2120 O.2    41  TYR41      -0.2867
      5  CB         1.3330  -11.4680   25.3920 C.3    41  TYR41       0.0534
      6  CG         1.8970  -12.2690   24.2410 C.ar   41  TYR41      -0.0201
      7  CD1        1.0990  -12.6420   23.1690 C.ar   41  TYR41      -0.0009
      8  CD2        3.2380  -12.6320   24.2190 C.ar   41  TYR41      -0.0009
      9  CE1        1.6180  -13.3690   22.1130 C.ar   41  TYR41       0.0417
     10  CE2        3.7660  -13.3550   23.1680 C.ar   41  TYR41       0.0417
     11  CZ         2.9530  -13.7220   22.1180 C.ar   41  TYR41       0.1957
     12  OH         3.4790  -14.4440   21.0720 O.3    41  TYR41      -0.2866
     13  N         -3.7600  -12.8410   28.6250 N.3    44  VAL44      -0.1231
     14  CA        -3.5920  -14.2090   29.1070 C.3    44  VAL44       0.1692
     15  C         -2.9540  -14.2490   30.4950 C.2    44  VAL44       0.2592
     16  O         -3.4100  -14.9800   31.3760 O.2    44  VAL44      -0.2718
     17  CB        -2.7490  -15.0500   28.1290 C.3    44  VAL44       0.0266
     18  CG1       -2.2430  -16.3120   28.8090 C.3    44  VAL44       0.0020
     19  CG2       -3.5610  -15.3880   26.8840 C.3    44  VAL44       0.0020
     20  N         -1.8970  -13.4650   30.6850 N.am   45  SER45      -0.1952
     21  CA        -1.2490  -13.3590   31.9880 C.3    45  SER45       0.1924
     22  C         -2.2590  -12.8920   33.0310 C.2    45  SER45       0.2314
     23  O         -2.2940  -13.3960   34.1540 O.2    45  SER45      -0.2863
     24  CB        -0.0690  -12.3870   31.9260 C.3    45  SER45       0.2116
     25  OG         0.5870  -12.2930   33.1790 O.3    45  SER45      -0.2180
     26  N         -4.5200  -15.6510   33.8590 N.3    48  ALA48      -0.1245
     27  CA        -3.8340  -16.5970   34.7290 C.3    48  ALA48       0.1562
     28  C         -3.9890  -16.1890   36.1900 C.2    48  ALA48       0.2260
     29  O         -4.2720  -17.0200   37.0520 O.2    48  ALA48      -0.2867
     30  CB        -2.3630  -16.6900   34.3560 C.3    48  ALA48       0.0290
     31  N          6.9260  -11.2950   26.5520 N.3   120  LYS120     -0.1245
     32  CA         7.1790  -12.4050   27.4640 C.3   120  LYS120      0.1561
     33  C          8.2280  -12.0350   28.5080 C.2   120  LYS120      0.2260
     34  O          8.1320  -12.4370   29.6680 O.2   120  LYS120     -0.2867
     35  CB         7.6230  -13.6490   26.6900 C.3   120  LYS120      0.0271
     36  CG         6.5230  -14.2960   25.8670 C.3   120  LYS120      0.0035
     37  CD         7.0560  -15.4660   25.0570 C.3   120  LYS120      0.0206
     38  CE         5.9540  -16.1200   24.2400 C.3   120  LYS120      0.1093
     39  NZ         6.4670  -17.2420   23.4050 N.3   120  LYS120     -0.1314
     40  N          6.6520   -9.6630   31.0890 N.3   123  ILE123     -0.1231
     41  CA         5.7110  -10.4230   31.9060 C.3   123  ILE123      0.1692
     42  C          6.4290  -11.1970   33.0060 C.2   123  ILE123      0.2591
     43  O          6.0410  -11.1430   34.1730 O.2   123  ILE123     -0.2718
     44  CB         4.8890  -11.4050   31.0500 C.3   123  ILE123      0.0266
     45  CG1        3.9680  -10.6350   30.1000 C.3   123  ILE123      0.0019
     46  CG2        4.0830  -12.3420   31.9380 C.3   123  ILE123      0.0020
     47  CD1        3.4020  -11.4760   28.9750 C.3   123  ILE123      0.0001
     48  N          7.4790  -11.9160   32.6240 N.am  124  ALA124     -0.1980
     49  CA         8.2610  -12.6970   33.5750 C.3   124  ALA124      0.1597
     50  C          8.7630  -11.8180   34.7140 C.2   124  ALA124      0.2287
     51  O          8.6740  -12.1900   35.8840 O.2   124  ALA124     -0.2864
     52  CB         9.4280  -13.3760   32.8720 C.3   124  ALA124      0.0319
     53  N          6.0230  -10.6910   37.2010 N.3   127  TRP127     -0.1227
     54  CA         5.6340  -11.7330   38.1470 C.3   127  TRP127      0.1737
     55  C          6.6210  -11.8150   39.3090 C.2   127  TRP127      0.2595
     56  O          6.2340  -12.0910   40.4440 O.2   127  TRP127     -0.2718
     57  CB         5.5040  -13.0920   37.4530 C.3   127  TRP127      0.0564
     58  CG         4.1710  -13.3050   36.7940 C.ar  127  TRP127      0.0003
     59  CD1        3.8900  -13.2100   35.4620 C.ar  127  TRP127      0.0946
     60  CD2        2.9370  -13.6450   37.4410 C.ar  127  TRP127      0.0152
     61  NE1        2.5590  -13.4720   35.2400 N.ar  127  TRP127     -0.2442
     62  CE2        1.9530  -13.7420   36.4380 C.ar  127  TRP127      0.0810
     63  CE3        2.5710  -13.8780   38.7700 C.ar  127  TRP127      0.0012
     64  CZ2        0.6260  -14.0610   36.7220 C.ar  127  TRP127      0.0191
     65  CZ3        1.2520  -14.1940   39.0510 C.ar  127  TRP127      0.0001
     66  CH2        0.2960  -14.2830   38.0310 C.ar  127  TRP127      0.0015
     67  N          7.8960  -11.5720   39.0220 N.am  128  VAL128     -0.1980
     68  CA         8.9190  -11.5490   40.0590 C.3   128  VAL128      0.1595
     69  C          8.6790  -10.3940   41.0250 C.2   128  VAL128      0.2287
     70  O          8.6850  -10.5790   42.2420 O.2   128  VAL128     -0.2864
     71  CB        10.3300  -11.4170   39.4610 C.3   128  VAL128      0.0276
     72  CG1       11.3600  -11.2440   40.5680 C.3   128  VAL128      0.0022
     73  CG2       10.6560  -12.6290   38.6040 C.3   128  VAL128      0.0022
     74  N          5.6860  -10.9690   43.3540 N.3   131  PHE131     -0.1241
     75  CA         6.0030  -11.7810   44.5240 C.3   131  PHE131      0.1605
     76  C          6.7770  -10.9670   45.5570 C.2   131  PHE131      0.2264
     77  O          6.5180  -11.0600   46.7560 O.2   131  PHE131     -0.2867
     78  CB         6.8010  -13.0250   44.1250 C.3   131  PHE131      0.0534
     79  CG         5.9440  -14.1770   43.6860 C.ar  131  PHE131     -0.0203
     80  CD1        5.6320  -14.3570   42.3480 C.ar  131  PHE131     -0.0042
     81  CD2        5.4450  -15.0780   44.6130 C.ar  131  PHE131     -0.0042
     82  CE1        4.8390  -15.4160   41.9430 C.ar  131  PHE131     -0.0003
     83  CE2        4.6510  -16.1380   44.2160 C.ar  131  PHE131     -0.0003
     84  CZ         4.3480  -16.3070   42.8790 C.ar  131  PHE131     -0.0000
@<TRIPOS>BOND
     1    12    11    1
     2     9    11   ar
     3     9     7   ar
     4    11    10   ar
     5    10     8   ar
     6     7     6   ar
     7    39    38    1
     8     8     6   ar
     9    38    37    1
    10     6     5    1
    11     1     2    1
    12    37    36    1
    13     5     2    1
    14     2     3    1
    15    36    35    1
    16    31    32    1
    17    35    32    1
    18    19    17    1
    19     3     4    2
    20    32    33    1
    21    17    18    1
    22    17    14    1
    23    33    34    2
    24    13    14    1
    25    47    45    1
    26    14    15    1
    27    45    44    1
    28    15    20   am
    29    15    16    2
    30    20    21    1
    31    44    41    1
    32    44    46    1
    33    40    41    1
    34    41    42    1
    35    24    21    1
    36    24    25    1
    37    21    22    1
    38    48    42   am
    39    48    49    1
    40    52    49    1
    41    42    43    2
    42    22    23    2
    43    49    50    1
    44    26    27    1
    45    30    27    1
    46    50    51    2
    47    27    28    1
    48    61    59   ar
    49    61    62   ar
    50    59    58   ar
    51    28    29    2
    52    62    64   ar
    53    62    60   ar
    54    64    66   ar
    55    58    60   ar
    56    58    57    1
    57    53    54    1
    58    60    63   ar
    59    57    54    1
    60    66    65   ar
    61    54    55    1
    62    73    71    1
    63    63    65   ar
    64    67    55   am
    65    67    68    1
    66    55    56    2
    67    71    68    1
    68    71    72    1
    69    68    69    1
    70    69    70    2
    71    82    80   ar
    72    82    84   ar
    73    80    79   ar
    74    84    83   ar
    75    74    75    1
    76    79    78    1
    77    79    81   ar
    78    78    75    1
    79    83    81   ar
    80    75    76    1
    81    76    77    2
