@<TRIPOS>MOLECULE
tmp/3emmA00.pdb
 214 201 0 0 0
SMALL
GASTEIGER

@<TRIPOS>ATOM
      1  N         22.9050    6.1050   10.1850 N.3    25  TYR25      -0.1241
      2  CA        22.5470    5.9840   11.5950 C.3    25  TYR25       0.1605
      3  C         23.8550    5.7130   12.3130 C.2    25  TYR25       0.2264
      4  O         24.7570    5.1300   11.7080 O.2    25  TYR25      -0.2867
      5  CB        21.5350    4.8550   11.8440 C.3    25  TYR25       0.0534
      6  CG        20.5470    5.1790   12.9490 C.ar   25  TYR25      -0.0201
      7  CD1       19.7040    6.2930   12.8570 C.ar   25  TYR25      -0.0009
      8  CD2       20.4680    4.3860   14.0950 C.ar   25  TYR25      -0.0009
      9  CE1       18.8080    6.6030   13.8720 C.ar   25  TYR25       0.0417
     10  CE2       19.5730    4.6890   15.1150 C.ar   25  TYR25       0.0417
     11  CZ        18.7490    5.7970   15.0010 C.ar   25  TYR25       0.1957
     12  OH        17.8680    6.0970   16.0090 O.3    25  TYR25      -0.2866
     13  N         24.8100    3.5620   14.1550 N.3    27  THR27      -0.1203
     14  CA        25.0770    2.1210   14.2990 C.3    27  THR27       0.1994
     15  C         25.4120    1.4060   12.9720 C.2    27  THR27       0.2618
     16  O         25.8090    0.2350   12.9720 O.2    27  THR27      -0.2717
     17  CB        23.8460    1.4000   14.9550 C.3    27  THR27       0.1784
     18  OG1       22.6370    1.7530   14.2300 O.3    27  THR27      -0.2211
     19  CG2       23.7260    1.8050   16.4260 C.3    27  THR27       0.0376
     20  N         25.2570    2.1030   11.8460 N.am   28  ILE28      -0.1966
     21  CA        25.3890    1.4830   10.5200 C.3    28  ILE28       0.1712
     22  C         26.2600    2.3310    9.5870 C.2    28  ILE28       0.2458
     23  O         26.4450    3.5280    9.8330 O.2    28  ILE28      -0.2730
     24  CB        23.9960    1.2300    9.8550 C.3    28  ILE28       0.0289
     25  CG1       23.3120    2.5560    9.4920 C.3    28  ILE28       0.0022
     26  CG2       23.1120    0.3360   10.7440 C.3    28  ILE28       0.0023
     27  CD1       21.9910    2.4090    8.7350 C.3    28  ILE28       0.0001
     28  N         26.8160    1.7170    8.5220 N.am   29  PRO29      -0.2727
     29  CA        27.5060    2.5590    7.5490 C.3    29  PRO29       0.1402
     30  C         26.4890    3.2740    6.6650 C.2    29  PRO29       0.2269
     31  O         25.4150    2.7240    6.3960 O.2    29  PRO29      -0.2865
     32  CB        28.3360    1.5610    6.7360 C.3    29  PRO29       0.0296
     33  CG        27.6050    0.2720    6.8440 C.3    29  PRO29       0.0237
     34  CD        26.8640    0.2860    8.1580 C.3    29  PRO29       0.0939
     35  N         24.6300    4.6820    3.3980 N.3    31  PHE31      -0.1241
     36  CA        24.3440    4.0610    2.1140 C.3    31  PHE31       0.1605
     37  C         23.5250    5.0030    1.2440 C.2    31  PHE31       0.2264
     38  O         22.9730    5.9900    1.7330 O.2    31  PHE31      -0.2867
     39  CB        23.6130    2.7290    2.2970 C.3    31  PHE31       0.0534
     40  CG        22.2730    2.8520    2.9880 C.ar   31  PHE31      -0.0203
     41  CD1       22.1750    2.7890    4.3770 C.ar   31  PHE31      -0.0042
     42  CD2       21.1010    3.0160    2.2460 C.ar   31  PHE31      -0.0042
     43  CE1       20.9320    2.8940    5.0190 C.ar   31  PHE31      -0.0003
     44  CE2       19.8580    3.1230    2.8800 C.ar   31  PHE31      -0.0003
     45  CZ        19.7760    3.0690    4.2650 C.ar   31  PHE31      -0.0000
     46  N         20.5240    5.1370   -2.0790 N.3    33  TYR33      -0.1241
     47  CA        19.4550    4.3750   -2.6940 C.3    33  TYR33       0.1605
     48  C         18.7150    5.2120   -3.7130 C.2    33  TYR33       0.2264
     49  O         18.7180    6.4460   -3.6440 O.2    33  TYR33      -0.2867
     50  CB        18.4700    3.8470   -1.6350 C.3    33  TYR33       0.0534
     51  CG        17.7870    4.9130   -0.7880 C.ar   33  TYR33      -0.0201
     52  CD1       18.3930    5.4020    0.3640 C.ar   33  TYR33      -0.0009
     53  CD2       16.5290    5.4100   -1.1210 C.ar   33  TYR33      -0.0009
     54  CE1       17.7780    6.3620    1.1540 C.ar   33  TYR33       0.0417
     55  CE2       15.8980    6.3720   -0.3210 C.ar   33  TYR33       0.0417
     56  CZ        16.5330    6.8380    0.8120 C.ar   33  TYR33       0.1957
     57  OH        15.9190    7.7860    1.6020 O.3    33  TYR33      -0.2866
     58  N          5.7480    3.4900   -2.2220 N.3    51  GLN51      -0.1245
     59  CA         7.1800    3.7040   -2.3700 C.3    51  GLN51       0.1566
     60  C          7.8440    2.4270   -2.7960 C.2    51  GLN51       0.2260
     61  O          7.5330    1.3400   -2.2890 O.2    51  GLN51      -0.2867
     62  CB         7.8120    4.0270   -0.9920 C.3    51  GLN51       0.0367
     63  CG         9.3860    3.9410   -0.9630 C.3    51  GLN51       0.0905
     64  CD         9.9570    3.6980    0.3760 C.2    51  GLN51       0.2608
     65  OE1        9.8930    2.5900    0.9190 O.2    51  GLN51      -0.2717
     66  NE2       10.5920    4.7230    0.9220 N.am   51  GLN51      -0.0878
     67  N         12.1980    1.3110   -3.3770 N.3    53  THR53      -0.1218
     68  CA        13.5960    1.7460   -3.3510 C.3    53  THR53       0.1862
     69  C         14.4760    0.6640   -3.9430 C.2    53  THR53       0.2287
     70  O         14.0810   -0.5120   -4.0250 O.2    53  THR53      -0.2866
     71  CB        14.0920    2.0600   -1.9420 C.3    53  THR53       0.1770
     72  OG1       13.9710    0.8820   -1.1320 O.3    53  THR53      -0.2211
     73  CG2       13.2900    3.2110   -1.3050 C.3    53  THR53       0.0375
     74  N         15.1340   -2.8080   -2.7790 N.3    62  MET62      -0.1230
     75  CA        15.2920   -2.7080   -1.3410 C.3    62  MET62       0.1702
     76  C         13.8690   -2.5450   -0.7130 C.2    62  MET62       0.2592
     77  O         12.9080   -3.2340   -1.1040 O.2    62  MET62      -0.2718
     78  CB        16.2590   -1.5480   -0.9780 C.3    62  MET62       0.0401
     79  CG        17.6820   -1.6230   -1.6120 C.3    62  MET62       0.0596
     80  SD        18.7420   -0.1720   -1.2640 S.3    62  MET62      -0.1393
     81  CE        19.2630   -0.5230    0.4190 C.3    62  MET62       0.0692
     82  N         13.7400   -1.6290    0.2400 N.am   63  HIS63      -0.1976
     83  CA        12.5430   -1.3680    1.0580 C.3    63  HIS63       0.1656
     84  C         11.3340   -0.9660    0.1780 C.2    63  HIS63       0.2291
     85  O         11.4860   -0.3800   -0.9080 O.2    63  HIS63      -0.2864
     86  CB        12.9620   -0.2350    2.0240 C.3    63  HIS63       0.0771
     87  CG        11.9250    0.1850    3.0220 C.ar   63  HIS63       0.0820
     88  ND1       11.9050   -0.2740    4.3240 N.ar   63  HIS63      -0.2267
     89  CD2       10.9250    1.0990    2.9360 C.ar   63  HIS63       0.1154
     90  CE1       10.9030    0.2940    4.9740 C.ar   63  HIS63       0.1986
     91  NE2       10.2960    1.1320    4.1510 N.ar   63  HIS63      -0.2212
     92  N          7.0560    0.4890    0.8750 N.3    65  GLU65      -0.1245
     93  CA         6.0230    0.7950    1.8600 C.3    65  GLU65       0.1567
     94  C          4.8510    1.4120    1.1440 C.2    65  GLU65       0.2260
     95  O          4.9590    1.8780   -0.0050 O.2    65  GLU65      -0.2867
     96  CB         6.5340    1.7110    2.9840 C.3    65  GLU65       0.0388
     97  CG         7.0200    3.0660    2.4820 C.3    65  GLU65       0.1160
     98  CD         7.6570    3.9510    3.5510 C.2    65  GLU65       0.3649
     99  OE1        8.1410    3.4450    4.5660 O.co2  65  GLU65      -0.2457
    100  OE2        7.6460    5.1810    3.3680 O.co2  65  GLU65      -0.2457
    101  N          5.0240   -1.0780    6.1430 N.3    83  GLN83      -0.1245
    102  CA         6.3220   -1.2350    5.4960 C.3    83  GLN83       0.1566
    103  C          6.5970   -2.6870    5.1760 C.2    83  GLN83       0.2260
    104  O          6.1900   -3.5980    5.9290 O.2    83  GLN83      -0.2867
    105  CB         7.4400   -0.6860    6.3950 C.3    83  GLN83       0.0367
    106  CG         7.2810    0.7950    6.7810 C.3    83  GLN83       0.0905
    107  CD         8.4660    1.3370    7.5450 C.2    83  GLN83       0.2608
    108  OE1        9.5780    0.8280    7.4410 O.2    83  GLN83      -0.2717
    109  NE2        8.2220    2.3890    8.3350 N.am   83  GLN83      -0.0878
    110  N          9.1050   -4.3730    5.6190 N.3    85  THR85      -0.1218
    111  CA         9.8920   -4.9760    6.6900 C.3    85  THR85       0.1862
    112  C          9.0210   -5.4680    7.8490 C.2    85  THR85       0.2287
    113  O          9.5340   -6.1110    8.7710 O.2    85  THR85      -0.2866
    114  CB        10.8590   -3.9410    7.2480 C.3    85  THR85       0.1770
    115  OG1       10.1130   -2.7650    7.5290 O.3    85  THR85      -0.2211
    116  CG2       11.9620   -3.6360    6.2320 C.3    85  THR85       0.0375
    117  N          6.7680   -3.3860    9.6930 N.3    87  LEU87      -0.1245
    118  CA         6.3460   -2.3160   10.6130 C.3    87  LEU87       0.1561
    119  C          5.0690   -1.6590   10.1540 C.2    87  LEU87       0.2260
    120  O          4.8070   -1.5950    8.9580 O.2    87  LEU87      -0.2867
    121  CB         7.3990   -1.2120   10.6790 C.3    87  LEU87       0.0270
    122  CG         8.8110   -1.4310   11.1860 C.3    87  LEU87       0.0019
    123  CD1        9.4490   -0.0750   11.4860 C.3    87  LEU87       0.0001
    124  CD2        8.7990   -2.2880   12.4130 C.3    87  LEU87       0.0001
    125  N         13.0960   -2.6240   17.4540 N.3   114  LYS114     -0.1231
    126  CA        14.0710   -1.6260   17.9070 C.3   114  LYS114      0.1693
    127  C         13.5280   -0.1980   17.8910 C.2   114  LYS114      0.2591
    128  O         13.8800    0.5990   18.7420 O.2   114  LYS114     -0.2718
    129  CB        15.3110   -1.6420   17.0020 C.3   114  LYS114      0.0285
    130  CG        16.2060   -2.8620   17.0870 C.3   114  LYS114      0.0035
    131  CD        17.4030   -2.6950   16.1520 C.3   114  LYS114      0.0206
    132  CE        18.2730   -3.9510   16.1170 C.3   114  LYS114      0.1093
    133  NZ        18.8340   -4.3120   17.4490 N.3   114  LYS114     -0.1314
    134  N         12.7070    0.1360   16.9010 N.am  115  VAL115     -0.1980
    135  CA        12.2770    1.5130   16.6870 C.3   115  VAL115      0.1595
    136  C         11.2070    1.9160   17.6790 C.2   115  VAL115      0.2287
    137  O         10.2880    1.1450   17.9580 O.2   115  VAL115     -0.2864
    138  CB        11.7250    1.6970   15.2640 C.3   115  VAL115      0.0276
    139  CG1       11.2830    3.1320   15.0290 C.3   115  VAL115      0.0022
    140  CG2       12.7530    1.2650   14.2370 C.3   115  VAL115      0.0022
    141  N          9.1460    7.5600   15.0190 N.3   118  ILE118     -0.1245
    142  CA         9.5750    7.9740   13.6940 C.3   118  ILE118      0.1561
    143  C          8.9800    9.3440   13.4130 C.2   118  ILE118      0.2260
    144  O          7.8010    9.5700   13.7080 O.2   118  ILE118     -0.2867
    145  CB         9.0450    7.0030   12.6130 C.3   118  ILE118      0.0252
    146  CG1        9.5580    5.5750   12.8430 C.3   118  ILE118      0.0019
    147  CG2        9.3970    7.5130   11.2040 C.3   118  ILE118      0.0019
    148  CD1        8.7160    4.5180   12.1120 C.3   118  ILE118      0.0001
    149  N          8.6080   12.2280   10.0970 N.3   120  ARG120     -0.1245
    150  CA         8.7860   12.3820    8.6530 C.3   120  ARG120      0.1563
    151  C          8.4410   13.8050    8.2990 C.2   120  ARG120      0.2260
    152  O          7.3630   14.2850    8.6720 O.2   120  ARG120     -0.2867
    153  CB         7.8630   11.4380    7.8870 C.3   120  ARG120      0.0307
    154  CG         8.1310    9.9710    8.1660 C.3   120  ARG120      0.0489
    155  CD         7.4900    9.1280    7.1150 C.3   120  ARG120      0.2205
    156  NE         7.5170    7.6890    7.3630 N.pl3 120  ARG120     -0.0865
    157  CZ         7.7710    6.8050    6.3880 C.cat 120  ARG120      0.5346
    158  NH1        8.1680    7.2190    5.1870 N.pl3 120  ARG120      0.1354
    159  NH2        7.6790    5.5190    6.6340 N.pl3 120  ARG120      0.1354
    160  N         13.5610   11.5210    7.1430 N.3   133  VAL133     -0.1245
    161  CA        12.9600   10.5950    8.0950 C.3   133  VAL133      0.1561
    162  C         13.9310   10.4630    9.2610 C.2   133  VAL133      0.2260
    163  O         15.1100   10.1390    9.0650 O.2   133  VAL133     -0.2867
    164  CB        12.7200    9.2030    7.4790 C.3   133  VAL133      0.0252
    165  CG1       12.2100    8.2130    8.5540 C.3   133  VAL133      0.0019
    166  CG2       11.7270    9.3090    6.3320 C.3   133  VAL133      0.0019
    167  N         14.3880    8.6560   13.2680 N.3   135  MET135     -0.1245
    168  CA        13.8570    7.6060   14.1300 C.3   135  MET135      0.1570
    169  C         14.6420    7.5550   15.4240 C.2   135  MET135      0.2261
    170  O         15.7920    7.9550   15.4610 O.2   135  MET135     -0.2867
    171  CB        13.9040    6.2410   13.4370 C.3   135  MET135      0.0387
    172  CG        15.3100    5.7080   13.1750 C.3   135  MET135      0.0595
    173  SD        15.2460    4.2360   12.1380 S.3   135  MET135     -0.1393
    174  CE        16.9890    3.7960   12.0490 C.3   135  MET135      0.0692
    175  N         15.6060    4.7060   18.5630 N.3   137  THR137     -0.1218
    176  CA        15.6160    3.2830   18.8400 C.3   137  THR137      0.1862
    177  C         15.7690    3.0770   20.3300 C.2   137  THR137      0.2287
    178  O         15.9060    4.0400   21.1040 O.2   137  THR137     -0.2866
    179  CB        16.7510    2.5270   18.0970 C.3   137  THR137      0.1770
    180  OG1       18.0220    2.9360   18.6260 O.3   137  THR137     -0.2211
    181  CG2       16.7050    2.7580   16.5950 C.3   137  THR137      0.0375
    182  N         18.3120    2.2200   21.7720 N.3   139  THR139     -0.1203
    183  CA        19.6480    2.6940   22.1650 C.3   139  THR139      0.1994
    184  C         20.0470    4.0930   21.6440 C.2   139  THR139      0.2617
    185  O         21.1270    4.5850   21.9680 O.2   139  THR139     -0.2717
    186  CB        20.7400    1.6870   21.7390 C.3   139  THR139      0.1784
    187  OG1       20.5540    1.3270   20.3630 O.3   139  THR139     -0.2211
    188  CG2       20.6950    0.4350   22.6150 C.3   139  THR139      0.0376
    189  N         19.1910    4.7340   20.8470 N.am  140  ASN140     -0.1974
    190  CA        19.5140    6.0390   20.2400 C.3   140  ASN140      0.1688
    191  C         18.3250    7.0150   20.1800 C.2   140  ASN140      0.2292
    192  O         17.2060    6.6110   19.8360 O.2   140  ASN140     -0.2864
    193  CB        20.0900    5.8430   18.8270 C.3   140  ASN140      0.1181
    194  CG        21.5320    5.3590   18.8380 C.2   140  ASN140      0.2629
    195  OD1       22.4550    6.1200   19.1360 O.2   140  ASN140     -0.2716
    196  ND2       21.7330    4.0920   18.4920 N.am  140  ASN140     -0.0877
    197  N         17.5820    9.0740    9.7520 N.3   145  HIS145     -0.1226
    198  CA        17.9200    7.7970    9.1330 C.3   145  HIS145      0.1752
    199  C         17.9470    7.9380    7.6160 C.2   145  HIS145      0.2595
    200  O         18.7580    7.2960    6.9690 O.2   145  HIS145     -0.2718
    201  CB        16.9240    6.6990    9.5420 C.3   145  HIS145      0.0759
    202  CG        17.1910    5.3460    8.9390 C.ar  145  HIS145      0.0818
    203  ND1       18.4560    4.7970    8.8530 N.ar  145  HIS145     -0.2268
    204  CD2       16.3410    4.3980    8.4730 C.ar  145  HIS145      0.1154
    205  CE1       18.3730    3.5890    8.3200 C.ar  145  HIS145      0.1986
    206  NE2       17.1010    3.3180    8.0910 N.ar  145  HIS145     -0.2212
    207  N         17.0540    8.7590    7.0500 N.am  146  LEU146     -0.1980
    208  CA        16.9290    8.8810    5.5880 C.3   146  LEU146      0.1596
    209  C         16.7480   10.3170    5.1580 C.2   146  LEU146      0.2287
    210  O         16.0670   11.0900    5.8290 O.2   146  LEU146     -0.2864
    211  CB        15.7130    8.0890    5.0710 C.3   146  LEU146      0.0297
    212  CG        15.5170    6.6250    5.4770 C.3   146  LEU146      0.0022
    213  CD1       14.0990    6.1910    5.1270 C.3   146  LEU146      0.0001
    214  CD2       16.5470    5.7080    4.7990 C.3   146  LEU146      0.0001
@<TRIPOS>BOND
     1    70    69    2
     2    69    68    1
     3    48    49    2
     4    48    47    1
     5    67    68    1
     6    68    71    1
     7    60    59    1
     8    60    61    2
     9    74    75    1
    10    47    46    1
    11    47    50    1
    12    59    58    1
    13    59    62    1
    14    71    73    1
    15    71    72    1
    16    50    51    1
    17    79    80    1
    18    79    78    1
    19    75    78    1
    20    75    76    1
    21    80    81    1
    22    53    51   ar
    23    53    55   ar
    24    77    76    2
    25    62    63    1
    26    63    64    1
    27    85    84    2
    28    51    52   ar
    29    76    82   am
    30    55    56   ar
    31    95    94    2
    32    84    83    1
    33    82    83    1
    34    52    54   ar
    35    64    65    2
    36    64    66   am
    37    56    54   ar
    38    56    57    1
    39    92    93    1
    40    83    86    1
    41    94    93    1
    42    37    38    2
    43    37    36    1
    44    93    96    1
    45    86    87    1
    46    36    39    1
    47    36    35    1
    48    42    44   ar
    49    42    40   ar
    50    39    40    1
    51    97    96    1
    52    97    98    1
    53    44    45   ar
    54    89    87   ar
    55    89    91   ar
    56    40    41   ar
    57    87    88   ar
    58   100    98   ar
    59    98    99   ar
    60    91    90   ar
    61    45    43   ar
    62    88    90   ar
    63    41    43   ar
    64   214   212    1
    65   211   212    1
    66   211   208    1
    67   213   212    1
    68   209   208    1
    69   209   210    2
    70   103   102    1
    71   103   104    2
    72   158   157    1
    73   102   101    1
    74   102   105    1
    75   208   207    1
    76   110   111    1
    77   116   114    1
    78   166   164    1
    79   157   159    1
    80   157   156    2
    81   105   106    1
    82    31    30    2
    83    30    29    1
    84   111   114    1
    85   111   112    1
    86    32    33    1
    87    32    29    1
    88   106   107    1
    89    33    34    1
    90   200   199    2
    91   207   199   am
    92   155   156    1
    93   155   154    1
    94   160   161    1
    95   114   115    1
    96   108   107    2
    97   164   161    1
    98   164   165    1
    99   107   109   am
   100    29    28    1
   101   199   198    1
   102   112   113    2
   103   153   154    1
   104   153   150    1
   105   206   205   ar
   106   206   204   ar
   107   161   162    1
   108    34    28    1
   109   151   150    1
   110   151   152    2
   111   205   203   ar
   112   204   202   ar
   113    28    22   am
   114   150   149    1
   115    27    25    1
   116   203   202   ar
   117   202   201    1
   118   120   119    2
   119   163   162    2
   120   198   201    1
   121   198   197    1
   122    25    24    1
   123    22    23    2
   124    22    21    1
   125   117   118    1
   126    24    21    1
   127    24    26    1
   128   119   118    1
   129     1     2    1
   130    21    20    1
   131   118   121    1
   132   121   122    1
   133   122   123    1
   134   122   124    1
   135   147   145    1
   136     2     5    1
   137     2     3    1
   138     4     3    2
   139     5     6    1
   140    20    15   am
   141   174   173    1
   142   148   146    1
   143   173   172    1
   144   145   146    1
   145   145   142    1
   146     7     6   ar
   147     7     9   ar
   148     6     8   ar
   149    16    15    2
   150    15    14    1
   151   172   171    1
   152   167   168    1
   153   143   142    1
   154   143   144    2
   155   171   168    1
   156   142   141    1
   157     9    11   ar
   158     8    10   ar
   159   168   169    1
   160    13    14    1
   161    18    17    1
   162   140   138    1
   163    14    17    1
   164    17    19    1
   165    11    10   ar
   166    11    12    1
   167   139   138    1
   168   138   135    1
   169   169   170    2
   170   132   131    1
   171   132   133    1
   172   131   130    1
   173   181   179    1
   174   135   134    1
   175   135   136    1
   176   134   127   am
   177   129   130    1
   178   129   126    1
   179   125   126    1
   180   136   137    2
   181   127   126    1
   182   127   128    2
   183   179   180    1
   184   179   176    1
   185   196   194   am
   186   175   176    1
   187   193   194    1
   188   193   190    1
   189   194   195    2
   190   176   177    1
   191   192   191    2
   192   191   190    1
   193   190   189    1
   194   177   178    2
   195   187   186    1
   196   189   184   am
   197   184   185    2
   198   184   183    1
   199   186   183    1
   200   186   188    1
   201   182   183    1
