@<TRIPOS>MOLECULE
tmp/3emnA00.pdb
 86 81 0 0 0
SMALL
GASTEIGER

@<TRIPOS>ATOM
      1  N         14.3610   37.9080   33.4810 N.3   180  LEU180     -0.1245
      2  CA        15.8190   37.9840   33.3800 C.3   180  LEU180      0.1561
      3  C         16.3750   36.6860   32.7890 C.2   180  LEU180      0.2260
      4  O         15.9740   35.6050   33.1750 O.2   180  LEU180     -0.2867
      5  CB        16.4440   38.1960   34.7600 C.3   180  LEU180      0.0270
      6  CG        17.9340   38.5680   34.9180 C.3   180  LEU180      0.0019
      7  CD1       18.8870   37.4190   34.5900 C.3   180  LEU180      0.0001
      8  CD2       18.3350   39.8000   34.1280 C.3   180  LEU180      0.0001
      9  N         20.3400   35.1750   31.4480 N.3   182  THR182     -0.1218
     10  CA        21.7570   35.3060   31.1880 C.3   182  THR182      0.1862
     11  C         22.2470   33.9590   30.6280 C.2   182  THR182      0.2287
     12  O         21.6890   32.8890   30.9030 O.2   182  THR182     -0.2866
     13  CB        22.6240   35.6520   32.4470 C.3   182  THR182      0.1770
     14  OG1       22.6430   34.5260   33.3170 O.3   182  THR182     -0.2211
     15  CG2       22.0880   36.8090   33.2070 C.3   182  THR182      0.0375
     16  N         32.1340   29.1880   27.2750 N.3   187  GLY187     -0.1225
     17  CA        32.9560   30.0800   28.1280 C.3   187  GLY187      0.1811
     18  C         33.3850   31.3760   27.4410 C.2   187  GLY187      0.2280
     19  O         34.3560   31.9980   27.8320 O.2   187  GLY187     -0.2866
     20  N         29.0150   36.0160   26.1450 N.3   190  PHE190     -0.1227
     21  CA        28.1030   36.3790   27.2220 C.3   190  PHE190      0.1736
     22  C         26.8850   37.1710   26.7160 C.2   190  PHE190      0.2596
     23  O         27.0070   38.0380   25.8710 O.2   190  PHE190     -0.2718
     24  CB        28.8450   37.1100   28.3440 C.3   190  PHE190      0.0547
     25  CG        30.0500   36.3460   28.8700 C.ar  190  PHE190     -0.0202
     26  CD1       29.9830   35.6590   30.0860 C.ar  190  PHE190     -0.0042
     27  CD2       31.2620   36.3130   28.1470 C.ar  190  PHE190     -0.0042
     28  CE1       31.1180   34.9420   30.5750 C.ar  190  PHE190     -0.0003
     29  CE2       32.3780   35.5880   28.6200 C.ar  190  PHE190     -0.0003
     30  CZ        32.3000   34.9040   29.8280 C.ar  190  PHE190     -0.0000
     31  N         25.7130   36.8190   27.2240 N.am  191  GLY191     -0.1942
     32  CA        24.4550   37.4990   26.8830 C.3   191  GLY191      0.2014
     33  C         23.5750   37.7340   28.1080 C.2   191  GLY191      0.2639
     34  O         23.6900   37.0400   29.1290 O.2   191  GLY191     -0.2714
     35  N         22.6810   38.7000   28.0120 N.am  192  GLY192     -0.1939
     36  CA        21.8850   39.0680   29.1690 C.3   192  GLY192      0.2014
     37  C         20.7550   39.8490   28.6180 C.2   192  GLY192      0.2640
     38  O         20.9490   40.6080   27.7010 O.2   192  GLY192     -0.2714
     39  N         19.5640   39.6280   29.1550 N.am  193  SER193     -0.1935
     40  CA        18.3760   40.3240   28.7040 C.3   193  SER193      0.2055
     41  C         17.3950   40.4710   29.8400 C.2   193  SER193      0.2642
     42  O         17.3050   39.6130   30.7090 O.2   193  SER193     -0.2714
     43  CB        17.7250   39.6150   27.5070 C.3   193  SER193      0.2130
     44  OG        17.1100   38.3810   27.8810 O.3   193  SER193     -0.2179
     45  N         16.7080   41.6090   29.8420 N.am  194  ILE194     -0.1977
     46  CA        15.5660   41.8650   30.7110 C.3   194  ILE194      0.1596
     47  C         14.3550   42.1020   29.8250 C.2   194  ILE194      0.2287
     48  O         14.4360   42.8510   28.8650 O.2   194  ILE194     -0.2864
     49  CB        15.8250   43.0600   31.6730 C.3   194  ILE194      0.0276
     50  CG1       17.0190   42.7200   32.5560 C.3   194  ILE194      0.0022
     51  CG2       14.6060   43.3000   32.5660 C.3   194  ILE194      0.0022
     52  CD1       17.3970   43.7670   33.6410 C.3   194  ILE194      0.0001
     53  N         15.7180   44.9930   27.0980 N.3   206  VAL206     -0.1245
     54  CA        17.1120   45.3850   27.0210 C.3   206  VAL206      0.1561
     55  C         17.9280   44.1220   26.7670 C.2   206  VAL206      0.2260
     56  O         17.6560   43.0800   27.3640 O.2   206  VAL206     -0.2867
     57  CB        17.5930   46.1020   28.3260 C.3   206  VAL206      0.0252
     58  CG1       19.0800   46.5550   28.2180 C.3   206  VAL206      0.0019
     59  CG2       16.6580   47.2790   28.6880 C.3   206  VAL206      0.0019
     60  N         22.0620   42.7290   26.3290 N.3   208  LEU208     -0.1245
     61  CA        23.5110   42.9570   26.4790 C.3   208  LEU208      0.1561
     62  C         24.2890   41.7640   25.9550 C.2   208  LEU208      0.2260
     63  O         23.8800   40.6000   26.1110 O.2   208  LEU208     -0.2867
     64  CB        23.8790   43.1880   27.9470 C.3   208  LEU208      0.0270
     65  CG        22.9520   44.0820   28.7710 C.3   208  LEU208      0.0019
     66  CD1       23.3310   44.0330   30.2480 C.3   208  LEU208      0.0001
     67  CD2       22.9280   45.5310   28.2340 C.3   208  LEU208      0.0001
     68  N         28.5850   40.5490   24.9750 N.3   210  TRP210     -0.1241
     69  CA        30.0150   40.7930   24.9710 C.3   210  TRP210      0.1605
     70  C         30.7100   39.4330   24.8430 C.2   210  TRP210      0.2264
     71  O         30.0550   38.3830   24.8700 O.2   210  TRP210     -0.2867
     72  CB        30.4830   41.5930   26.1890 C.3   210  TRP210      0.0550
     73  CG        30.3650   40.9450   27.4980 C.ar  210  TRP210      0.0003
     74  CD1       31.2680   40.1150   28.0680 C.ar  210  TRP210      0.0946
     75  CD2       29.2860   41.0740   28.4570 C.ar  210  TRP210      0.0152
     76  NE1       30.8310   39.6920   29.3000 N.ar  210  TRP210     -0.2442
     77  CE2       29.6210   40.2700   29.5720 C.ar  210  TRP210      0.0810
     78  CE3       28.0850   41.7880   28.4800 C.ar  210  TRP210      0.0012
     79  CZ2       28.7870   40.1380   30.6990 C.ar  210  TRP210      0.0191
     80  CZ3       27.2400   41.6640   29.6320 C.ar  210  TRP210      0.0001
     81  CH2       27.6050   40.8470   30.7090 C.ar  210  TRP210      0.0015
     82  N         34.5080   37.2270   25.7000 N.3   212  ALA212     -0.1245
     83  CA        35.8420   37.0840   26.3080 C.3   212  ALA212      0.1562
     84  C         36.8270   36.9520   25.1530 C.2   212  ALA212      0.2260
     85  O         36.6170   36.1140   24.2920 O.2   212  ALA212     -0.2867
     86  CB        35.8910   35.8220   27.2130 C.3   212  ALA212      0.0290
@<TRIPOS>BOND
     1    85    84    2
     2    70    71    2
     3    70    69    1
     4    69    68    1
     5    69    72    1
     6    84    83    1
     7    82    83    1
     8    23    22    2
     9    62    63    2
    10    62    61    1
    11    20    21    1
    12    72    73    1
    13    83    86    1
    14    60    61    1
    15    61    64    1
    16    22    21    1
    17    22    31   am
    18    55    54    1
    19    55    56    2
    20    32    31    1
    21    32    33    1
    22    54    53    1
    23    54    57    1
    24    21    24    1
    25    16    17    1
    26    18    19    2
    27    18    17    1
    28    73    74   ar
    29    73    75   ar
    30    43    44    1
    31    43    40    1
    32    38    37    2
    33    64    65    1
    34    35    33   am
    35    35    36    1
    36    74    76   ar
    37    33    34    2
    38    27    29   ar
    39    27    25   ar
    40    58    57    1
    41    67    65    1
    42    57    59    1
    43    24    25    1
    44    75    78   ar
    45    75    77   ar
    46    78    80   ar
    47    37    39   am
    48    37    36    1
    49    29    30   ar
    50    40    39    1
    51    40    41    1
    52    65    66    1
    53    48    47    2
    54    25    26   ar
    55    76    77   ar
    56    77    79   ar
    57    80    81   ar
    58    47    46    1
    59    30    28   ar
    60    41    45   am
    61    41    42    2
    62    45    46    1
    63    26    28   ar
    64    11    12    2
    65    11    10    1
    66    79    81   ar
    67    46    49    1
    68    10     9    1
    69    10    13    1
    70    49    50    1
    71    49    51    1
    72    13    15    1
    73    13    14    1
    74    50    52    1
    75     3     4    2
    76     3     2    1
    77     2     1    1
    78     2     5    1
    79     8     6    1
    80     7     6    1
    81     5     6    1
