@<TRIPOS>MOLECULE
tmp/3emqA00.pdb
 202 200 0 0 0
SMALL
GASTEIGER

@<TRIPOS>ATOM
      1  N         21.8380   10.6420    6.5400 N.3    43  GLU43      -0.1231
      2  CA        20.6150   10.4160    5.7940 C.3    43  GLU43       0.1699
      3  C         20.8590    9.9630    4.3410 C.2    43  GLU43       0.2592
      4  O         20.1850    9.0490    3.8580 O.2    43  GLU43      -0.2718
      5  CB        19.7390   11.6700    5.8010 C.3    43  GLU43       0.0402
      6  CG        18.4840   11.5090    4.9460 C.3    43  GLU43       0.1161
      7  CD        17.6030   12.7430    4.9260 C.2    43  GLU43       0.3649
      8  OE1       18.1080   13.8330    4.5900 O.co2  43  GLU43      -0.2457
      9  OE2       16.4000   12.6220    5.2360 O.co2  43  GLU43      -0.2457
     10  N         21.8120   10.5970    3.6530 N.am   44  ASN44      -0.1974
     11  CA        22.1170   10.2540    2.2560 C.3    44  ASN44       0.1688
     12  C         23.6120   10.2350    1.9290 C.2    44  ASN44       0.2292
     13  O         24.0840    9.3900    1.1660 O.2    44  ASN44      -0.2864
     14  CB        21.4500   11.2430    1.2880 C.3    44  ASN44       0.1181
     15  CG        19.9520   11.3870    1.5150 C.2    44  ASN44       0.2629
     16  OD1       19.2120   10.4040    1.4880 O.2    44  ASN44      -0.2716
     17  ND2       19.4980   12.6210    1.7230 N.am   44  ASN44      -0.0877
     18  N         25.5440    6.8640    0.9960 N.3    47  LYS47      -0.1245
     19  CA        24.9610    5.8720    0.1080 C.3    47  LYS47       0.1561
     20  C         25.8830    5.6930   -1.0920 C.2    47  LYS47       0.2260
     21  O         26.8340    6.4500   -1.2580 O.2    47  LYS47      -0.2867
     22  CB        23.5600    6.3120   -0.3220 C.3    47  LYS47       0.0271
     23  CG        22.5830    6.4140    0.8510 C.3    47  LYS47       0.0035
     24  CD        21.2370    6.9980    0.4520 C.3    47  LYS47       0.0206
     25  CE        20.3860    7.2640    1.6820 C.3    47  LYS47       0.1093
     26  NZ        19.0710    7.9110    1.3750 N.3    47  LYS47      -0.1314
     27  N         24.5370    3.7280    6.7240 N.3    80  HIS80      -0.1241
     28  CA        23.2880    3.4550    6.0440 C.3    80  HIS80       0.1621
     29  C         23.3620    2.9540    4.5980 C.2    80  HIS80       0.2264
     30  O         23.8690    3.6210    3.6960 O.2    80  HIS80      -0.2867
     31  CB        22.3760    4.6830    6.1320 C.3    80  HIS80       0.0745
     32  CG        21.0400    4.5040    5.4710 C.ar   80  HIS80       0.0817
     33  ND1       20.3080    3.3390    5.5710 N.ar   80  HIS80      -0.2268
     34  CD2       20.2880    5.3590    4.7310 C.ar   80  HIS80       0.1154
     35  CE1       19.1660    3.4850    4.9210 C.ar   80  HIS80       0.1986
     36  NE2       19.1290    4.7010    4.4030 N.ar   80  HIS80      -0.2212
     37  N         21.1550   -1.0670   -2.2240 N.3    84  TRP84      -0.1227
     38  CA        19.7880   -0.5550   -2.2800 C.3    84  TRP84       0.1737
     39  C         19.4300   -0.2530   -3.7340 C.2    84  TRP84       0.2595
     40  O         20.3070    0.1100   -4.5130 O.2    84  TRP84      -0.2718
     41  CB        19.6770    0.7130   -1.4240 C.3    84  TRP84       0.0564
     42  CG        18.2830    1.2770   -1.3230 C.ar   84  TRP84       0.0003
     43  CD1       17.1140    0.5760   -1.2910 C.ar   84  TRP84       0.0946
     44  CD2       17.9240    2.6570   -1.1570 C.ar   84  TRP84       0.0152
     45  NE1       16.0550    1.4300   -1.1120 N.ar   84  TRP84      -0.2442
     46  CE2       16.5240    2.7120   -1.0220 C.ar   84  TRP84       0.0810
     47  CE3       18.6540    3.8530   -1.1040 C.ar   84  TRP84       0.0012
     48  CZ2       15.8360    3.9120   -0.8340 C.ar   84  TRP84       0.0191
     49  CZ3       17.9660    5.0490   -0.9200 C.ar   84  TRP84       0.0001
     50  CH2       16.5740    5.0660   -0.7860 C.ar   84  TRP84       0.0015
     51  N         18.1590   -0.4060   -4.1100 N.am   85  HIS85      -0.1961
     52  CA        17.7760   -0.1380   -5.4910 C.3    85  HIS85       0.1787
     53  C         17.9150    1.3490   -5.8360 C.2    85  HIS85       0.2620
     54  O         18.2730    1.7050   -6.9620 O.2    85  HIS85      -0.2715
     55  CB        16.3550   -0.6480   -5.7990 C.3    85  HIS85       0.0785
     56  CG        15.2950   -0.1280   -4.8790 C.ar   85  HIS85       0.0821
     57  ND1       14.8410   -0.8370   -3.7870 N.ar   85  HIS85      -0.2267
     58  CD2       14.5810    1.0230   -4.9010 C.ar   85  HIS85       0.1154
     59  CE1       13.8930   -0.1470   -3.1780 C.ar   85  HIS85       0.1986
     60  NE2       13.7170    0.9850   -3.8340 N.ar   85  HIS85      -0.2212
     61  N         17.6610    2.2120   -4.8580 N.am   86  ASN86      -0.1958
     62  CA        17.7870    3.6520   -5.0500 C.3    86  ASN86       0.1819
     63  C         19.2000    4.2020   -4.8270 C.2    86  ASN86       0.2621
     64  O         20.0620    3.5710   -4.2070 O.2    86  ASN86      -0.2715
     65  CB        16.8260    4.3850   -4.1270 C.3    86  ASN86       0.1195
     66  CG        15.4040    4.2940   -4.5980 C.2    86  ASN86       0.2630
     67  OD1       14.4730    4.1670   -3.7990 O.2    86  ASN86      -0.2716
     68  ND2       15.2170    4.3720   -5.9090 N.am   86  ASN86      -0.0877
     69  N         19.4200    5.3950   -5.3600 N.am   87  GLN87      -0.1977
     70  CA        20.6860    6.0820   -5.2260 C.3    87  GLN87       0.1601
     71  C         21.9370    5.2140   -5.4700 C.2    87  GLN87       0.2287
     72  O         22.8510    5.1330   -4.6390 O.2    87  GLN87      -0.2864
     73  CB        20.7060    6.7720   -3.8530 C.3    87  GLN87       0.0394
     74  CG        19.7390    7.9640   -3.8310 C.3    87  GLN87       0.0908
     75  CD        19.4580    8.5200   -2.4470 C.2    87  GLN87       0.2608
     76  OE1       18.6680    7.9580   -1.6870 O.2    87  GLN87      -0.2717
     77  NE2       20.1000    9.6410   -2.1170 N.am   87  GLN87      -0.0878
     78  N         19.1610   -2.7130    1.9790 N.3   132  ASN132     -0.1225
     79  CA        17.9940   -1.9190    2.3130 C.3   132  ASN132      0.1785
     80  C         16.8200   -2.1830    1.3800 C.2   132  ASN132      0.2597
     81  O         16.9770   -2.1850    0.1530 O.2   132  ASN132     -0.2718
     82  CB        18.3810   -0.4300    2.2780 C.3   132  ASN132      0.1169
     83  CG        17.3520    0.4770    2.9490 C.2   132  ASN132      0.2627
     84  OD1       16.8550    0.1830    4.0370 O.2   132  ASN132     -0.2716
     85  ND2       17.0530    1.5960    2.3100 N.am  132  ASN132     -0.0877
     86  N         15.6530   -2.4320    1.9750 N.am  133  GLU133     -0.1979
     87  CA        14.4190   -2.6500    1.2270 C.3   133  GLU133      0.1602
     88  C         14.5020   -3.6760    0.0930 C.2   133  GLU133      0.2287
     89  O         14.3870   -3.3300   -1.0850 O.2   133  GLU133     -0.2864
     90  CB        13.9480   -1.3010    0.6880 C.3   133  GLU133      0.0415
     91  CG        13.6670   -0.3040    1.8000 C.3   133  GLU133      0.1163
     92  CD        13.7260    1.1400    1.3570 C.2   133  GLU133      0.3649
     93  OE1       13.2720    1.4400    0.2450 O.co2 133  GLU133     -0.2457
     94  OE2       14.2090    1.9820    2.1300 O.co2 133  GLU133     -0.2457
     95  N         11.7110   -8.0910   -3.9380 N.3   144  ARG144     -0.1245
     96  CA        11.4620   -6.8960   -4.7450 C.3   144  ARG144      0.1563
     97  C         12.3220   -7.0070   -6.0140 C.2   144  ARG144      0.2260
     98  O         13.5450   -7.1460   -5.9380 O.2   144  ARG144     -0.2867
     99  CB        11.8360   -5.6370   -3.9510 C.3   144  ARG144      0.0307
    100  CG        11.6710   -4.3370   -4.7240 C.3   144  ARG144      0.0489
    101  CD        12.6010   -3.2540   -4.1760 C.3   144  ARG144      0.2205
    102  NE        12.1100   -2.6340   -2.9490 N.pl3 144  ARG144     -0.0865
    103  CZ        11.1070   -1.7630   -2.9110 C.cat 144  ARG144      0.5346
    104  NH1       10.4960   -1.4150   -4.0340 N.pl3 144  ARG144      0.1354
    105  NH2       10.7140   -1.2390   -1.7580 N.pl3 144  ARG144      0.1354
    106  N         11.1110   -0.9540    5.6930 N.3   178  TYR178     -0.1227
    107  CA         9.9270   -0.2310    6.1520 C.3   178  TYR178      0.1736
    108  C          8.6590   -1.0820    6.0250 C.2   178  TYR178      0.2595
    109  O          8.6630   -2.1040    5.3450 O.2   178  TYR178     -0.2718
    110  CB         9.7590    1.0750    5.3640 C.3   178  TYR178      0.0548
    111  CG         9.5560    0.9120    3.8720 C.ar  178  TYR178     -0.0200
    112  CD1       10.6220    0.5920    3.0290 C.ar  178  TYR178     -0.0009
    113  CD2        8.2950    1.0870    3.3010 C.ar  178  TYR178     -0.0009
    114  CE1       10.4390    0.4540    1.6530 C.ar  178  TYR178      0.0417
    115  CE2        8.0970    0.9500    1.9290 C.ar  178  TYR178      0.0417
    116  CZ         9.1740    0.6340    1.1090 C.ar  178  TYR178      0.1957
    117  OH         8.9760    0.5050   -0.2500 O.3   178  TYR178     -0.2866
    118  N          7.5800   -0.6410    6.6730 N.am  179  ASN179     -0.1974
    119  CA         6.3080   -1.3660    6.6890 C.3   179  ASN179      0.1688
    120  C          6.5540   -2.6850    7.3950 C.2   179  ASN179      0.2292
    121  O          5.8130   -3.6470    7.2350 O.2   179  ASN179     -0.2864
    122  CB         5.8030   -1.6270    5.2730 C.3   179  ASN179      0.1181
    123  CG         5.3180   -0.3700    4.5840 C.2   179  ASN179      0.2629
    124  OD1        5.0570   -0.3770    3.3850 O.2   179  ASN179     -0.2716
    125  ND2        5.1880    0.7140    5.3370 N.am  179  ASN179     -0.0877
    126  N         12.4810    0.3970   10.1110 N.3   209  GLN209     -0.1245
    127  CA        12.5250    1.8100    9.7350 C.3   209  GLN209      0.1566
    128  C         11.6610    2.7450   10.5960 C.2   209  GLN209      0.2260
    129  O         12.0930    3.8440   10.9420 O.2   209  GLN209     -0.2867
    130  CB        12.2080    1.9730    8.2390 C.3   209  GLN209      0.0367
    131  CG        13.4530    1.7820    7.3500 C.3   209  GLN209      0.0905
    132  CD        13.2010    2.0160    5.8590 C.2   209  GLN209      0.2608
    133  OE1       12.5580    2.9880    5.4710 O.2   209  GLN209     -0.2717
    134  NE2       13.7290    1.1300    5.0220 N.am  209  GLN209     -0.0878
    135  N          8.7650    4.2560    9.7990 N.3   211  HIS211     -0.1241
    136  CA         8.1230    5.3640    9.1010 C.3   211  HIS211      0.1621
    137  C          6.6200    5.2140    9.3260 C.2   211  HIS211      0.2264
    138  O          5.8840    4.7650    8.4530 O.2   211  HIS211     -0.2867
    139  CB         8.4570    5.3310    7.6120 C.3   211  HIS211      0.0745
    140  CG         9.8960    5.6160    7.3150 C.ar  211  HIS211      0.0817
    141  ND1       10.5240    6.7740    7.7220 N.ar  211  HIS211     -0.2268
    142  CD2       10.8260    4.9000    6.6430 C.ar  211  HIS211      0.1154
    143  CE1       11.7770    6.7600    7.3110 C.ar  211  HIS211      0.1986
    144  NE2       11.9860    5.6340    6.6530 N.ar  211  HIS211     -0.2212
    145  N         14.6140    4.5630   11.2360 N.3   240  GLU240     -0.1245
    146  CA        14.2420    5.7980   10.5690 C.3   240  GLU240      0.1567
    147  C         12.9290    6.3490   11.0940 C.2   240  GLU240      0.2260
    148  O         12.0730    6.8100   10.3380 O.2   240  GLU240     -0.2867
    149  CB        14.1730    5.5410    9.0660 C.3   240  GLU240      0.0388
    150  CG        15.4910    5.0730    8.4640 C.3   240  GLU240      0.1160
    151  CD        15.3890    4.7770    6.9810 C.2   240  GLU240      0.3649
    152  OE1       14.6640    5.5140    6.2930 O.co2 240  GLU240     -0.2457
    153  OE2       16.0340    3.8210    6.4970 O.co2 240  GLU240     -0.2457
    154  N         -0.5220    7.9120    4.3510 N.3   248  HIS248     -0.1241
    155  CA         0.1100    7.9110    3.0450 C.3   248  HIS248      0.1621
    156  C         -1.0640    7.8800    2.0810 C.2   248  HIS248      0.2264
    157  O         -2.0940    7.2570    2.3590 O.2   248  HIS248     -0.2867
    158  CB         1.0330    6.7210    2.8410 C.3   248  HIS248      0.0745
    159  CG         2.1870    7.0260    1.9330 C.ar  248  HIS248      0.0817
    160  ND1        2.0540    7.1290    0.5630 N.ar  248  HIS248     -0.2268
    161  CD2        3.4890    7.3010    2.2060 C.ar  248  HIS248      0.1154
    162  CE1        3.2220    7.4510    0.0330 C.ar  248  HIS248      0.1986
    163  NE2        4.1090    7.5630    1.0070 N.ar  248  HIS248     -0.2212
    164  N         14.5050    9.8780   11.8070 N.3   290  TRP290     -0.1241
    165  CA        15.0060   10.2860   10.5050 C.3   290  TRP290      0.1605
    166  C         15.0010   11.8050   10.4140 C.2   290  TRP290      0.2264
    167  O         14.2720   12.3830    9.6170 O.2   290  TRP290     -0.2867
    168  CB        14.1510    9.6880    9.3880 C.3   290  TRP290      0.0550
    169  CG        14.9560    9.2850    8.1860 C.ar  290  TRP290      0.0003
    170  CD1       14.6470    9.5160    6.8810 C.ar  290  TRP290      0.0946
    171  CD2       16.2000    8.5660    8.1820 C.ar  290  TRP290      0.0152
    172  NE1       15.6200    8.9920    6.0610 N.ar  290  TRP290     -0.2442
    173  CE2       16.5840    8.4030    6.8330 C.ar  290  TRP290      0.0810
    174  CE3       17.0230    8.0410    9.1880 C.ar  290  TRP290      0.0012
    175  CZ2       17.7560    7.7400    6.4610 C.ar  290  TRP290      0.0191
    176  CZ3       18.1880    7.3800    8.8190 C.ar  290  TRP290      0.0001
    177  CH2       18.5440    7.2370    7.4630 C.ar  290  TRP290      0.0015
    178  N         12.6190   14.6890    5.0620 N.3   298  TRP298     -0.1241
    179  CA        12.3460   14.1890    3.7230 C.3   298  TRP298      0.1605
    180  C         10.8480   14.1280    3.4480 C.2   298  TRP298      0.2264
    181  O         10.4200   14.0890    2.2980 O.2   298  TRP298     -0.2867
    182  CB        12.9640   12.7930    3.5480 C.3   298  TRP298      0.0550
    183  CG        12.2450   11.6870    4.2880 C.ar  298  TRP298      0.0003
    184  CD1       12.0940   11.5620    5.6450 C.ar  298  TRP298      0.0946
    185  CD2       11.5650   10.5620    3.7070 C.ar  298  TRP298      0.0152
    186  NE1       11.3620   10.4350    5.9430 N.ar  298  TRP298     -0.2442
    187  CE2       11.0250    9.8030    4.7740 C.ar  298  TRP298      0.0810
    188  CE3       11.3610   10.1210    2.3910 C.ar  298  TRP298      0.0012
    189  CZ2       10.2870    8.6280    4.5620 C.ar  298  TRP298      0.0191
    190  CZ3       10.6260    8.9490    2.1840 C.ar  298  TRP298      0.0001
    191  CH2       10.1020    8.2210    3.2660 C.ar  298  TRP298      0.0015
    192  N          8.1400   14.0920    0.0640 N.3   302  PHE302     -0.1241
    193  CA         7.6820   12.7490   -0.2540 C.3   302  PHE302      0.1605
    194  C          6.5410   12.3620    0.6760 C.2   302  PHE302      0.2264
    195  O          6.5890   12.6270    1.8740 O.2   302  PHE302     -0.2867
    196  CB         8.8170   11.7340   -0.0930 C.3   302  PHE302      0.0534
    197  CG         8.4130   10.3390   -0.4260 C.ar  302  PHE302     -0.0203
    198  CD1        8.5230    9.8660   -1.7230 C.ar  302  PHE302     -0.0042
    199  CD2        7.8530    9.5170    0.5430 C.ar  302  PHE302     -0.0042
    200  CE1        8.0820    8.5950   -2.0550 C.ar  302  PHE302     -0.0003
    201  CE2        7.4060    8.2410    0.2220 C.ar  302  PHE302     -0.0003
    202  CZ         7.5210    7.7810   -1.0800 C.ar  302  PHE302     -0.0000
@<TRIPOS>BOND
     1    54    53    2
     2    97    98    2
     3    97    96    1
     4    68    66   am
     5    53    52    1
     6    53    61   am
     7    55    52    1
     8    55    56    1
     9    52    51    1
    10    71    70    1
    11    71    72    2
    12    69    70    1
    13    69    63   am
    14    70    73    1
    15    62    61    1
    16    62    63    1
    17    62    65    1
    18    58    56   ar
    19    58    60   ar
    20    56    57   ar
    21    63    64    2
    22    96    99    1
    23    96    95    1
    24   100   101    1
    25   100    99    1
    26    66    65    1
    27    66    67    2
    28    40    39    2
    29   101   102    1
    30    51    39   am
    31   104   103    1
    32    73    74    1
    33    60    59   ar
    34    74    75    1
    35    57    59   ar
    36    39    38    1
    37   102   103    2
    38   103   105    1
    39    75    77   am
    40    75    76    2
    41    38    37    1
    42    38    41    1
    43   200   198   ar
    44   200   202   ar
    45   198   197   ar
    46    41    42    1
    47    42    43   ar
    48    42    44   ar
    49    43    45   ar
    50    21    20    2
    51    44    47   ar
    52    44    46   ar
    53    45    46   ar
    54    47    49   ar
    55    20    19    1
    56    89    88    2
    57   202   201   ar
    58    46    48   ar
    59    49    50   ar
    60    48    50   ar
    61   197   196    1
    62   197   199   ar
    63    22    19    1
    64    22    23    1
    65   193   196    1
    66   193   192    1
    67   193   194    1
    68   117   116    1
    69   162   160   ar
    70   162   163   ar
    71    88    87    1
    72    19    18    1
    73    81    80    2
    74   201   199   ar
    75    93    92   ar
    76    24    23    1
    77    24    25    1
    78   160   159   ar
    79   194   195    2
    80    90    87    1
    81    90    91    1
    82   163   161   ar
    83   116   114   ar
    84   116   115   ar
    85    13    12    2
    86    87    86    1
    87    14    15    1
    88    14    11    1
    89    92    91    1
    90    92    94   ar
    91    26    25    1
    92    80    86   am
    93    80    79    1
    94    16    15    2
    95    15    17   am
    96   114   112   ar
    97   115   113   ar
    98    12    11    1
    99   159   161   ar
   100   159   158    1
   101    78    79    1
   102   156   157    2
   103   156   155    1
   104   190   188   ar
   105   190   191   ar
   106    11    10    1
   107    82    79    1
   108    82    83    1
   109   181   180    2
   110    85    83   am
   111   188   185   ar
   112   158   155    1
   113    83    84    2
   114   112   111   ar
   115   155   154    1
   116   191   189   ar
   117   113   111   ar
   118   124   123    2
   119   180   179    1
   120   182   179    1
   121   182   183    1
   122    10     3   am
   123    30    29    2
   124   185   183   ar
   125   185   187   ar
   126   179   178    1
   127     4     3    2
   128   111   110    1
   129   183   184   ar
   130     3     2    1
   131    36    34   ar
   132    36    35   ar
   133   189   187   ar
   134   123   122    1
   135   123   125   am
   136     8     7   ar
   137    29    28    1
   138    34    32   ar
   139   187   186   ar
   140    35    33   ar
   141     7     6    1
   142     7     9   ar
   143     6     5    1
   144   134   132   am
   145   122   119    1
   146   109   108    2
   147   110   107    1
   148    32    33   ar
   149    32    31    1
   150   133   132    2
   151   184   186   ar
   152   106   107    1
   153     2     5    1
   154     2     1    1
   155   132   131    1
   156   108   107    1
   157   108   118   am
   158    28    31    1
   159    28    27    1
   160   172   173   ar
   161   172   170   ar
   162   152   151   ar
   163   175   173   ar
   164   175   177   ar
   165   153   151   ar
   166   142   144   ar
   167   142   140   ar
   168   144   143   ar
   169   118   119    1
   170   119   120    1
   171   173   171   ar
   172   170   169   ar
   173   151   150    1
   174   121   120    2
   175   143   141   ar
   176   140   139    1
   177   140   141   ar
   178   131   130    1
   179   177   176   ar
   180   139   136    1
   181   171   169   ar
   182   171   174   ar
   183   169   168    1
   184   130   127    1
   185   138   137    2
   186   150   149    1
   187   176   174   ar
   188   149   146    1
   189   136   137    1
   190   136   135    1
   191   168   165    1
   192   167   166    2
   193   127   126    1
   194   127   128    1
   195   148   147    2
   196   166   165    1
   197   165   164    1
   198   146   147    1
   199   146   145    1
   200   128   129    2
