@<TRIPOS>MOLECULE
tmp/3emsA00.pdb
 84 81 0 0 0
SMALL
GASTEIGER

@<TRIPOS>ATOM
      1  N        -24.0820   -4.0190    4.3890 N.3    35  GLU35      -0.1245
      2  CA       -23.1940   -4.6710    3.4330 C.3    35  GLU35       0.1567
      3  C        -22.0240   -5.3750    4.1240 C.2    35  GLU35       0.2260
      4  O        -21.7240   -6.5330    3.8240 O.2    35  GLU35      -0.2867
      5  CB       -22.6620   -3.6720    2.3910 C.3    35  GLU35       0.0388
      6  CG       -23.6910   -3.1540    1.3780 C.3    35  GLU35       0.1160
      7  CD       -24.2610   -4.2310    0.4470 C.2    35  GLU35       0.3649
      8  OE1      -23.7560   -5.3770    0.4390 O.co2  35  GLU35      -0.2457
      9  OE2      -25.2270   -3.9150   -0.2800 O.co2  35  GLU35      -0.2457
     10  N        -17.3580  -11.4650    0.1130 N.3    44  ASN44      -0.1225
     11  CA       -18.4280  -12.4570    0.0010 C.3    44  ASN44       0.1785
     12  C        -18.5790  -12.9400   -1.4240 C.2    44  ASN44       0.2597
     13  O        -18.7700  -12.1360   -2.3350 O.2    44  ASN44      -0.2718
     14  CB       -19.7540  -11.8880    0.5120 C.3    44  ASN44       0.1169
     15  CG       -19.7700  -11.7320    2.0210 C.2    44  ASN44       0.2627
     16  OD1      -19.8310  -12.7190    2.7620 O.2    44  ASN44      -0.2716
     17  ND2      -19.6820  -10.4900    2.4850 N.am   44  ASN44      -0.0877
     18  N        -18.4800  -14.2570   -1.6020 N.am   45  ARG45      -0.1966
     19  CA       -18.6120  -14.8810   -2.9120 C.3    45  ARG45       0.1729
     20  C        -20.0740  -14.9700   -3.3220 C.2    45  ARG45       0.2616
     21  O        -20.9290  -15.3500   -2.5200 O.2    45  ARG45      -0.2715
     22  CB       -18.0060  -16.2880   -2.9020 C.3    45  ARG45       0.0348
     23  CG       -17.8840  -16.9160   -4.2910 C.3    45  ARG45       0.0492
     24  CD       -16.6080  -16.4840   -4.9830 C.3    45  ARG45       0.2205
     25  NE       -15.5410  -17.4750   -4.8420 N.pl3  45  ARG45      -0.0865
     26  CZ       -14.8660  -18.0100   -5.8580 C.cat  45  ARG45       0.5346
     27  NH1      -15.1180  -17.6460   -7.1120 N.pl3  45  ARG45       0.1354
     28  NH2      -13.9140  -18.8990   -5.6150 N.pl3  45  ARG45       0.1354
     29  N        -20.3430  -14.6180   -4.5750 N.am   46  ASN46      -0.1972
     30  CA       -21.6670  -14.7570   -5.1690 C.3    46  ASN46       0.1688
     31  C        -21.7960  -16.0930   -5.8960 C.2    46  ASN46       0.2292
     32  O        -20.7890  -16.6840   -6.2890 O.2    46  ASN46      -0.2864
     33  CB       -21.9330  -13.5880   -6.1180 C.3    46  ASN46       0.1181
     34  CG       -21.8210  -12.2420   -5.4200 C.2    46  ASN46       0.2629
     35  OD1      -22.3350  -12.0640   -4.3150 O.2    46  ASN46      -0.2716
     36  ND2      -21.1420  -11.2940   -6.0550 N.am   46  ASN46      -0.0877
     37  N        -17.9000   -9.9040   -3.8740 N.3    52  ASP52      -0.1239
     38  CA       -18.1390   -8.5360   -3.4160 C.3    52  ASP52       0.1674
     39  C        -17.0690   -8.1500   -2.4030 C.2    52  ASP52       0.2266
     40  O        -16.7560   -8.9320   -1.5060 O.2    52  ASP52      -0.2867
     41  CB       -19.5280   -8.4260   -2.7730 C.3    52  ASP52       0.1410
     42  CG       -20.6590   -8.5330   -3.7810 C.2    52  ASP52       0.3668
     43  OD1      -20.3980   -8.6380   -4.9990 O.co2  52  ASP52      -0.2456
     44  OD2      -21.8290   -8.4940   -3.3480 O.co2  52  ASP52      -0.2456
     45  N        -19.1270   -3.5420   -0.3930 N.3    57  GLN57      -0.1245
     46  CA       -19.3690   -4.8130   -1.1000 C.3    57  GLN57       0.1566
     47  C        -19.5150   -4.6410   -2.6160 C.2    57  GLN57       0.2260
     48  O        -20.5170   -5.0440   -3.2290 O.2    57  GLN57      -0.2867
     49  CB       -20.5780   -5.5370   -0.4960 C.3    57  GLN57       0.0367
     50  CG       -20.2880   -6.0860    0.8850 C.3    57  GLN57       0.0905
     51  CD       -19.2660   -7.2100    0.8460 C.2    57  GLN57       0.2608
     52  OE1      -18.0660   -7.0000    1.0770 O.2    57  GLN57      -0.2717
     53  NE2      -19.7340   -8.4100    0.5400 N.am   57  GLN57      -0.0878
     54  N        -28.4620   -0.3400   -6.8080 N.3   107  ALA107     -0.1231
     55  CA       -27.3470   -1.2400   -7.1300 C.3   107  ALA107      0.1694
     56  C        -26.9490   -2.0860   -5.9140 C.2   107  ALA107      0.2592
     57  O        -26.5220   -3.2340   -6.0590 O.2   107  ALA107     -0.2718
     58  CB       -26.1600   -0.4530   -7.6360 C.3   107  ALA107      0.0304
     59  N        -27.0920   -1.5060   -4.7250 N.am  108  TRP108     -0.1962
     60  CA       -26.8890   -2.2270   -3.4710 C.3   108  TRP108      0.1771
     61  C        -28.2080   -2.8310   -3.0200 C.2   108  TRP108      0.2619
     62  O        -29.0430   -2.1490   -2.4290 O.2   108  TRP108     -0.2715
     63  CB       -26.3310   -1.2940   -2.3880 C.3   108  TRP108      0.0590
     64  CG       -24.9220   -0.8530   -2.6390 C.ar  108  TRP108      0.0006
     65  CD1      -23.7740   -1.4860   -2.2300 C.ar  108  TRP108      0.0946
     66  CD2      -24.5040    0.3090   -3.3650 C.ar  108  TRP108      0.0152
     67  NE1      -22.6680   -0.7820   -2.6580 N.ar  108  TRP108     -0.2442
     68  CE2      -23.0860    0.3220   -3.3560 C.ar  108  TRP108      0.0810
     69  CE3      -25.1880    1.3450   -4.0230 C.ar  108  TRP108      0.0012
     70  CZ2      -22.3390    1.3330   -3.9770 C.ar  108  TRP108      0.0191
     71  CZ3      -24.4450    2.3520   -4.6420 C.ar  108  TRP108      0.0001
     72  CH2      -23.0320    2.3340   -4.6190 C.ar  108  TRP108      0.0015
     73  N        -28.4050   -4.1140   -3.3120 N.am  109  VAL109     -0.1963
     74  CA       -29.6600   -4.7780   -2.9600 C.3   109  VAL109      0.1727
     75  C        -29.9710   -4.6760   -1.4540 C.2   109  VAL109      0.2616
     76  O        -31.1270   -4.4690   -1.0800 O.2   109  VAL109     -0.2715
     77  CB       -29.7070   -6.2360   -3.4810 C.3   109  VAL109      0.0290
     78  CG1      -30.9780   -6.9460   -3.0210 C.3   109  VAL109      0.0023
     79  CG2      -29.6100   -6.2510   -5.0040 C.3   109  VAL109      0.0023
     80  N        -28.9410   -4.7760   -0.6080 N.am  110  ALA110     -0.1977
     81  CA       -29.1050   -4.5850    0.8430 C.3   110  ALA110      0.1597
     82  C        -29.6090   -3.1850    1.1880 C.2   110  ALA110      0.2287
     83  O        -30.4190   -3.0340    2.1070 O.2   110  ALA110     -0.2864
     84  CB       -27.8160   -4.8930    1.5940 C.3   110  ALA110      0.0319
@<TRIPOS>BOND
     1    58    55    1
     2    55    54    1
     3    55    56    1
     4    27    26    1
     5    32    31    2
     6    33    34    1
     7    33    30    1
     8    57    56    2
     9    36    34   am
    10    56    59   am
    11    31    30    1
    12    26    28    1
    13    26    25    2
    14    34    35    2
    15    30    29    1
    16    79    77    1
    17    43    42   ar
    18    24    25    1
    19    24    23    1
    20    59    60    1
    21    71    72   ar
    22    71    69   ar
    23    72    70   ar
    24    29    20   am
    25    23    22    1
    26    69    66   ar
    27    70    68   ar
    28    37    38    1
    29    42    44   ar
    30    42    41    1
    31    77    78    1
    32    77    74    1
    33    60    61    1
    34    60    63    1
    35    38    41    1
    36    38    39    1
    37    66    68   ar
    38    66    64   ar
    39    68    67   ar
    40    20    19    1
    41    20    21    2
    42    73    61   am
    43    73    74    1
    44    48    47    2
    45    61    62    2
    46    74    75    1
    47    19    22    1
    48    19    18    1
    49    67    65   ar
    50    64    63    1
    51    64    65   ar
    52    47    46    1
    53    39    40    2
    54    13    12    2
    55    18    12   am
    56    75    76    2
    57    75    80   am
    58    12    11    1
    59    46    49    1
    60    46    45    1
    61    80    81    1
    62    49    50    1
    63     9     7   ar
    64    11    10    1
    65    11    14    1
    66     8     7   ar
    67     7     6    1
    68    14    15    1
    69    53    51   am
    70    81    82    1
    71    81    84    1
    72    51    50    1
    73    51    52    2
    74    82    83    2
    75     6     5    1
    76    15    17   am
    77    15    16    2
    78     5     2    1
    79     2     3    1
    80     2     1    1
    81     4     3    2
