@<TRIPOS>MOLECULE
tmp/3emwA00.pdb
 96 95 0 0 0
SMALL
GASTEIGER

@<TRIPOS>ATOM
      1  N          9.3680   32.0690   48.7830 N.3    49  ARG49      -0.1245
      2  CA         8.4680   31.6290   49.8400 C.3    49  ARG49       0.1563
      3  C          8.4210   32.6470   50.9660 C.2    49  ARG49       0.2260
      4  O          9.4590   32.9760   51.5540 O.2    49  ARG49      -0.2867
      5  CB         8.9030   30.2590   50.3620 C.3    49  ARG49       0.0307
      6  CG         8.0140   29.7250   51.4930 C.3    49  ARG49       0.0489
      7  CD         8.5520   28.4620   52.0890 C.3    49  ARG49       0.2205
      8  NE         7.8970   28.0720   53.3250 N.pl3  49  ARG49      -0.0865
      9  CZ         8.0860   28.6540   54.5090 C.cat  49  ARG49       0.5346
     10  NH1        8.8950   29.7280   54.6530 N.pl3  49  ARG49       0.1354
     11  NH2        7.4450   28.1670   55.5590 N.pl3  49  ARG49       0.1354
     12  N          7.8460   34.1770   54.6890 N.3    51  PRO51      -0.2102
     13  CA         8.3270   33.6860   55.9910 C.3    51  PRO51       0.1504
     14  C          7.2060   33.2870   56.9760 C.2    51  PRO51       0.2576
     15  O          7.1480   33.8020   58.0660 O.2    51  PRO51      -0.2718
     16  CB         9.1580   34.8620   56.5130 C.3    51  PRO51       0.0282
     17  CG         8.4470   36.0650   55.9740 C.3    51  PRO51       0.0208
     18  CD         7.9520   35.6610   54.6050 C.3    51  PRO51       0.0893
     19  N          6.3570   32.3370   56.5770 N.am   52  VAL52      -0.1966
     20  CA         5.2090   31.8700   57.3700 C.3    52  VAL52       0.1727
     21  C          5.6870   30.6980   58.2330 C.2    52  VAL52       0.2616
     22  O          6.2840   29.7530   57.7280 O.2    52  VAL52      -0.2715
     23  CB         4.0680   31.3740   56.4540 C.3    52  VAL52       0.0290
     24  CG1        2.8120   30.9040   57.3090 C.3    52  VAL52       0.0023
     25  CG2        3.6990   32.4670   55.4420 C.3    52  VAL52       0.0023
     26  N          5.4970   30.7910   59.5390 N.am   53  ALA53      -0.1963
     27  CA         5.9720   29.7630   60.4490 C.3    53  ALA53       0.1728
     28  C          5.0800   28.5410   60.3250 C.2    53  ALA53       0.2616
     29  O          3.8970   28.6560   59.9940 O.2    53  ALA53      -0.2715
     30  CB         5.9430   30.2730   61.8880 C.3    53  ALA53       0.0334
     31  N          5.6540   27.3760   60.6040 N.am   54  GLN54      -0.1977
     32  CA         4.9200   26.1180   60.6830 C.3    54  GLN54       0.1601
     33  C          4.1570   25.8480   59.4040 C.2    54  GLN54       0.2287
     34  O          2.9300   25.6410   59.4060 O.2    54  GLN54      -0.2864
     35  CB         4.0120   26.1140   61.9190 C.3    54  GLN54       0.0394
     36  CG         4.7740   26.3250   63.2150 C.3    54  GLN54       0.0908
     37  CD         5.8800   25.2680   63.4200 C.2    54  GLN54       0.2608
     38  OE1        5.6970   24.1020   63.0840 O.2    54  GLN54      -0.2717
     39  NE2        7.0220   25.6880   63.9820 N.am   54  GLN54      -0.0878
     40  N         17.0570   25.3750   55.0870 N.3    82  GLY82      -0.1210
     41  CA        16.3850   25.0190   56.3480 C.3    82  GLY82       0.1956
     42  C         16.3330   23.5210   56.6140 C.2    82  GLY82       0.2612
     43  O         17.1820   22.7480   56.1420 O.2    82  GLY82      -0.2717
     44  N         15.2790   23.0800   57.3050 N.am   83  THR83      -0.1952
     45  CA        15.2740   21.7130   57.8540 C.3    83  THR83       0.1897
     46  C         14.8410   20.6400   56.8460 C.2    83  THR83       0.2313
     47  O         15.1740   19.4680   57.0460 O.2    83  THR83      -0.2863
     48  CB        14.3670   21.6310   59.1200 C.3    83  THR83       0.1794
     49  OG1       13.0250   22.0160   58.7670 O.3    83  THR83      -0.2208
     50  CG2       14.9180   22.5090   60.2560 C.3    83  THR83       0.0378
     51  N          6.6360   21.7570   59.5460 N.3   101  TYR101     -0.1241
     52  CA         7.8210   21.5700   58.7240 C.3   101  TYR101      0.1605
     53  C          7.9860   20.0640   58.4450 C.2   101  TYR101      0.2264
     54  O          8.0570   19.2710   59.3720 O.2   101  TYR101     -0.2867
     55  CB         9.0580   22.1470   59.4000 C.3   101  TYR101      0.0534
     56  CG         8.9350   23.6220   59.7770 C.ar  101  TYR101     -0.0201
     57  CD1        8.5500   24.5600   58.8380 C.ar  101  TYR101     -0.0009
     58  CD2        9.2710   24.0720   61.0600 C.ar  101  TYR101     -0.0009
     59  CE1        8.4920   25.9200   59.1520 C.ar  101  TYR101      0.0417
     60  CE2        9.2070   25.4250   61.3730 C.ar  101  TYR101      0.0417
     61  CZ         8.8010   26.3330   60.4170 C.ar  101  TYR101      0.1957
     62  OH         8.7190   27.6690   60.7300 O.3   101  TYR101     -0.2866
     63  N         10.6380   25.0420   53.2430 N.3   187  VAL187     -0.1231
     64  CA        10.2720   25.5430   54.5650 C.3   187  VAL187      0.1692
     65  C         10.9710   26.8450   54.9960 C.2   187  VAL187      0.2592
     66  O         10.6370   27.3980   56.0430 O.2   187  VAL187     -0.2718
     67  CB        10.5700   24.4780   55.6590 C.3   187  VAL187      0.0266
     68  CG1        9.7430   23.2690   55.4320 C.3   187  VAL187      0.0020
     69  CG2       12.0570   24.0880   55.7360 C.3   187  VAL187      0.0020
     70  N         11.9240   27.3410   54.1960 N.am  188  TRP188     -0.1962
     71  CA        12.7570   28.4470   54.6280 C.3   188  TRP188      0.1771
     72  C         12.1330   29.7990   54.2320 C.2   188  TRP188      0.2620
     73  O         11.7700   30.0140   53.0550 O.2   188  TRP188     -0.2715
     74  CB        14.1550   28.3220   53.9990 C.3   188  TRP188      0.0590
     75  CG        15.1150   29.3950   54.4400 C.ar  188  TRP188      0.0006
     76  CD1       15.4260   30.5380   53.7740 C.ar  188  TRP188      0.0946
     77  CD2       15.9350   29.3660   55.6000 C.ar  188  TRP188      0.0152
     78  NE1       16.3490   31.2710   54.4820 N.ar  188  TRP188     -0.2442
     79  CE2       16.6830   30.5700   55.6110 C.ar  188  TRP188      0.0810
     80  CE3       16.0560   28.4830   56.6910 C.ar  188  TRP188      0.0012
     81  CZ2       17.5880   30.8620   56.6080 C.ar  188  TRP188      0.0191
     82  CZ3       16.9530   28.7750   57.6860 C.ar  188  TRP188      0.0001
     83  CH2       17.7040   29.9710   57.6520 C.ar  188  TRP188      0.0015
     84  N         12.0550   30.6920   55.2000 N.am  189  GLY189     -0.1940
     85  CA        11.5040   32.0150   55.0450 C.3   189  GLY189      0.2014
     86  C         12.3630   32.8370   54.0780 C.2   189  GLY189      0.2638
     87  O         13.5630   33.0350   54.3050 O.2   189  GLY189     -0.2714
     88  N         11.7090   33.3370   53.0400 N.am  190  GLN190     -0.1977
     89  CA        12.3120   34.1050   51.9550 C.3   190  GLN190      0.1601
     90  C         13.2830   33.3260   51.0530 C.2   190  GLN190      0.2287
     91  O         14.0690   33.9530   50.3130 O.2   190  GLN190     -0.2864
     92  CB        12.9590   35.3990   52.4720 C.3   190  GLN190      0.0394
     93  CG        12.0170   36.2700   53.3090 C.3   190  GLN190      0.0908
     94  CD        12.6970   37.5160   53.8410 C.2   190  GLN190      0.2608
     95  OE1       12.7710   38.5380   53.1610 O.2   190  GLN190     -0.2717
     96  NE2       13.1930   37.4380   55.0630 N.am  190  GLN190     -0.0878
@<TRIPOS>BOND
     1     1     2    1
     2     2     5    1
     3     2     3    1
     4    91    90    2
     5     5     6    1
     6     3     4    2
     7    90    89    1
     8     6     7    1
     9    89    92    1
    10    89    88    1
    11     7     8    1
    12    92    93    1
    13    88    86   am
    14    73    72    2
    15    95    94    2
    16    63    64    1
    17    93    94    1
    18     8     9    2
    19    76    75   ar
    20    76    78   ar
    21    94    96   am
    22    74    75    1
    23    74    71    1
    24    86    87    2
    25    86    85    1
    26    70    71    1
    27    70    65   am
    28    72    71    1
    29    72    84   am
    30    75    77   ar
    31    78    79   ar
    32     9    10    1
    33     9    11    1
    34    64    65    1
    35    64    67    1
    36    18    12    1
    37    18    17    1
    38    12    13    1
    39    65    66    2
    40    85    84    1
    41    40    41    1
    42    68    67    1
    43    25    23    1
    44    77    79   ar
    45    77    80   ar
    46    79    81   ar
    47    67    69    1
    48    17    16    1
    49    13    16    1
    50    13    14    1
    51    43    42    2
    52    41    42    1
    53    23    24    1
    54    23    20    1
    55    19    14   am
    56    19    20    1
    57    81    83   ar
    58    42    44   am
    59    80    82   ar
    60    46    47    2
    61    46    45    1
    62    14    15    2
    63    44    45    1
    64    20    21    1
    65    83    82   ar
    66    22    21    2
    67    45    48    1
    68    21    26   am
    69    53    52    1
    70    53    54    2
    71    52    55    1
    72    52    51    1
    73    49    48    1
    74    57    59   ar
    75    57    56   ar
    76    48    50    1
    77    59    61   ar
    78    55    56    1
    79    33    34    2
    80    33    32    1
    81    26    27    1
    82    56    58   ar
    83    29    28    2
    84    28    27    1
    85    28    31   am
    86    61    62    1
    87    61    60   ar
    88    27    30    1
    89    31    32    1
    90    32    35    1
    91    58    60   ar
    92    35    36    1
    93    38    37    2
    94    36    37    1
    95    37    39   am
