@<TRIPOS>MOLECULE
tmp/3emyA00.pdb
 210 194 0 0 0
SMALL
GASTEIGER

@<TRIPOS>ATOM
      1  N         16.3360   57.2160    5.3540 N.3    15  GLU15      -0.1245
      2  CA        15.1160   57.3190    6.1560 C.3    15  GLU15       0.1567
      3  C         14.6430   58.7390    6.0480 C.2    15  GLU15       0.2260
      4  O         15.3470   59.5520    5.4780 O.2    15  GLU15      -0.2867
      5  CB        15.3810   56.9800    7.6300 C.3    15  GLU15       0.0388
      6  CG        16.2040   58.0320    8.3260 C.3    15  GLU15       0.1160
      7  CD        17.0510   57.4440    9.5110 C.2    15  GLU15       0.3649
      8  OE1       17.1920   56.2150    9.6160 O.co2  15  GLU15      -0.2457
      9  OE2       17.5090   58.2370   10.3270 O.co2  15  GLU15      -0.2457
     10  N         11.4980   59.5880   13.3050 N.3    32  ASP32      -0.1239
     11  CA        11.3530   58.8190   12.0720 C.3    32  ASP32       0.1674
     12  C          9.9180   58.2030   12.1430 C.2    32  ASP32       0.2266
     13  O          9.6770   57.2710   12.9260 O.2    32  ASP32      -0.2867
     14  CB        12.4340   57.7140   12.1110 C.3    32  ASP32       0.1410
     15  CG        12.4450   56.7970   10.8720 C.2    32  ASP32       0.3668
     16  OD1       13.4830   56.0780   10.7060 O.co2  32  ASP32      -0.2456
     17  OD2       11.4500   56.8170   10.0980 O.co2  32  ASP32      -0.2456
     18  N          7.1840   55.7860   11.2980 N.3    34  ASP34      -0.1239
     19  CA         7.4280   54.3820   10.9050 C.3    34  ASP34       0.1674
     20  C          6.1050   53.6250   10.8450 C.2    34  ASP34       0.2266
     21  O          5.6070   53.1620   11.8590 O.2    34  ASP34      -0.2867
     22  CB         8.2510   53.7540   12.0300 C.3    34  ASP34       0.1410
     23  CG         8.6230   52.3360   11.7150 C.2    34  ASP34       0.3668
     24  OD1        9.0290   51.5900   12.6560 O.co2  34  ASP34      -0.2456
     25  OD2        8.4280   51.9560   10.5160 O.co2  34  ASP34      -0.2456
     26  N          5.7950   50.8260   10.0110 N.3    36  GLY36      -0.1210
     27  CA         6.0730   49.4290   10.3230 C.3    36  GLY36       0.1956
     28  C          6.3110   49.1390   11.8070 C.2    36  GLY36       0.2613
     29  O          6.6950   48.0160   12.1490 O.2    36  GLY36      -0.2717
     30  N          5.9910   50.0820   12.7080 N.am   37  SER37      -0.1938
     31  CA         6.0300   49.7290   14.1290 C.3    37  SER37       0.2055
     32  C          4.9440   50.4930   14.8620 C.2    37  SER37       0.2643
     33  O          4.2660   51.3660   14.2460 O.2    37  SER37      -0.2714
     34  CB         7.4120   50.0500   14.7490 C.3    37  SER37       0.2130
     35  OG         7.6630   51.4730   14.7460 O.3    37  SER37      -0.2179
     36  N          4.7820   50.2380   16.1800 N.am   38  SER38      -0.1949
     37  CA         3.5410   50.6900   16.8440 C.3    38  SER38       0.1924
     38  C          3.8400   51.4740   18.1280 C.2    38  SER38       0.2314
     39  O          2.9620   51.6960   18.9380 O.2    38  SER38      -0.2863
     40  CB         2.6910   49.4620   17.1570 C.3    38  SER38       0.2116
     41  OG         2.2210   48.8820   15.9070 O.3    38  SER38      -0.2180
     42  N         11.7920   46.6790   21.9840 N.3    76  ILE76      -0.1231
     43  CA        11.4040   46.4090   20.5900 C.3    76  ILE76       0.1692
     44  C         12.6810   45.9640   19.8720 C.2    76  ILE76       0.2593
     45  O         13.7270   46.4910   20.1800 O.2    76  ILE76      -0.2718
     46  CB        10.8790   47.6710   19.8870 C.3    76  ILE76       0.0266
     47  CG1        9.6810   48.2670   20.6690 C.3    76  ILE76       0.0019
     48  CG2       10.4430   47.2980   18.3830 C.3    76  ILE76       0.0020
     49  CD1        9.3390   49.6690   20.1760 C.3    76  ILE76       0.0001
     50  N         12.5920   44.9730   19.0010 N.am   77  SER77      -0.1938
     51  CA        13.7090   44.5220   18.1340 C.3    77  SER77       0.2055
     52  C         13.2420   44.7780   16.7340 C.2    77  SER77       0.2643
     53  O         12.1410   44.3120   16.3570 O.2    77  SER77      -0.2714
     54  CB        13.9110   42.9880   18.2650 C.3    77  SER77       0.2130
     55  OG        14.3590   42.7130   19.5870 O.3    77  SER77      -0.2179
     56  N         14.0510   45.4690   15.9520 N.am   78  TYR78      -0.1959
     57  CA        13.6420   45.8220   14.5870 C.3    78  TYR78       0.1771
     58  C         14.2650   44.8940   13.5310 C.2    78  TYR78       0.2620
     59  O         15.1360   44.0840   13.8300 O.2    78  TYR78      -0.2715
     60  CB        14.0330   47.2920   14.3080 C.3    78  TYR78       0.0574
     61  CG        13.2820   48.2690   15.1960 C.ar   78  TYR78      -0.0198
     62  CD1       13.8500   48.7730   16.3530 C.ar   78  TYR78      -0.0009
     63  CD2       11.9510   48.6240   14.8900 C.ar   78  TYR78      -0.0009
     64  CE1       13.1450   49.7070   17.1720 C.ar   78  TYR78       0.0417
     65  CE2       11.2350   49.5540   15.6780 C.ar   78  TYR78       0.0417
     66  CZ        11.8510   50.0860   16.8110 C.ar   78  TYR78       0.1957
     67  OH        11.1530   50.9710   17.6030 O.3    78  TYR78      -0.2866
     68  N         13.7460   44.9830   12.3250 N.am   79  GLY79      -0.1940
     69  CA        14.0270   44.0520   11.2680 C.3    79  GLY79       0.2014
     70  C         15.4750   44.0970   10.8930 C.2    79  GLY79       0.2638
     71  O         16.0080   43.0810   10.4370 O.2    79  GLY79      -0.2714
     72  N         16.1230   45.2310   11.1200 N.am   80  ASP80      -0.1971
     73  CA        17.5390   45.3520   10.7230 C.3    80  ASP80       0.1709
     74  C         18.4590   45.0090   11.8810 C.2    80  ASP80       0.2293
     75  O         19.6790   45.2040   11.7750 O.2    80  ASP80      -0.2864
     76  CB        17.8440   46.7440   10.1470 C.3    80  ASP80       0.1436
     77  CG        17.5300   47.8560   11.1400 C.2    80  ASP80       0.3671
     78  OD1       17.3650   47.5410   12.3480 O.co2  80  ASP80      -0.2456
     79  OD2       17.4230   49.0220   10.7240 O.co2  80  ASP80      -0.2456
     80  N         18.4120   46.3530   14.8540 N.3    82  SER82      -0.1217
     81  CA        18.5230   47.4240   15.8390 C.3    82  SER82       0.1889
     82  C         17.5080   47.2070   16.9730 C.2    82  SER82       0.2288
     83  O         16.5790   46.4370   16.7920 O.2    82  SER82      -0.2866
     84  CB        18.3790   48.7900   15.1410 C.3    82  SER82       0.2089
     85  OG        17.0440   48.9650   14.6510 O.3    82  SER82      -0.2183
     86  N         21.0340   53.1980   16.4760 N.3   115  PHE115     -0.1241
     87  CA        20.3650   54.4450   16.8280 C.3   115  PHE115      0.1605
     88  C         21.3730   55.4410   17.4270 C.2   115  PHE115      0.2264
     89  O         21.3090   56.6860   17.1680 O.2   115  PHE115     -0.2867
     90  CB        19.1970   54.1730   17.7990 C.3   115  PHE115      0.0534
     91  CG        18.0720   53.3720   17.1930 C.ar  115  PHE115     -0.0203
     92  CD1       17.7650   52.0960   17.6670 C.ar  115  PHE115     -0.0042
     93  CD2       17.3490   53.8740   16.1180 C.ar  115  PHE115     -0.0042
     94  CE1       16.6960   51.3470   17.1080 C.ar  115  PHE115     -0.0003
     95  CE2       16.3110   53.1330   15.5390 C.ar  115  PHE115     -0.0003
     96  CZ        15.9930   51.8490   16.0340 C.ar  115  PHE115     -0.0000
     97  N         18.3560   61.5570   14.2500 N.3   121  ILE121     -0.1245
     98  CA        16.9990   61.2450   14.7570 C.3   121  ILE121      0.1561
     99  C         17.0350   61.1040   16.2440 C.2   121  ILE121      0.2260
    100  O         18.1020   60.8680   16.8540 O.2   121  ILE121     -0.2867
    101  CB        16.3160   60.0020   14.1920 C.3   121  ILE121      0.0252
    102  CG1       17.1680   58.8090   14.5010 C.3   121  ILE121      0.0019
    103  CG2       15.8720   60.1830   12.6980 C.3   121  ILE121      0.0019
    104  CD1       16.3030   57.5680   14.1530 C.3   121  ILE121      0.0001
    105  N         11.2650   57.3370   17.1470 N.3   124  LEU124     -0.1245
    106  CA        10.3470   56.8750   16.0750 C.3   124  LEU124      0.1561
    107  C          8.9680   57.2500   16.4730 C.2   124  LEU124      0.2260
    108  O          8.6440   57.2420   17.6260 O.2   124  LEU124     -0.2867
    109  CB        10.3890   55.3020   15.9860 C.3   124  LEU124      0.0270
    110  CG        11.3700   54.7520   14.9570 C.3   124  LEU124      0.0019
    111  CD1       12.7830   55.1460   15.2290 C.3   124  LEU124      0.0001
    112  CD2       11.2190   53.2500   14.9410 C.3   124  LEU124      0.0001
    113  N          0.1530   46.0410   17.6820 N.3   132  GLY132     -0.1225
    114  CA         1.6120   45.7930   17.7300 C.3   132  GLY132      0.1811
    115  C          2.3040   46.5150   18.8650 C.2   132  GLY132      0.2280
    116  O          3.5590   46.3760   19.0420 O.2   132  GLY132     -0.2866
    117  N          4.2280   47.6380   22.0400 N.3   134  GLN134     -0.1245
    118  CA         5.0210   46.7400   22.9060 C.3   134  GLN134      0.1566
    119  C          5.0260   47.1330   24.4010 C.2   134  GLN134      0.2260
    120  O          5.7650   46.5300   25.1830 O.2   134  GLN134     -0.2867
    121  CB         6.4920   46.7520   22.4100 C.3   134  GLN134      0.0367
    122  CG         6.6700   45.9690   21.0780 C.3   134  GLN134      0.0905
    123  CD         6.1250   44.5120   21.1740 C.2   134  GLN134      0.2608
    124  OE1        5.0630   44.1480   20.5920 O.2   134  GLN134     -0.2717
    125  NE2        6.7640   43.7390   21.9450 N.am  134  GLN134     -0.0878
    126  N          0.3090   45.1270   10.7700 N.3   193  PHE193     -0.1241
    127  CA         0.9510   46.0170    9.7430 C.3   193  PHE193      0.1605
    128  C         -0.0370   46.5490    8.7270 C.2   193  PHE193      0.2264
    129  O         -1.1660   46.0600    8.6710 O.2   193  PHE193     -0.2867
    130  CB         2.0610   45.2790    8.9460 C.3   193  PHE193      0.0534
    131  CG         3.1990   44.7720    9.8010 C.ar  193  PHE193     -0.0203
    132  CD1        4.0410   45.6420   10.4190 C.ar  193  PHE193     -0.0042
    133  CD2        3.3930   43.4100    9.9550 C.ar  193  PHE193     -0.0042
    134  CE1        5.1000   45.2010   11.2030 C.ar  193  PHE193     -0.0003
    135  CE2        4.4510   42.9250   10.7500 C.ar  193  PHE193     -0.0003
    136  CZ         5.2970   43.8140   11.3730 C.ar  193  PHE193     -0.0000
    137  N          4.0440   44.7070    3.0870 N.3   216  ILE216     -0.1245
    138  CA         3.5810   45.7630    4.0080 C.3   216  ILE216      0.1561
    139  C          4.1030   47.1390    3.5250 C.2   216  ILE216      0.2260
    140  O          5.2310   47.2510    3.0120 O.2   216  ILE216     -0.2867
    141  CB         4.0610   45.5140    5.4530 C.3   216  ILE216      0.0252
    142  CG1        5.5910   45.5550    5.5570 C.3   216  ILE216      0.0019
    143  CG2        3.5370   44.1890    5.9700 C.3   216  ILE216      0.0019
    144  CD1        6.1010   45.4660    7.1040 C.3   216  ILE216      0.0001
    145  N          5.7240   50.3000    4.4470 N.3   218  ASP218     -0.1239
    146  CA         6.5530   50.6760    5.6370 C.3   218  ASP218      0.1674
    147  C          7.3980   51.8910    5.3500 C.2   218  ASP218      0.2266
    148  O          8.4690   51.8010    4.6740 O.2   218  ASP218     -0.2867
    149  CB         7.4710   49.5130    5.9900 C.3   218  ASP218      0.1410
    150  CG         8.1620   49.7360    7.3160 C.2   218  ASP218      0.3668
    151  OD1        8.8930   48.8090    7.7950 O.co2 218  ASP218     -0.2456
    152  OD2        7.8840   50.8310    7.8850 O.co2 218  ASP218     -0.2456
    153  N          9.1940   53.2290    7.3500 N.3   220  GLY220     -0.1210
    154  CA        10.3940   53.0410    8.1340 C.3   220  GLY220      0.1956
    155  C         11.4150   52.0540    7.5600 C.2   220  GLY220      0.2613
    156  O         12.4190   51.6780    8.2670 O.2   220  GLY220     -0.2717
    157  N         11.1670   51.5440    6.3450 N.am  221  THR221     -0.1938
    158  CA        12.1900   50.7580    5.6270 C.3   221  THR221      0.2028
    159  C         12.7190   51.4960    4.4270 C.2   221  THR221      0.2643
    160  O         11.9520   52.1100    3.7120 O.2   221  THR221     -0.2714
    161  CB        11.5900   49.3790    5.2010 C.3   221  THR221      0.1808
    162  OG1       11.3840   48.6070    6.3790 O.3   221  THR221     -0.2208
    163  CG2       12.4560   48.5730    4.2190 C.3   221  THR221      0.0379
    164  N         14.0470   51.4370    4.1860 N.am  222  THR222     -0.1936
    165  CA        14.6190   52.2210    3.0980 C.3   222  THR222      0.2028
    166  C         14.1890   51.6710    1.7540 C.2   222  THR222      0.2642
    167  O         13.8690   52.4190    0.8190 O.2   222  THR222     -0.2714
    168  CB        16.1520   52.0490    3.1310 C.3   222  THR222      0.1808
    169  OG1       16.5740   52.4550    4.4530 O.3   222  THR222     -0.2208
    170  CG2       16.7940   52.9760    2.0880 C.3   222  THR222      0.0379
    171  N         14.2550   50.3510    1.6240 N.am  223  LEU223     -0.1977
    172  CA        14.2760   49.7150    0.2900 C.3   223  LEU223      0.1596
    173  C         12.9000   49.1280   -0.1260 C.2   223  LEU223      0.2287
    174  O         11.9560   49.0470    0.6890 O.2   223  LEU223     -0.2864
    175  CB        15.2920   48.5640    0.2640 C.3   223  LEU223      0.0297
    176  CG        16.7560   48.9890    0.4930 C.3   223  LEU223      0.0022
    177  CD1       17.5920   47.7570    0.7340 C.3   223  LEU223      0.0001
    178  CD2       17.2920   49.8100   -0.7260 C.3   223  LEU223      0.0001
    179  N         11.6770   45.6190   -0.8050 N.3   225  LEU225     -0.1245
    180  CA        12.1940   44.2930   -0.5140 C.3   225  LEU225      0.1561
    181  C         11.1620   43.2700   -0.9860 C.2   225  LEU225      0.2260
    182  O         10.0510   43.1640   -0.4000 O.2   225  LEU225     -0.2867
    183  CB        12.4990   44.1770    1.0070 C.3   225  LEU225      0.0270
    184  CG        13.6290   45.0920    1.5440 C.3   225  LEU225      0.0019
    185  CD1       13.7500   44.9620    3.0750 C.3   225  LEU225      0.0001
    186  CD2       14.9660   44.7850    0.7880 C.3   225  LEU225      0.0001
    187  N         14.4440   38.6930    5.4880 N.3   299  ILE299     -0.1245
    188  CA        13.5690   39.1420    6.5980 C.3   299  ILE299      0.1561
    189  C         12.2930   38.3670    6.6110 C.2   299  ILE299      0.2260
    190  O         11.5330   38.4450    7.5580 O.2   299  ILE299     -0.2867
    191  CB        13.2510   40.6630    6.5630 C.3   299  ILE299      0.0252
    192  CG1       12.8940   41.1040    5.1530 C.3   299  ILE299      0.0019
    193  CG2       14.4200   41.5010    7.0970 C.3   299  ILE299      0.0019
    194  CD1       12.4190   42.5100    5.1120 C.3   299  ILE299      0.0001
    195  N          9.5410   38.7870    4.8610 N.3   301  ILE301     -0.1245
    196  CA         8.2480   39.4400    4.6260 C.3   301  ILE301      0.1561
    197  C          8.5260   40.4790    3.5430 C.2   301  ILE301      0.2260
    198  O          9.6170   41.0260    3.5460 O.2   301  ILE301     -0.2867
    199  CB         7.6570   40.1070    5.9110 C.3   301  ILE301      0.0252
    200  CG1        6.2310   40.6440    5.6230 C.3   301  ILE301      0.0019
    201  CG2        8.5840   41.1670    6.4580 C.3   301  ILE301      0.0019
    202  CD1        5.3760   41.0720    6.8950 C.3   301  ILE301      0.0001
    203  N          8.3920   44.0480    1.7160 N.3   303  ILE303     -0.1245
    204  CA         8.2100   45.3910    2.3080 C.3   303  ILE303      0.1561
    205  C          8.2780   46.4220    1.1870 C.2   303  ILE303      0.2260
    206  O          9.2830   46.5200    0.5090 O.2   303  ILE303     -0.2867
    207  CB         9.3130   45.7150    3.3240 C.3   303  ILE303      0.0252
    208  CG1        9.3180   44.6190    4.4370 C.3   303  ILE303      0.0019
    209  CG2        9.0410   47.1060    3.8920 C.3   303  ILE303      0.0019
    210  CD1       10.3190   44.9160    5.6700 C.3   303  ILE303      0.0001
@<TRIPOS>BOND
     1   181   180    1
     2   181   182    2
     3   179   180    1
     4   178   176    1
     5   180   183    1
     6   173   172    1
     7   173   174    2
     8   175   172    1
     9   175   176    1
    10   172   171    1
    11   176   177    1
    12   206   205    2
    13   186   184    1
    14   167   166    2
    15   183   184    1
    16   205   204    1
    17   184   185    1
    18   171   166   am
    19   203   204    1
    20   166   165    1
    21   170   168    1
    22   204   207    1
    23   140   139    2
    24   137   138    1
    25   165   168    1
    26   165   164    1
    27   168   169    1
    28   207   209    1
    29   207   208    1
    30   139   138    1
    31   197   198    2
    32   197   196    1
    33   160   159    2
    34   138   141    1
    35   164   159   am
    36   163   161    1
    37   159   158    1
    38   208   210    1
    39   145   146    1
    40   196   195    1
    41   196   199    1
    42   148   147    2
    43   194   192    1
    44   192   191    1
    45   161   158    1
    46   161   162    1
    47   147   146    1
    48     1     2    1
    49   141   142    1
    50   141   143    1
    51     4     3    2
    52   187   188    1
    53   142   144    1
    54   200   199    1
    55   200   202    1
    56   158   157    1
    57   146   149    1
    58   199   201    1
    59   149   150    1
    60     3     2    1
    61     2     5    1
    62   157   155   am
    63   191   188    1
    64   191   193    1
    65   188   189    1
    66   189   190    2
    67   150   151   ar
    68   150   152   ar
    69   153   154    1
    70   155   154    1
    71   155   156    2
    72     5     6    1
    73     6     7    1
    74   129   128    2
    75   128   127    1
    76   130   127    1
    77   130   131    1
    78     7     8   ar
    79     7     9   ar
    80   127   126    1
    81   131   133   ar
    82   131   132   ar
    83   133   135   ar
    84    26    27    1
    85    17    15   ar
    86    76    73    1
    87    76    77    1
    88    27    28    1
    89   132   134   ar
    90    71    70    2
    91    25    23   ar
    92    16    15   ar
    93    73    72    1
    94    73    74    1
    95    79    77   ar
    96   135   136   ar
    97    20    19    1
    98    20    21    2
    99    15    14    1
   100    70    72   am
   101    70    69    1
   102    19    18    1
   103    19    22    1
   104    77    78   ar
   105   134   136   ar
   106    69    68    1
   107    23    22    1
   108    23    24   ar
   109    75    74    2
   110    28    29    2
   111    28    30   am
   112    11    14    1
   113    11    12    1
   114    11    10    1
   115    12    13    2
   116    68    58   am
   117   103   101    1
   118    30    31    1
   119    58    59    2
   120    58    57    1
   121    31    34    1
   122    31    32    1
   123   104   102    1
   124   101   102    1
   125   101    98    1
   126    33    32    2
   127    97    98    1
   128    60    57    1
   129    60    61    1
   130    57    56    1
   131    85    84    1
   132    35    34    1
   133    98    99    1
   134    80    81    1
   135    32    36   am
   136    63    61   ar
   137    63    65   ar
   138   112   110    1
   139   110   111    1
   140   110   109    1
   141    84    81    1
   142    61    62   ar
   143    95    96   ar
   144    95    93   ar
   145    65    66   ar
   146    81    82    1
   147    41    40    1
   148    56    52   am
   149   109   106    1
   150    96    94   ar
   151   106   107    1
   152   106   105    1
   153    93    91   ar
   154    36    37    1
   155    99   100    2
   156    62    64   ar
   157    53    52    2
   158   107   108    2
   159    86    87    1
   160    52    51    1
   161    83    82    2
   162    66    64   ar
   163    66    67    1
   164    87    88    1
   165    87    90    1
   166    37    40    1
   167    37    38    1
   168    94    92   ar
   169    89    88    2
   170    91    92   ar
   171    91    90    1
   172   113   114    1
   173   114   115    1
   174    38    39    2
   175    51    54    1
   176    51    50    1
   177    54    55    1
   178    48    46    1
   179   115   116    2
   180    50    44   am
   181    44    45    2
   182    44    43    1
   183    46    43    1
   184    46    47    1
   185    49    47    1
   186    43    42    1
   187   124   123    2
   188   122   123    1
   189   122   121    1
   190   123   125   am
   191   117   118    1
   192   121   118    1
   193   118   119    1
   194   119   120    2
