@<TRIPOS>MOLECULE
tmp/3emzA00.pdb
 191 190 0 0 0
SMALL
GASTEIGER

@<TRIPOS>ATOM
      1  N         21.6750   10.8460    6.6070 N.3    43  GLU43      -0.1231
      2  CA        20.3970   10.6170    5.9300 C.3    43  GLU43       0.1699
      3  C         20.6010   10.1190    4.5010 C.2    43  GLU43       0.2592
      4  O         19.8770    9.2430    4.0350 O.2    43  GLU43      -0.2718
      5  CB        19.5420   11.8890    5.8940 C.3    43  GLU43       0.0402
      6  CG        18.0720   11.5890    5.5720 C.3    43  GLU43       0.1161
      7  CD        17.2470   12.8380    5.3230 C.2    43  GLU43       0.3649
      8  OE1       17.3890   13.8140    6.0880 O.co2  43  GLU43      -0.2457
      9  OE2       16.4340   12.8360    4.3760 O.co2  43  GLU43      -0.2457
     10  N         21.5970   10.6830    3.8220 N.am   44  ASN44      -0.1974
     11  CA        21.8990   10.3200    2.4450 C.3    44  ASN44       0.1688
     12  C         23.3850   10.3050    2.1130 C.2    44  ASN44       0.2292
     13  O         23.8180    9.5730    1.2250 O.2    44  ASN44      -0.2864
     14  CB        21.2330   11.3080    1.4740 C.3    44  ASN44       0.1181
     15  CG        19.7300   11.1520    1.4050 C.2    44  ASN44       0.2629
     16  OD1       19.2190   10.1240    0.9560 O.2    44  ASN44      -0.2716
     17  ND2       19.0110   12.1810    1.8420 N.am   44  ASN44      -0.0877
     18  N         25.1390    6.9750    1.2580 N.3    47  LYS47      -0.1245
     19  CA        24.5530    6.0330    0.3130 C.3    47  LYS47       0.1561
     20  C         25.4760    5.8680   -0.8910 C.2    47  LYS47       0.2260
     21  O         26.3280    6.7130   -1.1560 O.2    47  LYS47      -0.2867
     22  CB        23.1550    6.5000   -0.1090 C.3    47  LYS47       0.0271
     23  CG        22.1720    6.4740    1.0490 C.3    47  LYS47       0.0035
     24  CD        20.8080    7.0280    0.7000 C.3    47  LYS47       0.0206
     25  CE        19.9540    7.1000    1.9640 C.3    47  LYS47       0.1093
     26  NZ        18.6310    7.7470    1.7710 N.3    47  LYS47      -0.1314
     27  N         24.3030    3.8750    6.8710 N.3    80  HIS80      -0.1241
     28  CA        23.0490    3.5400    6.2260 C.3    80  HIS80       0.1621
     29  C         23.1220    3.0570    4.7810 C.2    80  HIS80       0.2264
     30  O         23.7380    3.6660    3.9140 O.2    80  HIS80      -0.2867
     31  CB        22.0630    4.7080    6.3550 C.3    80  HIS80       0.0745
     32  CG        20.7340    4.4540    5.7140 C.ar   80  HIS80       0.0817
     33  ND1       19.9690    3.3400    5.9910 N.ar   80  HIS80      -0.2268
     34  CD2       20.0320    5.1710    4.8040 C.ar   80  HIS80       0.1154
     35  CE1       18.8580    3.3790    5.2820 C.ar   80  HIS80       0.1986
     36  NE2       18.8700    4.4840    4.5510 N.ar   80  HIS80      -0.2212
     37  N         20.9250   -1.3570   -1.7540 N.3    84  TRP84      -0.1227
     38  CA        19.5410   -0.8950   -1.8210 C.3    84  TRP84       0.1737
     39  C         19.1960   -0.6310   -3.2850 C.2    84  TRP84       0.2595
     40  O         20.0660   -0.2600   -4.0640 O.2    84  TRP84      -0.2718
     41  CB        19.4340    0.3870   -0.9930 C.3    84  TRP84       0.0564
     42  CG        18.0700    0.9490   -0.8590 C.ar   84  TRP84       0.0003
     43  CD1       16.8950    0.2570   -0.8500 C.ar   84  TRP84       0.0946
     44  CD2       17.7300    2.3220   -0.6380 C.ar   84  TRP84       0.0152
     45  NE1       15.8440    1.1130   -0.6370 N.ar   84  TRP84      -0.2442
     46  CE2       16.3280    2.3870   -0.5040 C.ar   84  TRP84       0.0810
     47  CE3       18.4780    3.5040   -0.5410 C.ar   84  TRP84       0.0012
     48  CZ2       15.6510    3.5900   -0.2730 C.ar   84  TRP84       0.0191
     49  CZ3       17.8040    4.6990   -0.3100 C.ar   84  TRP84       0.0001
     50  CH2       16.4040    4.7300   -0.1810 C.ar   84  TRP84       0.0015
     51  N         17.9380   -0.8280   -3.6660 N.am   85  HIS85      -0.1961
     52  CA        17.5520   -0.6110   -5.0560 C.3    85  HIS85       0.1787
     53  C         17.4890    0.8740   -5.4240 C.2    85  HIS85       0.2620
     54  O         17.4330    1.2220   -6.6050 O.2    85  HIS85      -0.2715
     55  CB        16.2070   -1.2850   -5.3620 C.3    85  HIS85       0.0785
     56  CG        15.0680   -0.7550   -4.5530 C.ar   85  HIS85       0.0821
     57  ND1       14.8400   -1.1290   -3.2450 N.ar   85  HIS85      -0.2267
     58  CD2       14.1190    0.1620   -4.8500 C.ar   85  HIS85       0.1154
     59  CE1       13.8040   -0.4650   -2.7740 C.ar   85  HIS85       0.1986
     60  NE2       13.3460    0.3270   -3.7280 N.ar   85  HIS85      -0.2212
     61  N         17.4950    1.7490   -4.4210 N.am   86  ASN86      -0.1958
     62  CA        17.4660    3.1870   -4.6680 C.3    86  ASN86       0.1819
     63  C         18.8100    3.8480   -4.3580 C.2    86  ASN86       0.2621
     64  O         19.6930    3.2360   -3.7610 O.2    86  ASN86      -0.2715
     65  CB        16.3620    3.8440   -3.8310 C.3    86  ASN86       0.1195
     66  CG        14.9840    3.6260   -4.4090 C.2    86  ASN86       0.2630
     67  OD1       13.9810    3.7540   -3.7080 O.2    86  ASN86      -0.2716
     68  ND2       14.9230    3.2930   -5.6920 N.am   86  ASN86      -0.0877
     69  N         18.9400    5.0990   -4.7820 N.am   87  GLN87      -0.1977
     70  CA        20.1310    5.9000   -4.5800 C.3    87  GLN87       0.1601
     71  C         21.4440    5.1820   -4.8900 C.2    87  GLN87       0.2287
     72  O         22.4760    5.4170   -4.2570 O.2    87  GLN87      -0.2864
     73  CB        20.1180    6.5000   -3.1640 C.3    87  GLN87       0.0394
     74  CG        19.1060    7.6580   -3.0610 C.3    87  GLN87       0.0908
     75  CD        18.9800    8.2690   -1.6810 C.2    87  GLN87       0.2608
     76  OE1       18.1280    7.8700   -0.8860 O.2    87  GLN87      -0.2717
     77  NE2       19.8410    9.2320   -1.3830 N.am   87  GLN87      -0.0878
     78  N         18.8790   -2.8650    2.5170 N.3   132  ASN132     -0.1225
     79  CA        17.7180   -2.0350    2.7840 C.3   132  ASN132      0.1785
     80  C         16.5550   -2.3470    1.8440 C.2   132  ASN132      0.2597
     81  O         16.7220   -2.4200    0.6260 O.2   132  ASN132     -0.2718
     82  CB        18.1230   -0.5580    2.6380 C.3   132  ASN132      0.1169
     83  CG        17.1040    0.4110    3.2340 C.2   132  ASN132      0.2627
     84  OD1       16.5630    0.1750    4.3150 O.2   132  ASN132     -0.2716
     85  ND2       16.8730    1.5300    2.5460 N.am  132  ASN132     -0.0877
     86  N         15.3860   -2.5580    2.4380 N.am  133  GLU133     -0.1979
     87  CA        14.1450   -2.7850    1.7040 C.3   133  GLU133      0.1602
     88  C         14.1810   -3.8340    0.5830 C.2   133  GLU133      0.2287
     89  O         13.8550   -3.5400   -0.5710 O.2   133  GLU133     -0.2864
     90  CB        13.6820   -1.4330    1.1590 C.3   133  GLU133      0.0415
     91  CG        13.9150   -0.3010    2.1740 C.3   133  GLU133      0.1163
     92  CD        13.3510    1.0250    1.7140 C.2   133  GLU133      0.3649
     93  OE1       13.1280    1.1660    0.4980 O.co2 133  GLU133     -0.2457
     94  OE2       13.1630    1.9230    2.5540 O.co2 133  GLU133     -0.2457
     95  N         11.6840   -8.3100   -3.3500 N.3   144  ARG144     -0.1245
     96  CA        11.4650   -7.1880   -4.2490 C.3   144  ARG144      0.1563
     97  C         12.3220   -7.4070   -5.4910 C.2   144  ARG144      0.2260
     98  O         13.4930   -7.7880   -5.3950 O.2   144  ARG144     -0.2867
     99  CB        11.8560   -5.8660   -3.5750 C.3   144  ARG144      0.0307
    100  CG        11.5870   -4.6280   -4.4320 C.3   144  ARG144      0.0489
    101  CD        12.2680   -3.3870   -3.8530 C.3   144  ARG144      0.2205
    102  NE        11.7280   -3.0060   -2.5540 N.pl3 144  ARG144     -0.0865
    103  CZ        10.5550   -2.4060   -2.3740 C.cat 144  ARG144      0.5346
    104  NH1        9.7940   -2.1110   -3.4130 N.pl3 144  ARG144      0.1354
    105  NH2       10.1350   -2.1060   -1.1500 N.pl3 144  ARG144      0.1354
    106  N         10.8700   -1.0210    5.9000 N.3   178  TYR178     -0.1241
    107  CA         9.7110   -0.2550    6.3390 C.3   178  TYR178      0.1605
    108  C          8.4590   -1.1470    6.3040 C.2   178  TYR178      0.2264
    109  O          8.5110   -2.2820    5.8120 O.2   178  TYR178     -0.2867
    110  CB         9.5140    0.9890    5.4590 C.3   178  TYR178      0.0534
    111  CG         9.2360    0.6700    4.0100 C.ar  178  TYR178     -0.0201
    112  CD1       10.2710    0.3330    3.1380 C.ar  178  TYR178     -0.0009
    113  CD2        7.9260    0.6270    3.5320 C.ar  178  TYR178     -0.0009
    114  CE1       10.0090   -0.0490    1.8310 C.ar  178  TYR178      0.0417
    115  CE2        7.6510    0.2470    2.2270 C.ar  178  TYR178      0.0417
    116  CZ         8.6980   -0.0930    1.3840 C.ar  178  TYR178      0.1957
    117  OH         8.4310   -0.5180    0.1060 O.3   178  TYR178     -0.2866
    118  N         12.3490    0.6110   10.3980 N.3   209  GLN209     -0.1245
    119  CA        12.3750    2.0060    9.9600 C.3   209  GLN209      0.1566
    120  C         11.4770    2.9370   10.7580 C.2   209  GLN209      0.2260
    121  O         11.8890    4.0430   11.0920 O.2   209  GLN209     -0.2867
    122  CB        12.0810    2.1060    8.4560 C.3   209  GLN209      0.0367
    123  CG        13.3640    1.9920    7.5950 C.3   209  GLN209      0.0905
    124  CD        13.1020    2.1030    6.0940 C.2   209  GLN209      0.2608
    125  OE1       12.2810    2.9060    5.6570 O.2   209  GLN209     -0.2717
    126  NE2       13.8270    1.3160    5.3020 N.am  209  GLN209     -0.0878
    127  N          8.5910    4.4730    9.8490 N.3   211  HIS211     -0.1241
    128  CA         7.9820    5.5690    9.1140 C.3   211  HIS211      0.1621
    129  C          6.4860    5.3690    9.3110 C.2   211  HIS211      0.2264
    130  O          5.7910    4.7770    8.4820 O.2   211  HIS211     -0.2867
    131  CB         8.3860    5.5060    7.6370 C.3   211  HIS211      0.0745
    132  CG         9.8100    5.9100    7.3960 C.ar  211  HIS211      0.0817
    133  ND1       10.2940    7.1550    7.7350 N.ar  211  HIS211     -0.2268
    134  CD2       10.8550    5.2320    6.8640 C.ar  211  HIS211      0.1154
    135  CE1       11.5760    7.2290    7.4200 C.ar  211  HIS211      0.1986
    136  NE2       11.9410    6.0780    6.8910 N.ar  211  HIS211     -0.2212
    137  N         14.5960    4.8730   11.3930 N.3   240  GLU240     -0.1245
    138  CA        14.1540    6.0950   10.7330 C.3   240  GLU240      0.1567
    139  C         12.7850    6.5720   11.2260 C.2   240  GLU240      0.2260
    140  O         11.9080    6.9180   10.4240 O.2   240  GLU240     -0.2867
    141  CB        14.0860    5.8220    9.2340 C.3   240  GLU240      0.0388
    142  CG        15.3700    5.1780    8.7030 C.3   240  GLU240      0.1160
    143  CD        15.2530    4.7320    7.2590 C.2   240  GLU240      0.3649
    144  OE1       14.5080    5.3800    6.4840 O.co2 240  GLU240     -0.2457
    145  OE2       15.9390    3.7560    6.8870 O.co2 240  GLU240     -0.2457
    146  N         14.3030    9.9830   11.9380 N.3   290  TRP290     -0.1241
    147  CA        14.7700   10.3340   10.6000 C.3   290  TRP290      0.1605
    148  C         14.7520   11.8470   10.4070 C.2   290  TRP290      0.2264
    149  O         14.0840   12.3800    9.5170 O.2   290  TRP290     -0.2867
    150  CB        13.9080    9.6680    9.5380 C.3   290  TRP290      0.0550
    151  CG        14.6880    9.3370    8.3060 C.ar  290  TRP290      0.0003
    152  CD1       14.3350    9.6010    7.0210 C.ar  290  TRP290      0.0946
    153  CD2       15.9560    8.6610    8.2430 C.ar  290  TRP290      0.0152
    154  NE1       15.2990    9.1350    6.1550 N.ar  290  TRP290     -0.2442
    155  CE2       16.3050    8.5560    6.8800 C.ar  290  TRP290      0.0810
    156  CE3       16.8280    8.1320    9.2080 C.ar  290  TRP290      0.0012
    157  CZ2       17.4900    7.9520    6.4540 C.ar  290  TRP290      0.0191
    158  CZ3       18.0140    7.5230    8.7780 C.ar  290  TRP290      0.0001
    159  CH2       18.3270    7.4420    7.4140 C.ar  290  TRP290      0.0015
    160  N         12.4510   14.8410    5.2360 N.3   298  TRP298     -0.1241
    161  CA        12.3290   14.3190    3.8910 C.3   298  TRP298      0.1605
    162  C         10.8420   14.2220    3.5370 C.2   298  TRP298      0.2264
    163  O         10.4880   14.1840    2.3610 O.2   298  TRP298     -0.2867
    164  CB        12.9730   12.9400    3.7900 C.3   298  TRP298      0.0550
    165  CG        12.1630   11.8770    4.4300 C.ar  298  TRP298      0.0003
    166  CD1       11.9360   11.7080    5.7630 C.ar  298  TRP298      0.0946
    167  CD2       11.4520   10.8250    3.7630 C.ar  298  TRP298      0.0152
    168  NE1       11.1250   10.6100    5.9720 N.ar  298  TRP298     -0.2442
    169  CE2       10.8150   10.0540    4.7600 C.ar  298  TRP298      0.0810
    170  CE3       11.2960   10.4620    2.4190 C.ar  298  TRP298      0.0012
    171  CZ2       10.0300    8.9410    4.4560 C.ar  298  TRP298      0.0191
    172  CZ3       10.5130    9.3490    2.1170 C.ar  298  TRP298      0.0001
    173  CH2        9.8910    8.6050    3.1330 C.ar  298  TRP298      0.0015
    174  N          7.9720   14.2040    0.2360 N.3   302  PHE302     -0.1228
    175  CA         7.5380   12.8650   -0.0860 C.3   302  PHE302      0.1721
    176  C          6.4530   12.3970    0.8700 C.2   302  PHE302      0.2437
    177  O          6.5340   12.6250    2.0760 O.2   302  PHE302     -0.2733
    178  CB         8.7130   11.8870   -0.0260 C.3   302  PHE302      0.0547
    179  CG         8.4420   10.6060   -0.7390 C.ar  302  PHE302     -0.0202
    180  CD1        8.6800   10.4930   -2.1030 C.ar  302  PHE302     -0.0042
    181  CD2        7.8840    9.5320   -0.0660 C.ar  302  PHE302     -0.0042
    182  CE1        8.3570    9.3320   -2.7830 C.ar  302  PHE302     -0.0003
    183  CE2        7.5590    8.3710   -0.7420 C.ar  302  PHE302     -0.0003
    184  CZ         7.7970    8.2720   -2.0990 C.ar  302  PHE302     -0.0000
    185  N          5.3900   11.7750    0.3360 N.am  303  PRO303     -0.2729
    186  CA         5.2030   11.4530   -1.0830 C.3   303  PRO303      0.1401
    187  C          4.6490   12.6210   -1.9070 C.2   303  PRO303      0.2269
    188  O          4.4900   12.5030   -3.1250 O.2   303  PRO303     -0.2865
    189  CB         4.2260   10.2950   -1.0410 C.3   303  PRO303      0.0296
    190  CG         3.3330   10.6940    0.0930 C.3   303  PRO303      0.0237
    191  CD         4.3310   11.1460    1.1500 C.3   303  PRO303      0.0939
@<TRIPOS>BOND
     1    54    53    2
     2    68    66   am
     3    97    98    2
     4    97    96    1
     5    53    52    1
     6    53    61   am
     7    55    52    1
     8    55    56    1
     9    52    51    1
    10    71    70    1
    11    71    72    2
    12    58    56   ar
    13    58    60   ar
    14    69    70    1
    15    69    63   am
    16    62    61    1
    17    62    63    1
    18    62    65    1
    19    70    73    1
    20    56    57   ar
    21   100   101    1
    22   100    99    1
    23    66    65    1
    24    66    67    2
    25    63    64    2
    26    96    99    1
    27    96    95    1
    28    40    39    2
    29   101   102    1
    30    60    59   ar
    31    51    39   am
    32   104   103    1
    33    39    38    1
    34    57    59   ar
    35    73    74    1
    36   188   187    2
    37    74    75    1
    38   182   180   ar
    39   182   184   ar
    40   102   103    2
    41   103   105    1
    42   180   179   ar
    43   184   183   ar
    44   187   186    1
    45    38    37    1
    46    38    41    1
    47    75    77   am
    48    75    76    2
    49    21    20    2
    50   186   189    1
    51   186   185    1
    52   189   190    1
    53    41    42    1
    54    20    19    1
    55    42    43   ar
    56    42    44   ar
    57    43    45   ar
    58   183   181   ar
    59   179   181   ar
    60   179   178    1
    61    44    47   ar
    62    44    46   ar
    63    45    46   ar
    64    89    88    2
    65    47    49   ar
    66    46    48   ar
    67    49    50   ar
    68    48    50   ar
    69    22    19    1
    70    22    23    1
    71   175   178    1
    72   175   174    1
    73   175   176    1
    74   190   191    1
    75   117   116    1
    76    19    18    1
    77   185   176   am
    78   185   191    1
    79    93    92   ar
    80    88    87    1
    81    81    80    2
    82    24    23    1
    83    24    25    1
    84   176   177    2
    85    16    15    2
    86    90    87    1
    87    90    91    1
    88    13    12    2
    89   116   114   ar
    90   116   115   ar
    91    15    14    1
    92    15    17   am
    93    14    11    1
    94    87    86    1
    95    92    91    1
    96    92    94   ar
    97    26    25    1
    98   114   112   ar
    99    80    86   am
   100    80    79    1
   101    12    11    1
   102   172   170   ar
   103   172   173   ar
   104   115   113   ar
   105   163   162    2
   106   170   167   ar
   107    11    10    1
   108    78    79    1
   109    85    83   am
   110    82    79    1
   111    82    83    1
   112   173   171   ar
   113   112   111   ar
   114    83    84    2
   115   113   111   ar
   116   162   161    1
   117   167   165   ar
   118   167   169   ar
   119   164   161    1
   120   164   165    1
   121    10     3   am
   122   161   160    1
   123    30    29    2
   124   111   110    1
   125     4     3    2
   126     9     7   ar
   127   165   166   ar
   128   171   169   ar
   129     3     2    1
   130    36    34   ar
   131    36    35   ar
   132   169   168   ar
   133    29    28    1
   134    34    32   ar
   135    35    33   ar
   136   126   124   am
   137     7     6    1
   138     7     8   ar
   139   110   107    1
   140     6     5    1
   141   125   124    2
   142    32    33   ar
   143    32    31    1
   144   166   168   ar
   145   109   108    2
   146     5     2    1
   147   106   107    1
   148     2     1    1
   149   124   123    1
   150   154   155   ar
   151   154   152   ar
   152    28    31    1
   153    28    27    1
   154   108   107    1
   155   157   155   ar
   156   157   159   ar
   157   144   143   ar
   158   134   136   ar
   159   134   132   ar
   160   155   153   ar
   161   145   143   ar
   162   136   135   ar
   163   152   151   ar
   164   143   142    1
   165   132   131    1
   166   132   133   ar
   167   159   158   ar
   168   135   133   ar
   169   123   122    1
   170   131   128    1
   171   153   151   ar
   172   153   156   ar
   173   151   150    1
   174   122   119    1
   175   130   129    2
   176   142   141    1
   177   158   156   ar
   178   128   129    1
   179   128   127    1
   180   141   138    1
   181   149   148    2
   182   150   147    1
   183   119   118    1
   184   119   120    1
   185   148   147    1
   186   140   139    2
   187   147   146    1
   188   138   139    1
   189   138   137    1
   190   120   121    2
