@<TRIPOS>MOLECULE
tmp/3en1A01.pdb
 149 143 0 0 0
SMALL
GASTEIGER

@<TRIPOS>ATOM
      1  N         48.6470  129.5180  197.5300 N.3   201  GLN201     -0.1231
      2  CA        48.8110  128.3510  198.4000 C.3   201  GLN201      0.1698
      3  C         48.6930  127.0590  197.6080 C.2   201  GLN201      0.2592
      4  O         49.4620  126.1120  197.7870 O.2   201  GLN201     -0.2718
      5  CB        47.8020  128.3370  199.5400 C.3   201  GLN201      0.0381
      6  CG        48.0730  127.2350  200.5060 C.3   201  GLN201      0.0905
      7  CD        46.9350  126.9820  201.4630 C.2   201  GLN201      0.2608
      8  OE1       46.1620  126.0220  201.2930 O.2   201  GLN201     -0.2717
      9  NE2       46.8260  127.8290  202.4930 N.am  201  GLN201     -0.0878
     10  N         47.7240  127.0120  196.7140 N.am  202  PHE202     -0.1976
     11  CA        47.5260  125.7900  195.9780 C.3   202  PHE202      0.1639
     12  C         48.5890  125.6410  194.9000 C.2   202  PHE202      0.2290
     13  O         48.8860  124.5410  194.4640 O.2   202  PHE202     -0.2864
     14  CB        46.0860  125.6950  195.4690 C.3   202  PHE202      0.0560
     15  CG        45.1280  125.1540  196.4960 C.ar  202  PHE202     -0.0200
     16  CD1       44.9500  125.7990  197.7100 C.ar  202  PHE202     -0.0042
     17  CD2       44.4250  123.9820  196.2600 C.ar  202  PHE202     -0.0042
     18  CE1       44.0780  125.2790  198.6530 C.ar  202  PHE202     -0.0003
     19  CE2       43.5480  123.4620  197.2110 C.ar  202  PHE202     -0.0003
     20  CZ        43.3720  124.1020  198.3940 C.ar  202  PHE202     -0.0000
     21  N         52.3800  125.9600  197.9400 N.3   205  ASP205     -0.1225
     22  CA        52.5540  126.0020  199.3870 C.3   205  ASP205      0.1805
     23  C         52.4000  124.6560  200.0690 C.2   205  ASP205      0.2597
     24  O         51.5350  124.5130  200.9320 O.2   205  ASP205     -0.2718
     25  CB        51.5540  126.9840  199.9920 C.3   205  ASP205      0.1424
     26  CG        51.9480  127.4660  201.3620 C.2   205  ASP205      0.3668
     27  OD1       52.7440  126.7840  202.0460 O.co2 205  ASP205     -0.2456
     28  OD2       51.4450  128.5500  201.7490 O.co2 205  ASP205     -0.2456
     29  N         53.2380  123.6800  199.7040 N.am  206  MET206     -0.1979
     30  CA        53.2850  122.3990  200.4300 C.3   206  MET206      0.1605
     31  C         53.7680  122.6370  201.8540 C.2   206  MET206      0.2287
     32  O         53.2700  121.9990  202.7980 O.2   206  MET206     -0.2864
     33  CB        54.1770  121.3650  199.7290 C.3   206  MET206      0.0413
     34  CG        54.1250  119.9660  200.3600 C.3   206  MET206      0.0598
     35  SD        52.6070  119.0080  200.0590 S.3   206  MET206     -0.1393
     36  CE        52.7330  118.6890  198.2890 C.3   206  MET206      0.0692
     37  N         53.0790  124.7440  204.1070 N.3   208  HIS208     -0.1226
     38  CA        52.0860  124.9300  205.1630 C.3   208  HIS208      0.1752
     39  C         51.5110  123.6240  205.6610 C.2   208  HIS208      0.2595
     40  O         51.2820  123.4860  206.8440 O.2   208  HIS208     -0.2718
     41  CB        50.9850  125.9200  204.7650 C.3   208  HIS208      0.0759
     42  CG        49.7920  125.2820  204.1250 C.ar  208  HIS208      0.0818
     43  ND1       49.8340  124.7170  202.8710 N.ar  208  HIS208     -0.2268
     44  CD2       48.5220  125.1280  204.5650 C.ar  208  HIS208      0.1154
     45  CE1       48.6450  124.2270  202.5730 C.ar  208  HIS208      0.1986
     46  NE2       47.8270  124.4730  203.5790 N.ar  208  HIS208     -0.2212
     47  N         51.3000  122.6570  204.7710 N.am  209  ALA209     -0.1980
     48  CA        50.7410  121.3550  205.1750 C.3   209  ALA209      0.1597
     49  C         51.7530  120.5880  206.0310 C.2   209  ALA209      0.2287
     50  O         51.4040  120.0260  207.0930 O.2   209  ALA209     -0.2864
     51  CB        50.3270  120.5390  203.9640 C.3   209  ALA209      0.0319
     52  N         48.2840  122.5560  209.6140 N.3   214  HIS214     -0.1241
     53  CA        47.2900  121.4810  209.6110 C.3   214  HIS214      0.1621
     54  C         47.6510  120.3380  210.5610 C.2   214  HIS214      0.2264
     55  O         47.2410  119.1890  210.3580 O.2   214  HIS214     -0.2867
     56  CB        47.0610  120.9550  208.1810 C.3   214  HIS214      0.0745
     57  CG        46.4320  121.9580  207.2560 C.ar  214  HIS214      0.0817
     58  ND1       45.1300  122.3880  207.3980 N.ar  214  HIS214     -0.2268
     59  CD2       46.9230  122.6070  206.1710 C.ar  214  HIS214      0.1154
     60  CE1       44.8480  123.2550  206.4420 C.ar  214  HIS214      0.1986
     61  NE2       45.9180  123.4090  205.6860 N.ar  214  HIS214     -0.2212
     62  N         51.1230  111.2540  204.6430 N.3   256  LEU256     -0.1245
     63  CA        50.1410  112.3390  204.5780 C.3   256  LEU256      0.1561
     64  C         48.8460  111.9100  203.8760 C.2   256  LEU256      0.2260
     65  O         47.7550  112.2530  204.3420 O.2   256  LEU256     -0.2867
     66  CB        50.7090  113.6280  203.9730 C.3   256  LEU256      0.0270
     67  CG        49.7390  114.8250  204.0280 C.3   256  LEU256      0.0019
     68  CD1       49.4630  115.2800  205.4470 C.3   256  LEU256      0.0001
     69  CD2       50.2300  115.9840  203.1990 C.3   256  LEU256      0.0001
     70  N         44.8460  112.0070  205.4410 N.3   260  ILE260     -0.1245
     71  CA        43.8110  112.7910  204.8090 C.3   260  ILE260      0.1561
     72  C         42.7550  111.8670  204.2520 C.2   260  ILE260      0.2260
     73  O         41.6210  111.9350  204.6660 O.2   260  ILE260     -0.2867
     74  CB        44.3970  113.6930  203.7020 C.3   260  ILE260      0.0252
     75  CG1       45.4240  114.6670  204.2950 C.3   260  ILE260      0.0019
     76  CG2       43.2990  114.4460  202.9710 C.3   260  ILE260      0.0019
     77  CD1       46.1350  115.5200  203.2750 C.3   260  ILE260      0.0001
     78  N         50.5470  113.3690  198.0290 N.3   293  VAL293     -0.1231
     79  CA        49.4600  114.3200  197.8270 C.3   293  VAL293      0.1692
     80  C         49.5130  114.9570  196.4590 C.2   293  VAL293      0.2592
     81  O         48.9760  114.3710  195.5330 O.2   293  VAL293     -0.2718
     82  CB        48.9820  115.1830  199.0200 C.3   293  VAL293      0.0266
     83  CG1       48.6070  114.2960  200.1980 C.3   293  VAL293      0.0020
     84  CG2       49.9990  116.2190  199.4010 C.3   293  VAL293      0.0020
     85  N         50.2060  116.0660  196.2840 N.am  294  GLU294     -0.1966
     86  CA        50.0190  116.9330  195.0910 C.3   294  GLU294      0.1733
     87  C         48.9130  117.9580  195.2450 C.2   294  GLU294      0.2616
     88  O         47.7660  117.6350  195.5300 O.2   294  GLU294     -0.2715
     89  CB        49.8830  116.2220  193.7300 C.3   294  GLU294      0.0429
     90  CG        50.1770  117.1880  192.5530 C.3   294  GLU294      0.1163
     91  CD        50.2650  116.5290  191.1710 C.2   294  GLU294      0.3649
     92  OE1       50.0360  115.2940  191.0760 O.co2 294  GLU294     -0.2457
     93  OE2       50.5610  117.2530  190.1800 O.co2 294  GLU294     -0.2457
     94  N         49.3400  119.2040  195.0590 N.am  295  HIS295     -0.1973
     95  CA        48.5160  120.3810  194.9970 C.3   295  HIS295      0.1656
     96  C         48.8570  121.0680  193.6860 C.2   295  HIS295      0.2291
     97  O         49.9540  120.8940  193.1490 O.2   295  HIS295     -0.2864
     98  CB        48.8550  121.3110  196.1550 C.3   295  HIS295      0.0771
     99  CG        50.2560  121.8480  196.1190 C.ar  295  HIS295      0.0820
    100  ND1       51.2180  121.4750  197.0340 N.ar  295  HIS295     -0.2267
    101  CD2       50.8510  122.7420  195.2920 C.ar  295  HIS295      0.1154
    102  CE1       52.3430  122.1170  196.7730 C.ar  295  HIS295      0.1986
    103  NE2       52.1470  122.8900  195.7190 N.ar  295  HIS295     -0.2212
    104  N         43.6450  119.2460  194.2180 N.3   305  LEU305     -0.1245
    105  CA        44.6110  118.4180  194.8920 C.3   305  LEU305      0.1561
    106  C         44.4890  116.9610  194.4310 C.2   305  LEU305      0.2260
    107  O         43.7900  116.1650  195.0990 O.2   305  LEU305     -0.2867
    108  CB        44.3440  118.4670  196.3900 C.3   305  LEU305      0.0270
    109  CG        44.2650  119.8110  197.0970 C.3   305  LEU305      0.0019
    110  CD1       44.2470  119.5480  198.5840 C.3   305  LEU305      0.0001
    111  CD2       45.4440  120.6920  196.7450 C.3   305  LEU305      0.0001
    112  N         43.6100  113.7620  196.5960 N.3   308  ILE308     -0.1245
    113  CA        42.5180  114.1450  197.4970 C.3   308  ILE308      0.1561
    114  C         41.2950  114.3620  196.6120 C.2   308  ILE308      0.2260
    115  O         40.1930  113.8940  196.9110 O.2   308  ILE308     -0.2867
    116  CB        42.8930  115.4260  198.3090 C.3   308  ILE308      0.0252
    117  CG1       44.0220  115.0830  199.2900 C.3   308  ILE308      0.0019
    118  CG2       41.6570  116.0610  199.0120 C.3   308  ILE308      0.0019
    119  CD1       44.7140  116.2750  199.9020 C.3   308  ILE308      0.0001
    120  N         38.7910  118.7770  203.1580 N.3   350  PHE350     -0.1241
    121  CA        38.9310  120.0180  202.4200 C.3   350  PHE350      0.1605
    122  C         37.6580  120.7470  202.0790 C.2   350  PHE350      0.2264
    123  O         37.4520  121.1490  200.9490 O.2   350  PHE350     -0.2867
    124  CB        39.7940  119.7910  201.2120 C.3   350  PHE350      0.0534
    125  CG        41.2120  119.6720  201.5760 C.ar  350  PHE350     -0.0203
    126  CD1       42.0440  120.7880  201.5290 C.ar  350  PHE350     -0.0042
    127  CD2       41.7070  118.4670  202.0780 C.ar  350  PHE350     -0.0042
    128  CE1       43.3590  120.6920  201.9170 C.ar  350  PHE350     -0.0003
    129  CE2       43.0220  118.3530  202.4670 C.ar  350  PHE350     -0.0003
    130  CZ        43.8540  119.4700  202.3890 C.ar  350  PHE350     -0.0000
    131  N         40.6420  120.1650  207.6760 N.3   356  PHE356     -0.1241
    132  CA        41.7750  120.8970  207.1450 C.3   356  PHE356      0.1605
    133  C         41.3750  122.3090  206.7940 C.2   356  PHE356      0.2264
    134  O         41.9170  123.2740  207.3300 O.2   356  PHE356     -0.2867
    135  CB        42.3640  120.1930  205.9260 C.3   356  PHE356      0.0534
    136  CG        43.2270  119.0380  206.2780 C.ar  356  PHE356     -0.0203
    137  CD1       42.6750  117.8820  206.8180 C.ar  356  PHE356     -0.0042
    138  CD2       44.5930  119.1060  206.0990 C.ar  356  PHE356     -0.0042
    139  CE1       43.4760  116.8000  207.1610 C.ar  356  PHE356     -0.0003
    140  CE2       45.4010  118.0370  206.4440 C.ar  356  PHE356     -0.0003
    141  CZ        44.8380  116.8750  206.9790 C.ar  356  PHE356     -0.0000
    142  N         42.4730  126.8400  207.2850 N.3   360  ASP360     -0.1239
    143  CA        42.9550  127.7810  206.2770 C.3   360  ASP360      0.1674
    144  C         42.0530  129.0230  206.2950 C.2   360  ASP360      0.2266
    145  O         42.5380  130.1630  206.1990 O.2   360  ASP360     -0.2867
    146  CB        42.9990  127.1520  204.8810 C.3   360  ASP360      0.1410
    147  CG        44.0070  126.0130  204.7720 C.2   360  ASP360      0.3668
    148  OD1       43.5700  124.8960  204.4390 O.co2 360  ASP360     -0.2456
    149  OD2       45.2270  126.2140  205.0000 O.co2 360  ASP360     -0.2456
@<TRIPOS>BOND
     1    93    91   ar
     2    92    91   ar
     3    91    90    1
     4    90    89    1
     5    97    96    2
     6    96    95    1
     7    89    86    1
     8   104   105    1
     9   106   105    1
    10   106   107    2
    11    13    12    2
    12   105   108    1
    13    12    11    1
    14    95    94    1
    15    95    98    1
    16    94    87   am
    17    86    87    1
    18    86    85    1
    19    87    88    2
    20   101   103   ar
    21   101    99   ar
    22    14    11    1
    23    14    15    1
    24    81    80    2
    25   103   102   ar
    26    11    10    1
    27    99    98    1
    28    99   100   ar
    29    17    15   ar
    30    17    19   ar
    31    85    80   am
    32   108   109    1
    33    80    79    1
    34    15    16   ar
    35   112   113    1
    36   114   115    2
    37   114   113    1
    38    10     3   am
    39   111   109    1
    40   102   100   ar
    41   109   110    1
    42    19    20   ar
    43   113   116    1
    44     1     2    1
    45     3     4    2
    46     3     2    1
    47    16    18   ar
    48    79    78    1
    49    79    82    1
    50    21    22    1
    51    36    35    1
    52   116   118    1
    53   116   117    1
    54    20    18   ar
    55     2     5    1
    56    82    84    1
    57    82    83    1
    58   117   119    1
    59    22    25    1
    60    22    23    1
    61     5     6    1
    62    29    23   am
    63    29    30    1
    64    33    34    1
    65    33    30    1
    66    25    26    1
    67    35    34    1
    68    23    24    2
    69    30    31    1
    70     6     7    1
    71   123   122    2
    72   124   125    1
    73   124   121    1
    74     8     7    2
    75    26    28   ar
    76    26    27   ar
    77     7     9   am
    78   126   125   ar
    79   126   128   ar
    80   125   127   ar
    81    31    32    2
    82   128   130   ar
    83   127   129   ar
    84   122   121    1
    85   130   129   ar
    86   121   120    1
    87    45    43   ar
    88    45    46   ar
    89    43    42   ar
    90    76    74    1
    91    69    67    1
    92    77    75    1
    93    46    44   ar
    94    74    75    1
    95    74    71    1
    96    64    65    2
    97    64    63    1
    98    51    48    1
    99    66    67    1
   100    66    63    1
   101    67    68    1
   102    37    38    1
   103    42    44   ar
   104    42    41    1
   105    72    73    2
   106    72    71    1
   107   148   147   ar
   108    63    62    1
   109    41    38    1
   110    47    48    1
   111    47    39   am
   112   147   146    1
   113   147   149   ar
   114    71    70    1
   115   146   143    1
   116    38    39    1
   117    48    49    1
   118    39    40    2
   119    61    59   ar
   120    61    60   ar
   121   135   136    1
   122   135   132    1
   123    49    50    2
   124   138   136   ar
   125   138   140   ar
   126    59    57   ar
   127   145   144    2
   128   143   144    1
   129   143   142    1
   130   136   137   ar
   131    60    58   ar
   132   140   141   ar
   133   133   132    1
   134   133   134    2
   135   137   139   ar
   136   141   139   ar
   137   132   131    1
   138    57    58   ar
   139    57    56    1
   140    56    53    1
   141    53    52    1
   142    53    54    1
   143    55    54    2
