@<TRIPOS>MOLECULE
tmp/3en4B00.pdb
 145 132 0 0 0
SMALL
GASTEIGER

@<TRIPOS>ATOM
      1  N          0.4450  -45.2670   33.3270 N.3    17  LEU17      -0.1231
      2  CA         0.2930  -44.6020   32.0310 C.3    17  LEU17       0.1693
      3  C          1.4520  -44.9180   31.0750 C.2    17  LEU17       0.2592
      4  O          1.2410  -45.1510   29.8840 O.2    17  LEU17      -0.2718
      5  CB         0.1200  -43.0880   32.2080 C.3    17  LEU17       0.0284
      6  CG        -1.1030  -42.5840   32.9850 C.3    17  LEU17       0.0019
      7  CD1       -0.9410  -41.1120   33.3080 C.3    17  LEU17       0.0001
      8  CD2       -2.4100  -42.8200   32.2380 C.3    17  LEU17       0.0001
      9  N          2.6690  -44.9280   31.6070 N.am   18  GLY18      -0.1957
     10  CA         3.8570  -45.2340   30.8260 C.3    18  GLY18       0.1869
     11  C          4.8520  -46.0400   31.6290 C.2    18  GLY18       0.2309
     12  O          4.7670  -46.1130   32.8590 O.2    18  GLY18      -0.2863
     13  N          5.2010  -43.7820   34.7550 N.3    25  VAL25      -0.1245
     14  CA         4.3260  -42.6360   34.9660 C.3    25  VAL25       0.1561
     15  C          2.9080  -43.1090   35.2690 C.2    25  VAL25       0.2260
     16  O          2.2820  -43.8020   34.4740 O.2    25  VAL25      -0.2867
     17  CB         4.3350  -41.6360   33.7710 C.3    25  VAL25       0.0252
     18  CG1        3.2840  -40.5460   33.9790 C.3    25  VAL25       0.0019
     19  CG2        5.7080  -40.9780   33.6110 C.3    25  VAL25       0.0019
     20  N         -0.4540  -36.3800   37.6880 N.3    37  ALA37      -0.1245
     21  CA         0.4040  -37.4090   37.1170 C.3    37  ALA37       0.1562
     22  C          1.6180  -37.5810   38.0290 C.2    37  ALA37       0.2260
     23  O          2.0390  -36.6290   38.6930 O.2    37  ALA37      -0.2867
     24  CB         0.8270  -37.0410   35.7180 C.3    37  ALA37       0.0290
     25  N          5.4990  -39.2390   37.9460 N.3    39  LYS39      -0.1245
     26  CA         6.6870  -39.8990   37.4360 C.3    39  LYS39       0.1561
     27  C          7.4610  -40.5320   38.5840 C.2    39  LYS39       0.2260
     28  O          7.8730  -39.8410   39.5200 O.2    39  LYS39      -0.2867
     29  CB         7.5810  -38.9000   36.7190 C.3    39  LYS39       0.0271
     30  CG         8.6600  -39.5330   35.8620 C.3    39  LYS39       0.0035
     31  CD         9.5540  -38.4620   35.2900 C.3    39  LYS39       0.0206
     32  CE        10.0550  -38.8360   33.9140 C.3    39  LYS39       0.1093
     33  NZ        10.0010  -37.6290   33.0550 N.3    39  LYS39      -0.1314
     34  N         15.4400  -33.0070   36.9620 N.3    54  GLU54      -0.1245
     35  CA        14.2620  -32.6250   36.1820 C.3    54  GLU54       0.1567
     36  C         13.3050  -31.7700   37.0100 C.2    54  GLU54       0.2260
     37  O         12.7500  -30.7850   36.5080 O.2    54  GLU54      -0.2867
     38  CB        13.5210  -33.8470   35.6500 C.3    54  GLU54       0.0388
     39  CG        12.4250  -33.4490   34.6930 C.3    54  GLU54       0.1160
     40  CD        11.5440  -34.5820   34.2480 C.2    54  GLU54       0.3649
     41  OE1       10.6330  -34.2970   33.4340 O.co2  54  GLU54      -0.2457
     42  OE2       11.7500  -35.7370   34.6970 O.co2  54  GLU54      -0.2457
     43  N         12.1440  -28.0090   36.7190 N.3    58  MET58      -0.1245
     44  CA        10.7040  -27.6990   36.6770 C.3    58  MET58       0.1570
     45  C         10.2390  -26.6970   37.7280 C.2    58  MET58       0.2261
     46  O          9.2350  -26.0080   37.5160 O.2    58  MET58      -0.2867
     47  CB         9.8590  -28.9620   36.7610 C.3    58  MET58       0.0387
     48  CG         9.9180  -29.8000   35.5160 C.3    58  MET58       0.0595
     49  SD         8.7990  -31.1940   35.6280 S.3    58  MET58      -0.1393
     50  CE         9.7500  -32.3130   36.6490 C.3    58  MET58       0.0692
     51  N          4.4010  -28.2920   31.1440 N.3    67  VAL67      -0.1245
     52  CA         3.7160  -29.0970   32.1710 C.3    67  VAL67       0.1561
     53  C          4.1820  -28.6380   33.5460 C.2    67  VAL67       0.2260
     54  O          5.3610  -28.4310   33.7560 O.2    67  VAL67      -0.2867
     55  CB         3.9550  -30.6430   31.9910 C.3    67  VAL67       0.0252
     56  CG1        3.3280  -31.4210   33.1170 C.3    67  VAL67       0.0019
     57  CG2        3.3610  -31.1080   30.6930 C.3    67  VAL67       0.0019
     58  N          8.0310  -37.4950   41.1510 N.3    80  ILE80      -0.1245
     59  CA         7.8160  -36.1460   40.6950 C.3    80  ILE80       0.1561
     60  C          6.3480  -36.0530   40.3000 C.2    80  ILE80       0.2260
     61  O          5.8660  -36.8080   39.4570 O.2    80  ILE80      -0.2867
     62  CB         8.7560  -35.7430   39.5420 C.3    80  ILE80       0.0252
     63  CG1       10.2230  -35.9370   39.9420 C.3    80  ILE80       0.0019
     64  CG2        8.5320  -34.2950   39.1880 C.3    80  ILE80       0.0019
     65  CD1       11.2080  -35.9780   38.7700 C.3    80  ILE80       0.0001
     66  N          3.0610  -33.9280   38.9510 N.3    82  THR82      -0.1203
     67  CA         2.7710  -32.8220   38.0560 C.3    82  THR82       0.1994
     68  C          1.3030  -32.7620   37.7010 C.2    82  THR82       0.2618
     69  O          0.5220  -33.6680   38.0140 O.2    82  THR82      -0.2717
     70  CB         3.5700  -32.9220   36.7200 C.3    82  THR82       0.1784
     71  OG1        3.0750  -34.0210   35.9480 O.3    82  THR82      -0.2211
     72  CG2        5.0760  -33.1070   36.9640 C.3    82  THR82       0.0376
     73  N          0.9540  -31.6570   37.0560 N.am   83  GLU83      -0.1965
     74  CA        -0.2650  -31.4850   36.2820 C.3    83  GLU83       0.1733
     75  C         -0.5400  -32.7100   35.4130 C.2    83  GLU83       0.2616
     76  O          0.3860  -33.3310   34.8930 O.2    83  GLU83      -0.2715
     77  CB        -0.0450  -30.2630   35.4020 C.3    83  GLU83       0.0429
     78  CG        -1.1160  -29.9430   34.4090 C.3    83  GLU83       0.1163
     79  CD        -0.7590  -28.7330   33.5670 C.2    83  GLU83       0.3649
     80  OE1        0.4030  -28.2680   33.5840 O.co2  83  GLU83      -0.2457
     81  OE2       -1.6560  -28.2370   32.8770 O.co2  83  GLU83      -0.2457
     82  N         -1.8090  -33.0590   35.2540 N.am   84  TYR84      -0.1960
     83  CA        -2.1690  -34.2490   34.5060 C.3    84  TYR84       0.1771
     84  C         -2.7530  -33.9050   33.1460 C.2    84  TYR84       0.2619
     85  O         -3.7780  -33.2090   33.0530 O.2    84  TYR84      -0.2715
     86  CB        -3.1220  -35.1480   35.3010 C.3    84  TYR84       0.0574
     87  CG        -3.7730  -36.2000   34.4550 C.ar   84  TYR84      -0.0198
     88  CD1       -3.0960  -37.3780   34.1250 C.ar   84  TYR84      -0.0009
     89  CD2       -5.0600  -36.0130   33.9540 C.ar   84  TYR84      -0.0009
     90  CE1       -3.7020  -38.3620   33.3180 C.ar   84  TYR84       0.0417
     91  CE2       -5.6720  -36.9760   33.1610 C.ar   84  TYR84       0.0417
     92  CZ        -4.9880  -38.1450   32.8450 C.ar   84  TYR84       0.1957
     93  OH        -5.5980  -39.0810   32.0580 O.3    84  TYR84      -0.2866
     94  N         -2.1000  -34.4230   32.1050 N.am   85  MET85      -0.1977
     95  CA        -2.4540  -34.1410   30.7270 C.3    85  MET85       0.1605
     96  C         -3.2140  -35.3080   30.0970 C.2    85  MET85       0.2287
     97  O         -2.6430  -36.3790   29.8190 O.2    85  MET85      -0.2864
     98  CB        -1.1960  -33.8070   29.9280 C.3    85  MET85       0.0413
     99  CG        -0.4440  -32.5830   30.4790 C.3    85  MET85       0.0598
    100  SD        -1.3930  -31.0450   30.3360 S.3    85  MET85      -0.1393
    101  CE        -1.4160  -30.8100   28.5470 C.3    85  MET85       0.0692
    102  N         -2.2640  -37.8340   26.6540 N.3    88  GLY88      -0.1210
    103  CA        -0.9890  -38.5230   26.5100 C.3    88  GLY88       0.1956
    104  C          0.0030  -37.7720   25.6460 C.2    88  GLY88       0.2612
    105  O         -0.1830  -36.5790   25.3600 O.2    88  GLY88      -0.2717
    106  N          1.0600  -38.4670   25.2300 N.am   89  SER89      -0.1952
    107  CA         2.0740  -37.8830   24.3580 C.3    89  SER89       0.1924
    108  C          1.4780  -37.4010   23.0270 C.2    89  SER89       0.2314
    109  O          0.5350  -37.9900   22.5130 O.2    89  SER89      -0.2863
    110  CB         3.1940  -38.8890   24.0900 C.3    89  SER89       0.2116
    111  OG         2.8170  -39.8170   23.0890 O.3    89  SER89      -0.2180
    112  N          1.6300  -40.1590   20.3820 N.3    92  ASP92      -0.1239
    113  CA         0.4900  -41.1040   20.3890 C.3    92  ASP92       0.1674
    114  C         -0.7710  -40.4510   19.8410 C.2    92  ASP92       0.2266
    115  O         -1.5120  -41.0610   19.1080 O.2    92  ASP92      -0.2867
    116  CB         0.2680  -41.7180   21.7690 C.3    92  ASP92       0.1410
    117  CG         1.5030  -42.4560   22.2880 C.2    92  ASP92       0.3668
    118  OD1        2.3910  -42.8190   21.4730 O.co2  92  ASP92      -0.2456
    119  OD2        1.5990  -42.6750   23.5230 O.co2  92  ASP92      -0.2456
    120  N          7.2610  -37.0020   21.2010 N.3   134  ALA134     -0.1245
    121  CA         7.0580  -38.0030   22.2800 C.3   134  ALA134      0.1562
    122  C          7.1710  -37.3340   23.6470 C.2   134  ALA134      0.2260
    123  O          6.7190  -37.8790   24.6540 O.2   134  ALA134     -0.2867
    124  CB         8.0410  -39.1870   22.1670 C.3   134  ALA134      0.0290
    125  N          3.1000  -33.0930   25.6360 N.3   137  LEU137     -0.1245
    126  CA         1.8340  -33.6530   26.1520 C.3   137  LEU137      0.1561
    127  C          0.5840  -32.8950   25.6640 C.2   137  LEU137      0.2260
    128  O          0.6160  -31.6750   25.4540 O.2   137  LEU137     -0.2867
    129  CB         1.8580  -33.7060   27.6790 C.3   137  LEU137      0.0270
    130  CG         2.7920  -34.7030   28.3650 C.3   137  LEU137      0.0019
    131  CD1        2.9930  -34.2700   29.7660 C.3   137  LEU137      0.0001
    132  CD2        2.2240  -36.1050   28.3670 C.3   137  LEU137      0.0001
    133  N          7.1200  -31.1280   27.9730 N.3   147  ALA147     -0.1231
    134  CA         7.2650  -32.0260   29.1210 C.3   147  ALA147      0.1694
    135  C          8.6600  -32.6630   29.1140 C.2   147  ALA147      0.2592
    136  O          9.5060  -32.2510   28.3420 O.2   147  ALA147     -0.2718
    137  CB         6.1630  -33.0800   29.0910 C.3   147  ALA147      0.0304
    138  N          8.8850  -33.6030   30.0300 N.am  148  ASP148     -0.1974
    139  CA        10.1380  -34.3640   30.1470 C.3   148  ASP148      0.1709
    140  C         11.4040  -33.5190   30.0870 C.2   148  ASP148      0.2293
    141  O         12.1060  -33.5040   29.0790 O.2   148  ASP148     -0.2864
    142  CB        10.1650  -35.4900   29.1090 C.3   148  ASP148      0.1436
    143  CG         9.0300  -36.4800   29.3130 C.2   148  ASP148      0.3671
    144  OD1        9.0240  -37.1520   30.3690 O.co2 148  ASP148     -0.2456
    145  OD2        8.1390  -36.5650   28.4330 O.co2 148  ASP148     -0.2456
@<TRIPOS>BOND
     1   115   114    2
     2   114   113    1
     3   112   113    1
     4   113   116    1
     5   120   121    1
     6   118   117   ar
     7   116   117    1
     8   124   121    1
     9   121   122    1
    10   117   119   ar
    11   109   108    2
    12   108   107    1
    13   111   110    1
    14   122   123    2
    15   110   107    1
    16   107   106    1
    17   106   104   am
    18   105   104    2
    19   128   127    2
    20   125   126    1
    21   104   103    1
    22   127   126    1
    23   126   129    1
    24   103   102    1
    25   129   130    1
    26   133   134    1
    27   136   135    2
    28   130   132    1
    29   130   131    1
    30   145   143   ar
    31   101   100    1
    32   141   140    2
    33   137   134    1
    34   142   143    1
    35   142   139    1
    36   135   134    1
    37   135   138   am
    38   143   144   ar
    39    97    96    2
    40     4     3    2
    41    98    99    1
    42    98    95    1
    43   138   139    1
    44   140   139    1
    45    96    95    1
    46   100    99    1
    47    57    55    1
    48    95    94    1
    49    10     9    1
    50    10    11    1
    51     3     9   am
    52     3     2    1
    53    51    52    1
    54    11    12    2
    55    55    52    1
    56    55    56    1
    57     2     5    1
    58     2     1    1
    59    93    92    1
    60    94    84   am
    61    52    53    1
    62     5     6    1
    63     8     6    1
    64    92    91   ar
    65    92    90   ar
    66    81    79   ar
    67     6     7    1
    68    85    84    2
    69    33    32    1
    70    84    83    1
    71    91    89   ar
    72    90    88   ar
    73    41    40   ar
    74    53    54    2
    75    79    80   ar
    76    79    78    1
    77    19    17    1
    78    17    18    1
    79    17    14    1
    80    32    31    1
    81    89    87   ar
    82    88    87   ar
    83    40    39    1
    84    40    42   ar
    85    78    77    1
    86    87    86    1
    87    16    15    2
    88    83    82    1
    89    83    86    1
    90    39    38    1
    91    13    14    1
    92    76    75    2
    93    14    15    1
    94    82    75   am
    95    31    30    1
    96    77    74    1
    97    75    74    1
    98    48    49    1
    99    48    47    1
   100    49    50    1
   101    38    35    1
   102    24    21    1
   103    30    29    1
   104    71    70    1
   105    35    34    1
   106    35    36    1
   107    74    73    1
   108    37    36    2
   109    44    43    1
   110    44    47    1
   111    44    45    1
   112    29    26    1
   113    70    72    1
   114    70    67    1
   115    73    68   am
   116    21    20    1
   117    21    22    1
   118    26    25    1
   119    26    27    1
   120    46    45    2
   121    68    69    2
   122    68    67    1
   123    22    23    2
   124    67    66    1
   125    27    28    2
   126    65    63    1
   127    64    62    1
   128    61    60    2
   129    62    63    1
   130    62    59    1
   131    60    59    1
   132    59    58    1
