@<TRIPOS>MOLECULE
tmp/3en5B00.pdb
 152 140 0 0 0
SMALL
GASTEIGER

@<TRIPOS>ATOM
      1  N          0.4430  -17.3640  -33.1230 N.3    18  LEU18      -0.1231
      2  CA         0.3070  -18.0550  -31.8370 C.3    18  LEU18       0.1693
      3  C          1.4720  -17.7240  -30.9020 C.2    18  LEU18       0.2592
      4  O          1.3170  -17.6940  -29.6830 O.2    18  LEU18      -0.2718
      5  CB         0.2490  -19.5770  -32.0490 C.3    18  LEU18       0.0284
      6  CG        -0.8630  -20.2090  -32.8920 C.3    18  LEU18       0.0019
      7  CD1       -0.6260  -21.6940  -33.1050 C.3    18  LEU18       0.0001
      8  CD2       -2.2320  -19.9600  -32.2910 C.3    18  LEU18       0.0001
      9  N          2.6450  -17.5000  -31.4880 N.am   19  GLY19      -0.1957
     10  CA         3.8780  -17.2170  -30.7520 C.3    19  GLY19       0.1869
     11  C          4.9270  -16.6040  -31.6600 C.2    19  GLY19       0.2309
     12  O          4.9620  -16.8590  -32.8730 O.2    19  GLY19      -0.2863
     13  N          5.2260  -18.9350  -34.6510 N.3    26  VAL26      -0.1245
     14  CA         4.3540  -20.0580  -34.8470 C.3    26  VAL26       0.1561
     15  C          2.9630  -19.5980  -35.2690 C.2    26  VAL26       0.2260
     16  O          2.3480  -18.7790  -34.6120 O.2    26  VAL26      -0.2867
     17  CB         4.3040  -20.9530  -33.5980 C.3    26  VAL26       0.0252
     18  CG1        3.3750  -22.1480  -33.8380 C.3    26  VAL26       0.0019
     19  CG2        5.7120  -21.4420  -33.2310 C.3    26  VAL26       0.0019
     20  N         -0.0000  -26.4970  -37.6990 N.3    38  ALA38      -0.1231
     21  CA         0.8240  -25.4310  -37.1470 C.3    38  ALA38       0.1694
     22  C          2.0580  -25.2750  -38.0220 C.2    38  ALA38       0.2592
     23  O          2.5810  -26.2670  -38.5540 O.2    38  ALA38      -0.2718
     24  CB         1.2090  -25.7420  -35.7420 C.3    38  ALA38       0.0304
     25  N          2.5040  -24.0320  -38.1920 N.am   39  ILE39      -0.1966
     26  CA         3.7350  -23.7410  -38.9300 C.3    39  ILE39       0.1727
     27  C          4.6810  -22.9710  -38.0150 C.2    39  ILE39       0.2616
     28  O          4.3380  -21.8970  -37.5090 O.2    39  ILE39      -0.2715
     29  CB         3.5020  -22.9080  -40.2500 C.3    39  ILE39       0.0290
     30  CG1        2.5180  -23.5850  -41.1850 C.3    39  ILE39       0.0022
     31  CG2        4.7830  -22.7510  -41.0330 C.3    39  ILE39       0.0023
     32  CD1        1.0870  -23.1940  -40.9630 C.3    39  ILE39       0.0001
     33  N          5.8680  -23.5300  -37.8090 N.am   40  LYS40      -0.1977
     34  CA         6.9560  -22.8510  -37.1140 C.3    40  LYS40       0.1596
     35  C          7.8560  -22.2710  -38.1920 C.2    40  LYS40       0.2287
     36  O          8.2580  -22.9760  -39.1220 O.2    40  LYS40      -0.2864
     37  CB         7.6950  -23.8330  -36.1850 C.3    40  LYS40       0.0298
     38  CG         9.1520  -23.4940  -35.8740 C.3    40  LYS40       0.0038
     39  CD         9.5500  -23.7470  -34.4190 C.3    40  LYS40       0.0206
     40  CE        10.8240  -22.9320  -34.0910 C.3    40  LYS40       0.1093
     41  NZ        11.2600  -22.8890  -32.6380 N.3    40  LYS40      -0.1314
     42  N         13.3960  -35.1550  -36.4320 N.3    59  MET59      -0.1245
     43  CA        11.9540  -34.9920  -36.4210 C.3    59  MET59       0.1570
     44  C         11.3590  -35.8190  -37.5590 C.2    59  MET59       0.2261
     45  O         10.2500  -36.3480  -37.4330 O.2    59  MET59      -0.2867
     46  CB        11.5580  -33.5130  -36.5050 C.3    59  MET59       0.0387
     47  CG        12.2090  -32.6510  -35.4510 C.3    59  MET59       0.0595
     48  SD        11.0240  -32.0590  -34.2610 S.3    59  MET59      -0.1393
     49  CE         9.6360  -31.6150  -35.3500 C.3    59  MET59       0.0692
     50  N          4.9760  -34.8610  -31.3860 N.3    68  VAL68      -0.1245
     51  CA         4.2170  -33.9930  -32.3070 C.3    68  VAL68       0.1561
     52  C          4.5360  -34.3420  -33.7530 C.2    68  VAL68       0.2260
     53  O          5.6670  -34.1430  -34.1740 O.2    68  VAL68      -0.2867
     54  CB         4.5900  -32.4710  -32.0700 C.3    68  VAL68       0.0252
     55  CG1        3.6970  -31.5470  -32.8800 C.3    68  VAL68       0.0019
     56  CG2        4.4580  -32.1260  -30.6290 C.3    68  VAL68       0.0019
     57  N          8.4870  -25.2500  -40.8250 N.3    81  ILE81      -0.1245
     58  CA         8.2410  -26.5990  -40.3920 C.3    81  ILE81       0.1561
     59  C          6.7470  -26.6810  -40.1810 C.2    81  ILE81       0.2260
     60  O          6.1760  -25.8540  -39.4710 O.2    81  ILE81      -0.2867
     61  CB         9.0030  -26.9250  -39.0970 C.3    81  ILE81       0.0252
     62  CG1       10.5090  -26.7500  -39.3070 C.3    81  ILE81       0.0019
     63  CG2        8.7300  -28.3570  -38.6750 C.3    81  ILE81       0.0019
     64  CD1       11.2810  -26.2670  -38.0830 C.3    81  ILE81       0.0001
     65  N          3.5990  -28.8770  -38.7770 N.3    83  THR83      -0.1203
     66  CA         3.3100  -30.0080  -37.8830 C.3    83  THR83       0.1994
     67  C          1.8230  -30.1080  -37.5760 C.2    83  THR83       0.2618
     68  O          1.0540  -29.1980  -37.9100 O.2    83  THR83      -0.2717
     69  CB         4.0580  -29.9140  -36.5180 C.3    83  THR83       0.1784
     70  OG1        3.4540  -28.9050  -35.7160 O.3    83  THR83      -0.2211
     71  CG2        5.5380  -29.6080  -36.6710 C.3    83  THR83       0.0376
     72  N          1.4300  -31.2030  -36.9170 N.am   84  GLU84      -0.1965
     73  CA         0.0750  -31.3500  -36.3810 C.3    84  GLU84       0.1733
     74  C         -0.2480  -30.2250  -35.4120 C.2    84  GLU84       0.2616
     75  O          0.6430  -29.6960  -34.7610 O.2    84  GLU84      -0.2715
     76  CB        -0.0930  -32.6990  -35.6920 C.3    84  GLU84       0.0429
     77  CG         0.2790  -32.7390  -34.2400 C.3    84  GLU84       0.1163
     78  CD         0.0270  -34.1120  -33.6340 C.2    84  GLU84       0.3649
     79  OE1        0.9650  -34.9150  -33.4790 O.co2  84  GLU84      -0.2457
     80  OE2       -1.1290  -34.4040  -33.3390 O.co2  84  GLU84      -0.2457
     81  N         -1.5090  -29.8350  -35.3210 N.am   85  TYR85      -0.1960
     82  CA        -1.8670  -28.6770  -34.5080 C.3    85  TYR85       0.1771
     83  C         -2.2830  -29.0540  -33.0930 C.2    85  TYR85       0.2619
     84  O         -3.2040  -29.8180  -32.9070 O.2    85  TYR85      -0.2715
     85  CB        -2.9650  -27.8920  -35.2040 C.3    85  TYR85       0.0574
     86  CG        -3.5390  -26.7520  -34.4140 C.ar   85  TYR85      -0.0198
     87  CD1       -2.7920  -25.5960  -34.1780 C.ar   85  TYR85      -0.0009
     88  CD2       -4.8530  -26.8070  -33.9390 C.ar   85  TYR85      -0.0009
     89  CE1       -3.3290  -24.5300  -33.4500 C.ar   85  TYR85       0.0417
     90  CE2       -5.3970  -25.7610  -33.2130 C.ar   85  TYR85       0.0417
     91  CZ        -4.6350  -24.6250  -32.9780 C.ar   85  TYR85       0.1957
     92  OH        -5.1780  -23.5820  -32.2690 O.3    85  TYR85      -0.2866
     93  N         -1.6020  -28.5060  -32.0940 N.am   86  MET86      -0.1977
     94  CA        -1.9270  -28.7910  -30.7010 C.3    86  MET86       0.1605
     95  C         -2.7510  -27.6660  -30.1070 C.2    86  MET86       0.2287
     96  O         -2.2140  -26.6210  -29.7110 O.2    86  MET86      -0.2864
     97  CB        -0.6550  -29.0400  -29.8830 C.3    86  MET86       0.0413
     98  CG         0.2150  -30.1510  -30.4420 C.3    86  MET86       0.0598
     99  SD        -0.7050  -31.7060  -30.4760 S.3    86  MET86      -0.1393
    100  CE        -0.6110  -32.2160  -28.7280 C.3    86  MET86       0.0692
    101  N         -1.5260  -25.2690  -26.9290 N.3    89  GLY89      -0.1210
    102  CA        -0.1880  -24.6980  -26.7980 C.3    89  GLY89       0.1956
    103  C          0.7130  -25.4400  -25.8260 C.2    89  GLY89       0.2612
    104  O          0.4760  -26.6160  -25.5400 O.2    89  GLY89      -0.2717
    105  N          1.7470  -24.7580  -25.3120 N.am   90  SER90      -0.1952
    106  CA         2.6760  -25.3820  -24.3750 C.3    90  SER90       0.1924
    107  C          2.0150  -25.8600  -23.0800 C.2    90  SER90       0.2314
    108  O          1.0550  -25.2780  -22.5950 O.2    90  SER90      -0.2863
    109  CB         3.8550  -24.4500  -24.0430 C.3    90  SER90       0.2116
    110  OG         3.4330  -23.3800  -23.2170 O.3    90  SER90      -0.2180
    111  N          2.2770  -23.0180  -20.5950 N.3    93  ASP93      -0.1239
    112  CA         1.0800  -22.1180  -20.6420 C.3    93  ASP93       0.1674
    113  C         -0.2260  -22.7550  -20.1570 C.2    93  ASP93       0.2266
    114  O         -0.9840  -22.1370  -19.4460 O.2    93  ASP93      -0.2867
    115  CB         0.8900  -21.5120  -22.0260 C.3    93  ASP93       0.1410
    116  CG         2.0610  -20.6430  -22.4410 C.2    93  ASP93       0.3668
    117  OD1        2.8590  -20.2010  -21.5430 O.co2  93  ASP93      -0.2456
    118  OD2        2.1830  -20.4080  -23.6770 O.co2  93  ASP93      -0.2456
    119  N          7.8580  -26.1510  -21.5830 N.3   135  ALA135     -0.1245
    120  CA         7.7160  -25.2030  -22.7110 C.3   135  ALA135      0.1562
    121  C          7.8440  -25.9400  -24.0260 C.2   135  ALA135      0.2260
    122  O          7.3360  -25.4930  -25.0430 O.2   135  ALA135     -0.2867
    123  CB         8.7570  -24.0680  -22.6420 C.3   135  ALA135      0.0290
    124  N          3.5910  -29.9450  -25.7100 N.3   138  LEU138     -0.1245
    125  CA         2.3500  -29.3980  -26.2620 C.3   138  LEU138      0.1561
    126  C          1.1560  -30.2250  -25.8240 C.2   138  LEU138      0.2260
    127  O          1.2780  -31.4520  -25.6240 O.2   138  LEU138     -0.2867
    128  CB         2.4350  -29.3640  -27.7830 C.3   138  LEU138      0.0270
    129  CG         3.4170  -28.3410  -28.3620 C.3   138  LEU138      0.0019
    130  CD1        3.6730  -28.6560  -29.8000 C.3   138  LEU138      0.0001
    131  CD2        2.8550  -26.9200  -28.2360 C.3   138  LEU138      0.0001
    132  N          7.8940  -32.2120  -28.2360 N.3   148  ALA148     -0.1231
    133  CA         8.0410  -31.3940  -29.4320 C.3   148  ALA148      0.1694
    134  C          9.4620  -30.8530  -29.4640 C.2   148  ALA148      0.2592
    135  O         10.2070  -31.0830  -28.5170 O.2   148  ALA148     -0.2718
    136  CB         7.0820  -30.2620  -29.3560 C.3   148  ALA148      0.0304
    137  N          9.8370  -30.1400  -30.5350 N.am  149  ASP149     -0.1974
    138  CA        11.1180  -29.4010  -30.6090 C.3   149  ASP149      0.1709
    139  C         12.2820  -30.2650  -30.1680 C.2   149  ASP149      0.2293
    140  O         12.5790  -30.3370  -28.9810 O.2   149  ASP149     -0.2864
    141  CB        11.0460  -28.1540  -29.7090 C.3   149  ASP149      0.1436
    142  CG        12.4070  -27.4580  -29.5140 C.2   149  ASP149      0.3671
    143  OD1       12.5680  -26.3350  -30.0440 O.co2 149  ASP149     -0.2456
    144  OD2       13.3020  -27.9960  -28.8110 O.co2 149  ASP149     -0.2456
    145  N         16.0290  -28.3690  -31.1910 N.3   152  LEU152     -0.1245
    146  CA        16.1430  -27.4070  -32.3000 C.3   152  LEU152      0.1561
    147  C         16.4930  -25.9740  -31.8610 C.2   152  LEU152      0.2260
    148  O         15.7010  -25.3100  -31.1760 O.2   152  LEU152     -0.2867
    149  CB        14.8350  -27.4040  -33.1160 C.3   152  LEU152      0.0270
    150  CG        14.4280  -28.7360  -33.7340 C.3   152  LEU152      0.0019
    151  CD1       13.0400  -28.6690  -34.3360 C.3   152  LEU152      0.0001
    152  CD2       15.4190  -29.1950  -34.7890 C.3   152  LEU152      0.0001
@<TRIPOS>BOND
     1    30    32    1
     2    30    29    1
     3    31    29    1
     4    57    58    1
     5    58    59    1
     6    58    61    1
     7    29    26    1
     8    59    60    2
     9    62    61    1
    10    62    64    1
    11    36    35    2
    12    61    63    1
    13    26    25    1
    14    26    27    1
    15    65    66    1
    16    23    22    2
    17    35    34    1
    18    25    22   am
    19    22    21    1
    20    27    33   am
    21    27    28    2
    22    68    67    2
    23    66    67    1
    24    66    69    1
    25    33    34    1
    26    20    21    1
    27    67    72   am
    28    44    45    2
    29    44    43    1
    30    21    24    1
    31    34    37    1
    32    72    73    1
    33    71    69    1
    34    69    70    1
    35    46    43    1
    36    46    47    1
    37    42    43    1
    38    73    76    1
    39    73    74    1
    40    37    38    1
    41    38    39    1
    42    76    77    1
    43    47    48    1
    44    74    81   am
    45    74    75    2
    46    49    48    1
    47    81    82    1
    48    15    14    1
    49    15    16    2
    50    85    82    1
    51    85    86    1
    52    14    13    1
    53    14    17    1
    54   152   150    1
    55    82    83    1
    56    39    40    1
    57    86    87   ar
    58    86    88   ar
    59   151   150    1
    60    77    78    1
    61    87    89   ar
    62    53    52    2
    63    40    41    1
    64    88    90   ar
    65    18    17    1
    66    52    51    1
    67   150   149    1
    68    78    79   ar
    69    78    80   ar
    70    17    19    1
    71    89    91   ar
    72    90    91   ar
    73     1     2    1
    74   149   146    1
    75     7     6    1
    76    83    84    2
    77    83    93   am
    78    91    92    1
    79     6     8    1
    80     6     5    1
    81    55    54    1
    82    12    11    2
    83    51    54    1
    84    51    50    1
    85   146   147    1
    86   146   145    1
    87    93    94    1
    88    54    56    1
    89     5     2    1
    90   147   148    2
    91     2     3    1
    92    11    10    1
    93     9     3   am
    94     9    10    1
    95     3     4    2
    96    94    95    1
    97    94    97    1
    98   138   137    1
    99   138   139    1
   100   138   141    1
   101   137   134   am
   102    99    98    1
   103    99   100    1
   104    98    97    1
   105   139   140    2
   106    95    96    2
   107   143   142   ar
   108   130   129    1
   109   141   142    1
   110   142   144   ar
   111   134   133    1
   112   134   135    2
   113   133   136    1
   114   133   132    1
   115   129   131    1
   116   129   128    1
   117   128   125    1
   118   101   102    1
   119   102   103    1
   120   125   126    1
   121   125   124    1
   122   103   104    2
   123   103   105   am
   124   126   127    2
   125   105   106    1
   126   122   121    2
   127   106   109    1
   128   106   107    1
   129   109   110    1
   130   121   120    1
   131   118   116   ar
   132   107   108    2
   133   120   123    1
   134   120   119    1
   135   116   115    1
   136   116   117   ar
   137   115   112    1
   138   112   111    1
   139   112   113    1
   140   113   114    2
