@<TRIPOS>MOLECULE
tmp/3en5A00.pdb
 131 121 0 0 0
SMALL
GASTEIGER

@<TRIPOS>ATOM
      1  N          8.6200   14.0050    7.9340 N.3    14  LEU14      -0.1231
      2  CA         8.5340   13.3280    6.6360 C.3    14  LEU14       0.1693
      3  C          7.2830   13.6910    5.8470 C.2    14  LEU14       0.2592
      4  O          7.3110   13.7360    4.6120 O.2    14  LEU14      -0.2718
      5  CB         8.6200   11.8120    6.8050 C.3    14  LEU14       0.0284
      6  CG         9.9170   11.3020    7.4290 C.3    14  LEU14       0.0019
      7  CD1        9.8280    9.8100    7.6620 C.3    14  LEU14       0.0001
      8  CD2       11.1180   11.6370    6.5610 C.3    14  LEU14       0.0001
      9  N          6.1860   13.9290    6.5620 N.am   15  GLY15      -0.1957
     10  CA         4.9170   14.2850    5.9440 C.3    15  GLY15       0.1869
     11  C          3.9880   14.9030    6.9630 C.2    15  GLY15       0.2309
     12  O          4.2700   14.8620    8.1610 O.2    15  GLY15      -0.2863
     13  N          4.1110   12.5490   10.0320 N.3    21  VAL21      -0.1245
     14  CA         5.0710   11.4470   10.1130 C.3    21  VAL21       0.1561
     15  C          6.5240   11.9170   10.2710 C.2    21  VAL21       0.2260
     16  O          7.0200   12.6870    9.4750 O.2    21  VAL21      -0.2867
     17  CB         4.9680   10.5240    8.9090 C.3    21  VAL21       0.0252
     18  CG1        5.9890    9.4180    9.0200 C.3    21  VAL21       0.0019
     19  CG2        3.5750    9.9200    8.8260 C.3    21  VAL21       0.0019
     20  N          9.9700    4.9040   12.1580 N.3    33  ALA33      -0.1231
     21  CA         9.0390    5.9180   11.7370 C.3    33  ALA33       0.1694
     22  C          8.0540    6.1550   12.8610 C.2    33  ALA33       0.2592
     23  O          7.5490    5.1980   13.4660 O.2    33  ALA33      -0.2718
     24  CB         8.3080    5.4830   10.4850 C.3    33  ALA33       0.0304
     25  N          7.7740    7.4330   13.1330 N.am   34  ILE34      -0.1966
     26  CA         6.7720    7.8430   14.1420 C.3    34  ILE34       0.1727
     27  C          5.6550    8.6700   13.5170 C.2    34  ILE34       0.2616
     28  O          5.9180    9.6280   12.8010 O.2    34  ILE34      -0.2715
     29  CB         7.4020    8.6760   15.2880 C.3    34  ILE34       0.0290
     30  CG1        8.6900    8.0120   15.8000 C.3    34  ILE34       0.0022
     31  CG2        6.3630    8.9260   16.3800 C.3    34  ILE34       0.0023
     32  CD1        9.3710    8.7440   16.9440 C.3    34  ILE34       0.0001
     33  N          4.4150    8.3010   13.8160 N.am   35  LYS35      -0.1977
     34  CA         3.2590    9.0270   13.3120 C.3    35  LYS35       0.1596
     35  C          2.3420    9.5180   14.4210 C.2    35  LYS35       0.2287
     36  O          1.9830    8.7520   15.3090 O.2    35  LYS35      -0.2864
     37  CB         2.4590    8.1700   12.3410 C.3    35  LYS35       0.0298
     38  CG         1.1260    8.7710   12.0140 C.3    35  LYS35       0.0038
     39  CD         0.6870    8.3860   10.6330 C.3    35  LYS35       0.0206
     40  CE        -0.3660    7.3350   10.6670 C.3    35  LYS35       0.1093
     41  NZ        -1.0910    7.4120    9.3820 N.3    35  LYS35      -0.1314
     42  N         -3.1810   -3.6690   12.7050 N.3    40  MET40      -0.1245
     43  CA        -1.7240   -3.6580   12.6280 C.3    40  MET40       0.1570
     44  C         -1.1030   -4.5000   13.7340 C.2    40  MET40       0.2261
     45  O          0.0010   -4.9990   13.5810 O.2    40  MET40      -0.2867
     46  CB        -1.1790   -2.2260   12.6420 C.3    40  MET40       0.0387
     47  CG        -1.2280   -1.5520   11.2710 C.3    40  MET40       0.0595
     48  SD        -0.1340   -0.1020   11.0490 S.3    40  MET40      -0.1393
     49  CE         1.2480   -0.8070   10.1340 C.3    40  MET40       0.0692
     50  N          4.2260   -3.2820    6.3560 N.3    49  VAL49      -0.1245
     51  CA         5.0360   -2.4300    7.2510 C.3    49  VAL49       0.1561
     52  C          4.6470   -2.8050    8.6700 C.2    49  VAL49       0.2260
     53  O          3.4730   -2.9490    8.9890 O.2    49  VAL49      -0.2867
     54  CB         4.8110   -0.9300    7.0290 C.3    49  VAL49       0.0252
     55  CG1        5.8950   -0.1750    7.6920 C.3    49  VAL49       0.0019
     56  CG2        4.8060   -0.6170    5.5780 C.3    49  VAL49       0.0019
     57  N          2.0580    6.4300   16.9200 N.3    62  ILE62      -0.1245
     58  CA         2.2020    5.1150   16.2920 C.3    62  ILE62       0.1561
     59  C          3.6460    4.9390   15.8400 C.2    62  ILE62       0.2260
     60  O          4.1970    5.8150   15.1920 O.2    62  ILE62      -0.2867
     61  CB         1.3160    5.0020   15.0520 C.3    62  ILE62       0.0252
     62  CG1       -0.1600    5.0450   15.4230 C.3    62  ILE62       0.0019
     63  CG2        1.5770    3.7240   14.3180 C.3    62  ILE62       0.0019
     64  CD1       -0.8120    6.4010   15.0980 C.3    62  ILE62       0.0001
     65  N          6.4510    2.4410   13.8980 N.3    64  THR64      -0.1203
     66  CA         6.6260    1.3110   12.9760 C.3    64  THR64       0.1994
     67  C          8.0400    1.2620   12.4530 C.2    64  THR64       0.2618
     68  O          8.7680    2.2270   12.5790 O.2    64  THR64      -0.2717
     69  CB         5.7170    1.4060   11.7080 C.3    64  THR64       0.1784
     70  OG1        6.1630    2.4790   10.8630 O.3    64  THR64      -0.2211
     71  CG2        4.2630    1.5960   12.0580 C.3    64  THR64       0.0376
     72  N          8.4150    0.1520   11.8190 N.am   65  GLU65      -0.1965
     73  CA         9.6860    0.0850   11.0880 C.3    65  GLU65       0.1733
     74  C          9.8120    1.2820   10.1270 C.2    65  GLU65       0.2616
     75  O          8.8110    1.7890    9.5870 O.2    65  GLU65      -0.2715
     76  CB         9.8250   -1.2400   10.3190 C.3    65  GLU65       0.0429
     77  CG         9.3840   -1.1620    8.8550 C.3    65  GLU65       0.1163
     78  CD         9.1140   -2.5240    8.2430 C.2    65  GLU65       0.3649
     79  OE1        8.0550   -3.1040    8.5350 O.co2  65  GLU65      -0.2457
     80  OE2        9.9450   -3.0130    7.4560 O.co2  65  GLU65      -0.2457
     81  N         11.0530    1.7200    9.9310 N.am   66  TYR66      -0.1960
     82  CA        11.3620    2.8270    9.0400 C.3    66  TYR66       0.1771
     83  C         11.5990    2.3550    7.6070 C.2    66  TYR66       0.2619
     84  O         12.3210    1.4000    7.3690 O.2    66  TYR66      -0.2715
     85  CB        12.5770    3.5720    9.5810 C.3    66  TYR66       0.0574
     86  CG        12.9640    4.7720    8.7920 C.ar   66  TYR66      -0.0198
     87  CD1       12.1310    5.8780    8.7310 C.ar   66  TYR66      -0.0009
     88  CD2       14.1700    4.8110    8.1110 C.ar   66  TYR66      -0.0009
     89  CE1       12.4900    6.9860    7.9830 C.ar   66  TYR66       0.0417
     90  CE2       14.5360    5.8980    7.3810 C.ar   66  TYR66       0.0417
     91  CZ        13.7010    6.9830    7.3160 C.ar   66  TYR66       0.1957
     92  OH        14.0530    8.0730    6.5600 O.3    66  TYR66      -0.2866
     93  N         10.9570    3.0220    6.6520 N.am   67  MET67      -0.1977
     94  CA        11.1640    2.7320    5.2290 C.3    67  MET67       0.1605
     95  C         11.9020    3.8930    4.5990 C.2    67  MET67       0.2287
     96  O         11.3530    4.9910    4.4590 O.2    67  MET67      -0.2864
     97  CB         9.8320    2.4840    4.5420 C.3    67  MET67       0.0413
     98  CG         8.9860    1.4200    5.2530 C.3    67  MET67       0.0598
     99  SD         9.7150   -0.2360    5.2150 S.3    67  MET67      -0.1393
    100  CE         9.5750   -0.6590    3.4590 C.3    67  MET67       0.0692
    101  N         10.6170    6.3780    1.3570 N.3    70  GLY70      -0.1210
    102  CA         9.3220    7.0410    1.2960 C.3    70  GLY70       0.1956
    103  C          8.3690    6.2410    0.4300 C.2    70  GLY70       0.2612
    104  O          8.5650    5.0450    0.2400 O.2    70  GLY70      -0.2717
    105  N          7.3330    6.8970   -0.0830 N.am   71  SER71      -0.1952
    106  CA         6.3180    6.2210   -0.8710 C.3    71  SER71       0.1924
    107  C          6.8530    5.7550   -2.2190 C.2    71  SER71       0.2314
    108  O          7.7550    6.3780   -2.7980 O.2    71  SER71      -0.2863
    109  CB         5.1240    7.1320   -1.1150 C.3    71  SER71       0.2116
    110  OG         5.4330    8.1240   -2.0880 O.3    71  SER71      -0.2180
    111  N          6.5030    8.5270   -4.7280 N.3    74  ASP74      -0.1239
    112  CA         7.6890    9.4200   -4.7000 C.3    74  ASP74       0.1674
    113  C          8.9650    8.7810   -5.2740 C.2    74  ASP74       0.2266
    114  O          9.7220    9.4310   -5.9670 O.2    74  ASP74      -0.2867
    115  CB         7.9700    9.9600   -3.2990 C.3    74  ASP74       0.1410
    116  CG         6.7930   10.7320   -2.7130 C.2    74  ASP74       0.3668
    117  OD1        5.9060   11.1870   -3.4890 O.co2  74  ASP74      -0.2456
    118  OD2        6.7530   10.8860   -1.4540 O.co2  74  ASP74      -0.2456
    119  N          5.2250    1.5440    0.6910 N.3   119  LEU119     -0.1245
    120  CA         6.5060    2.1090    1.0880 C.3   119  LEU119      0.1561
    121  C          7.6610    1.2870    0.5510 C.2   119  LEU119      0.2260
    122  O          7.5200    0.0910    0.2620 O.2   119  LEU119     -0.2867
    123  CB         6.5850    2.2590    2.6030 C.3   119  LEU119      0.0270
    124  CG         5.6640    3.3410    3.1710 C.3   119  LEU119      0.0019
    125  CD1        5.4870    3.1310    4.6340 C.3   119  LEU119      0.0001
    126  CD2        6.2440    4.7300    2.9070 C.3   119  LEU119      0.0001
    127  N          1.2620   -0.6110    3.4700 N.3   129  ALA129     -0.1245
    128  CA         1.3660    0.3150    4.5810 C.3   129  ALA129      0.1562
    129  C          0.0470    1.0210    4.8390 C.2   129  ALA129      0.2260
    130  O         -0.7380    1.2250    3.9020 O.2   129  ALA129     -0.2867
    131  CB         2.4290    1.3240    4.2710 C.3   129  ALA129      0.0290
@<TRIPOS>BOND
     1   114   113    2
     2   113   112    1
     3   111   112    1
     4   112   115    1
     5   117   116   ar
     6   115   116    1
     7   108   107    2
     8   116   118   ar
     9   107   106    1
    10   110   109    1
    11   109   106    1
    12   106   105    1
    13   105   103   am
    14   104   103    2
    15   122   121    2
    16   103   102    1
    17   121   120    1
    18   119   120    1
    19   120   123    1
    20   102   101    1
    21   123   124    1
    22   126   124    1
    23   124   125    1
    24   100    99    1
    25   127   128    1
    26   130   129    2
    27   131   128    1
    28    96    95    2
    29    97    94    1
    30    97    98    1
    31   128   129    1
    32    95    94    1
    33     4     3    2
    34    99    98    1
    35    94    93    1
    36    56    54    1
    37     3     9   am
    38     3     2    1
    39    10     9    1
    40    10    11    1
    41    50    51    1
    42    92    91    1
    43     8     6    1
    44     2     5    1
    45     2     1    1
    46    93    83   am
    47     5     6    1
    48    11    12    2
    49    54    51    1
    50    54    55    1
    51    51    52    1
    52    91    90   ar
    53    91    89   ar
    54    84    83    2
    55    90    88   ar
    56     6     7    1
    57    80    78   ar
    58    83    82    1
    59    89    87   ar
    60    88    86   ar
    61    78    79   ar
    62    78    77    1
    63    52    53    2
    64    87    86   ar
    65    86    85    1
    66    19    17    1
    67    77    76    1
    68    17    18    1
    69    17    14    1
    70    82    85    1
    71    82    81    1
    72    41    40    1
    73    16    15    2
    74    75    74    2
    75    81    74   am
    76    13    14    1
    77    14    15    1
    78    74    73    1
    79    49    48    1
    80    76    73    1
    81    24    21    1
    82    39    40    1
    83    39    38    1
    84    70    69    1
    85    48    47    1
    86    73    72    1
    87    47    46    1
    88    69    71    1
    89    69    66    1
    90    21    20    1
    91    21    22    1
    92    72    67   am
    93    38    37    1
    94    37    34    1
    95    67    68    2
    96    67    66    1
    97    43    46    1
    98    43    42    1
    99    43    44    1
   100    28    27    2
   101    22    25   am
   102    22    23    2
   103    66    65    1
   104    25    26    1
   105    34    33    1
   106    34    35    1
   107    27    33   am
   108    27    26    1
   109    45    44    2
   110    26    29    1
   111    63    61    1
   112    35    36    2
   113    61    62    1
   114    61    58    1
   115    64    62    1
   116    60    59    2
   117    29    30    1
   118    29    31    1
   119    30    32    1
   120    59    58    1
   121    58    57    1
