@<TRIPOS>MOLECULE
tmp/3en6B00.pdb
 136 124 0 0 0
SMALL
GASTEIGER

@<TRIPOS>ATOM
      1  N         -0.0680  -17.3410  -33.4740 N.3    17  LEU17      -0.1231
      2  CA        -0.1720  -18.0380  -32.1840 C.3    17  LEU17       0.1693
      3  C          1.0190  -17.7630  -31.2610 C.2    17  LEU17       0.2592
      4  O          0.8620  -17.7630  -30.0410 O.2    17  LEU17      -0.2718
      5  CB        -0.2910  -19.5560  -32.3890 C.3    17  LEU17       0.0284
      6  CG        -1.5710  -20.1500  -32.9850 C.3    17  LEU17       0.0019
      7  CD1       -1.4780  -21.6630  -33.0090 C.3    17  LEU17       0.0001
      8  CD2       -2.8220  -19.7150  -32.2200 C.3    17  LEU17       0.0001
      9  N          2.2040  -17.5600  -31.8510 N.am   18  GLY18      -0.1957
     10  CA         3.4440  -17.2340  -31.1290 C.3    18  GLY18       0.1869
     11  C          4.3980  -16.4210  -31.9890 C.2    18  GLY18       0.2309
     12  O          4.2450  -16.3790  -33.2130 O.2    18  GLY18      -0.2863
     13  N          4.5760  -18.8690  -34.8930 N.3    23  VAL23      -0.1245
     14  CA         3.8100  -20.1060  -35.0150 C.3    23  VAL23       0.1561
     15  C          2.3610  -19.7730  -35.3490 C.2    23  VAL23       0.2260
     16  O          1.6870  -19.1040  -34.5830 O.2    23  VAL23      -0.2867
     17  CB         3.8800  -20.9660  -33.7300 C.3    23  VAL23       0.0252
     18  CG1        2.9590  -22.1930  -33.8440 C.3    23  VAL23       0.0019
     19  CG2        5.3140  -21.3920  -33.4460 C.3    23  VAL23       0.0019
     20  N         -0.9120  -26.5330  -37.6630 N.3    35  ALA35      -0.1245
     21  CA        -0.0420  -25.5110  -37.1270 C.3    35  ALA35       0.1562
     22  C          1.1380  -25.3930  -38.0810 C.2    35  ALA35       0.2260
     23  O          1.6410  -26.4000  -38.6030 O.2    35  ALA35      -0.2867
     24  CB         0.4400  -25.9010  -35.7800 C.3    35  ALA35       0.0290
     25  N          4.8870  -23.6570  -38.0550 N.3    37  LYS37      -0.1245
     26  CA         5.9920  -22.9240  -37.4820 C.3    37  LYS37       0.1561
     27  C          6.7770  -22.3150  -38.6370 C.2    37  LYS37       0.2260
     28  O          7.1540  -23.0220  -39.5780 O.2    37  LYS37      -0.2867
     29  CB         6.8840  -23.8390  -36.6640 C.3    37  LYS37       0.0271
     30  CG         7.9850  -23.0840  -35.9480 C.3    37  LYS37       0.0035
     31  CD         9.2340  -23.9270  -35.7280 C.3    37  LYS37       0.0206
     32  CE         9.1630  -24.7420  -34.4510 C.3    37  LYS37       0.1093
     33  NZ         8.6430  -23.9830  -33.2740 N.3    37  LYS37      -0.1314
     34  N         12.1870  -35.0690  -36.8100 N.3    43  MET43      -0.1245
     35  CA        10.7460  -35.1140  -36.7520 C.3    43  MET43       0.1570
     36  C         10.1320  -36.0250  -37.8300 C.2    43  MET43       0.2261
     37  O          9.0450  -36.5360  -37.6200 O.2    43  MET43      -0.2867
     38  CB        10.1910  -33.6950  -36.8160 C.3    43  MET43       0.0387
     39  CG         9.0150  -33.4790  -35.9140 C.3    43  MET43       0.0595
     40  SD         8.4980  -31.7510  -35.7370 S.3    43  MET43      -0.1393
     41  CE         6.8240  -32.0130  -35.1320 C.3    43  MET43       0.0692
     42  N          4.1790  -34.8000  -31.1440 N.3    52  VAL52      -0.1245
     43  CA         3.4490  -33.9550  -32.1070 C.3    52  VAL52       0.1561
     44  C          3.7900  -34.3640  -33.5470 C.2    52  VAL52       0.2260
     45  O          4.9520  -34.4160  -33.9150 O.2    52  VAL52      -0.2867
     46  CB         3.7900  -32.4320  -31.8740 C.3    52  VAL52       0.0252
     47  CG1        3.1900  -31.5400  -32.9810 C.3    52  VAL52       0.0019
     48  CG2        3.3150  -31.9870  -30.4830 C.3    52  VAL52       0.0019
     49  N          7.5330  -25.4500  -41.2140 N.3    62  ILE62      -0.1245
     50  CA         7.2860  -26.8110  -40.7950 C.3    62  ILE62       0.1561
     51  C          5.8390  -26.8690  -40.3940 C.2    62  ILE62       0.2260
     52  O          5.3760  -26.0490  -39.5970 O.2    62  ILE62      -0.2867
     53  CB         8.1610  -27.2370  -39.6090 C.3    62  ILE62       0.0252
     54  CG1        9.6430  -27.1590  -39.9800 C.3    62  ILE62       0.0019
     55  CG2        7.8120  -28.6520  -39.1650 C.3    62  ILE62       0.0019
     56  CD1       10.5400  -26.7080  -38.8240 C.3    62  ILE62       0.0001
     57  N          2.5800  -29.0450  -38.8540 N.3    64  THR64      -0.1203
     58  CA         2.3050  -30.1540  -37.9570 C.3    64  THR64       0.1994
     59  C          0.8370  -30.1740  -37.6040 C.2    64  THR64       0.2618
     60  O          0.0980  -29.2380  -37.9330 O.2    64  THR64      -0.2717
     61  CB         3.0870  -30.0120  -36.6530 C.3    64  THR64       0.1784
     62  OG1        2.6110  -28.8610  -35.9300 O.3    64  THR64      -0.2211
     63  CG2        4.5880  -29.8840  -36.9270 C.3    64  THR64       0.0376
     64  N          0.4090  -31.2310  -36.9200 N.am   65  GLU65      -0.1965
     65  CA        -0.9110  -31.2210  -36.2990 C.3    65  GLU65       0.1733
     66  C         -1.0740  -30.0490  -35.3310 C.2    65  GLU65       0.2616
     67  O         -0.0930  -29.4860  -34.8180 O.2    65  GLU65      -0.2715
     68  CB        -1.2010  -32.5260  -35.5770 C.3    65  GLU65       0.0429
     69  CG        -0.5140  -32.6580  -34.2400 C.3    65  GLU65       0.1163
     70  CD        -0.7660  -34.0070  -33.6360 C.2    65  GLU65       0.3649
     71  OE1        0.2080  -34.7660  -33.4890 O.co2  65  GLU65      -0.2457
     72  OE2       -1.9420  -34.3140  -33.3630 O.co2  65  GLU65      -0.2457
     73  N         -2.3310  -29.6900  -35.0990 N.am   66  TYR66      -0.1960
     74  CA        -2.6970  -28.5140  -34.3290 C.3    66  TYR66       0.1771
     75  C         -3.1020  -28.9630  -32.9260 C.2    66  TYR66       0.2619
     76  O         -3.9640  -29.8200  -32.7700 O.2    66  TYR66      -0.2715
     77  CB        -3.8280  -27.7520  -35.0410 C.3    66  TYR66       0.0574
     78  CG        -4.4330  -26.6720  -34.1960 C.ar   66  TYR66      -0.0198
     79  CD1       -3.7360  -25.4740  -33.9430 C.ar   66  TYR66      -0.0009
     80  CD2       -5.6840  -26.8540  -33.5990 C.ar   66  TYR66      -0.0009
     81  CE1       -4.2880  -24.4710  -33.1180 C.ar   66  TYR66       0.0417
     82  CE2       -6.2430  -25.8610  -32.7780 C.ar   66  TYR66       0.0417
     83  CZ        -5.5450  -24.6800  -32.5500 C.ar   66  TYR66       0.1957
     84  OH        -6.1150  -23.7210  -31.7540 O.3    66  TYR66      -0.2866
     85  N         -2.4480  -28.4140  -31.9130 N.am   67  MET67      -0.1977
     86  CA        -2.6830  -28.8200  -30.5550 C.3    67  MET67       0.1605
     87  C         -3.4390  -27.6860  -29.9070 C.2    67  MET67       0.2287
     88  O         -2.8890  -26.6150  -29.6030 O.2    67  MET67      -0.2864
     89  CB        -1.3530  -29.1260  -29.8880 C.3    67  MET67       0.0413
     90  CG        -0.6390  -30.3310  -30.5490 C.3    67  MET67       0.0598
     91  SD        -1.5760  -31.8590  -30.2230 S.3    67  MET67      -0.1393
     92  CE        -1.2980  -32.1350  -28.4380 C.3    67  MET67       0.0692
     93  N         -2.2910  -25.1670  -26.6430 N.3    70  GLY70      -0.1210
     94  CA        -0.9950  -24.5170  -26.4350 C.3    70  GLY70       0.1956
     95  C         -0.0120  -25.3660  -25.6380 C.2    70  GLY70       0.2612
     96  O         -0.2070  -26.5950  -25.5260 O.2    70  GLY70      -0.2717
     97  N          1.0570  -24.7370  -25.1220 N.am   71  SER71      -0.1952
     98  CA         1.9970  -25.4240  -24.2500 C.3    71  SER71       0.1924
     99  C          1.3110  -25.9270  -23.0020 C.2    71  SER71       0.2314
    100  O          0.3480  -25.3370  -22.5270 O.2    71  SER71      -0.2863
    101  CB         3.1560  -24.5230  -23.7970 C.3    71  SER71       0.2116
    102  OG         2.6550  -23.2820  -23.3260 O.3    71  SER71      -0.2180
    103  N          1.6130  -23.1160  -20.4540 N.3    74  ASP74      -0.1239
    104  CA         0.4690  -22.1780  -20.4900 C.3    74  ASP74       0.1674
    105  C         -0.8360  -22.8210  -20.0170 C.2    74  ASP74       0.2266
    106  O         -1.6870  -22.1320  -19.4820 O.2    74  ASP74      -0.2867
    107  CB         0.2500  -21.5450  -21.8670 C.3    74  ASP74       0.1410
    108  CG         1.4150  -20.6780  -22.3090 C.2    74  ASP74       0.3668
    109  OD1        2.3250  -20.4050  -21.4930 O.co2  74  ASP74      -0.2456
    110  OD2        1.4380  -20.2490  -23.4880 O.co2  74  ASP74      -0.2456
    111  N          7.0740  -26.3280  -21.3480 N.3   116  ALA116     -0.1245
    112  CA         6.9200  -25.4240  -22.4960 C.3   116  ALA116      0.1562
    113  C          7.0420  -26.1200  -23.8550 C.2   116  ALA116      0.2260
    114  O          6.6510  -25.5420  -24.8710 O.2   116  ALA116     -0.2867
    115  CB         7.8990  -24.2200  -22.4110 C.3   116  ALA116      0.0290
    116  N          2.7310  -30.0300  -25.6270 N.3   119  LEU119     -0.1245
    117  CA         1.5460  -29.4000  -26.2020 C.3   119  LEU119      0.1561
    118  C          0.3340  -30.2020  -25.8030 C.2   119  LEU119      0.2260
    119  O          0.3930  -31.4210  -25.6610 O.2   119  LEU119     -0.2867
    120  CB         1.6450  -29.3800  -27.7160 C.3   119  LEU119      0.0270
    121  CG         2.6580  -28.4260  -28.3390 C.3   119  LEU119      0.0019
    122  CD1        2.6600  -28.7180  -29.7950 C.3   119  LEU119      0.0001
    123  CD2        2.2830  -26.9400  -28.0960 C.3   119  LEU119      0.0001
    124  N          6.9220  -32.0750  -28.1520 N.3   129  ALA129     -0.1231
    125  CA         7.1530  -31.2420  -29.3100 C.3   129  ALA129      0.1694
    126  C          8.5740  -30.7120  -29.2340 C.2   129  ALA129      0.2592
    127  O          9.2540  -30.8770  -28.2220 O.2   129  ALA129     -0.2718
    128  CB         6.1760  -30.1040  -29.2900 C.3   129  ALA129      0.0304
    129  N          9.0130  -30.0870  -30.3170 N.am  130  ASP130     -0.1974
    130  CA        10.2260  -29.2610  -30.3490 C.3   130  ASP130      0.1709
    131  C         11.5250  -30.0160  -30.1240 C.2   130  ASP130      0.2293
    132  O         12.1630  -29.8260  -29.1030 O.2   130  ASP130     -0.2864
    133  CB        10.1300  -28.1490  -29.3130 C.3   130  ASP130      0.1436
    134  CG        10.9740  -26.9540  -29.6800 C.2   130  ASP130      0.3671
    135  OD1       12.2270  -27.0580  -29.6580 O.co2 130  ASP130     -0.2456
    136  OD2       10.3780  -25.8970  -30.0080 O.co2 130  ASP130     -0.2456
@<TRIPOS>BOND
     1    49    50    1
     2    50    51    1
     3    50    53    1
     4    51    52    2
     5    54    53    1
     6    54    56    1
     7    53    55    1
     8    28    27    2
     9    57    58    1
    10    27    26    1
    11    23    22    2
    12    22    21    1
    13    25    26    1
    14    58    59    1
    15    58    61    1
    16    60    59    2
    17    36    37    2
    18    36    35    1
    19    20    21    1
    20    59    64   am
    21    26    29    1
    22    21    24    1
    23    63    61    1
    24    64    65    1
    25    38    35    1
    26    38    39    1
    27    34    35    1
    28    29    30    1
    29    61    62    1
    30    65    68    1
    31    65    66    1
    32    30    31    1
    33    39    40    1
    34    40    41    1
    35    31    32    1
    36    68    69    1
    37    15    14    1
    38    15    16    2
    39    66    73   am
    40    66    67    2
    41    73    74    1
    42    77    74    1
    43    77    78    1
    44    14    13    1
    45    14    17    1
    46    32    33    1
    47    74    75    1
    48    69    70    1
    49    78    79   ar
    50    78    80   ar
    51    79    81   ar
    52    45    44    2
    53    18    17    1
    54    17    19    1
    55    70    71   ar
    56    70    72   ar
    57    80    82   ar
    58    44    43    1
    59     1     2    1
    60    12    11    2
    61    81    83   ar
    62     7     6    1
    63     6     5    1
    64     6     8    1
    65    47    46    1
    66    75    76    2
    67    75    85   am
    68    82    83   ar
    69    83    84    1
    70     5     2    1
    71     2     3    1
    72    43    46    1
    73    43    42    1
    74    11    10    1
    75    85    86    1
    76    46    48    1
    77     9     3   am
    78     9    10    1
    79     3     4    2
    80    86    87    1
    81    86    89    1
    82    90    91    1
    83    90    89    1
    84   130   129    1
    85   130   131    1
    86   130   133    1
    87   129   126   am
    88    91    92    1
    89   131   132    2
    90   136   134   ar
    91    87    88    2
    92   122   121    1
    93   134   135   ar
    94   134   133    1
    95   125   128    1
    96   125   126    1
    97   125   124    1
    98   126   127    2
    99   121   123    1
   100   121   120    1
   101   120   117    1
   102    93    94    1
   103    94    95    1
   104   117   118    1
   105   117   116    1
   106   118   119    2
   107    95    96    2
   108    95    97   am
   109    97    98    1
   110   114   113    2
   111    98   101    1
   112    98    99    1
   113   113   112    1
   114   101   102    1
   115   110   108   ar
   116    99   100    2
   117   112   115    1
   118   112   111    1
   119   108   107    1
   120   108   109   ar
   121   107   104    1
   122   104   103    1
   123   104   105    1
   124   105   106    2
