@<TRIPOS>MOLECULE
tmp/3en7A00.pdb
 131 120 0 0 0
SMALL
GASTEIGER

@<TRIPOS>ATOM
      1  N         -7.9710   14.3410   -8.3470 N.3    18  LEU18      -0.1231
      2  CA        -8.0230   13.7030   -7.0140 C.3    18  LEU18       0.1693
      3  C         -6.8740   14.0920   -6.0760 C.2    18  LEU18       0.2592
      4  O         -7.0560   14.0910   -4.8590 O.2    18  LEU18      -0.2718
      5  CB        -8.1400   12.1710   -7.1240 C.3    18  LEU18       0.0284
      6  CG        -9.4860   11.5790   -7.5800 C.3    18  LEU18       0.0019
      7  CD1       -9.3830   10.0900   -7.8410 C.3    18  LEU18       0.0001
      8  CD2      -10.6280   11.8800   -6.5990 C.3    18  LEU18       0.0001
      9  N         -5.7060   14.4160   -6.6460 N.am   19  GLY19      -0.1957
     10  CA        -4.5410   14.9440   -5.8960 C.3    19  GLY19       0.1869
     11  C         -3.3690   15.3490   -6.7920 C.2    19  GLY19       0.2309
     12  O         -3.1150   14.6920   -7.7960 O.2    19  GLY19      -0.2863
     13  N         -3.1230   12.7030   -9.7190 N.3    23  VAL23      -0.1245
     14  CA        -4.0470   11.5800   -9.8470 C.3    23  VAL23       0.1561
     15  C         -5.4670   12.0350  -10.2010 C.2    23  VAL23       0.2260
     16  O         -6.0830   12.7860   -9.4470 O.2    23  VAL23      -0.2867
     17  CB        -4.1030   10.7090   -8.5700 C.3    23  VAL23       0.0252
     18  CG1       -5.2000    9.6550   -8.7070 C.3    23  VAL23       0.0019
     19  CG2       -2.7670   10.0230   -8.3040 C.3    23  VAL23       0.0019
     20  N         -8.8080    5.0510  -12.5660 N.3    33  ALA33      -0.1245
     21  CA        -7.8530    6.0380  -12.0510 C.3    33  ALA33       0.1562
     22  C         -6.6890    6.2160  -13.0250 C.2    33  ALA33       0.2260
     23  O         -6.1980    5.2290  -13.6080 O.2    33  ALA33      -0.2867
     24  CB        -7.3250    5.5850  -10.7250 C.3    33  ALA33       0.0290
     25  N         -2.8470    7.8700  -12.8530 N.3    35  LYS35      -0.1245
     26  CA        -1.6860    8.5230  -12.2620 C.3    35  LYS35       0.1561
     27  C         -0.9610    9.1860  -13.4320 C.2    35  LYS35       0.2260
     28  O         -0.8390    8.5850  -14.5060 O.2    35  LYS35      -0.2867
     29  CB        -0.7930    7.4830  -11.5920 C.3    35  LYS35       0.0271
     30  CG         0.4910    8.0120  -10.9860 C.3    35  LYS35       0.0035
     31  CD         0.5120    7.9700   -9.4680 C.3    35  LYS35       0.0206
     32  CE         1.9640    7.9450   -9.0020 C.3    35  LYS35       0.1093
     33  NZ         2.1760    8.4200   -7.5950 N.3    35  LYS35      -0.1314
     34  N          4.5450   -3.4940  -11.5840 N.3    47  MET47      -0.1245
     35  CA         3.0950   -3.4840  -11.4860 C.3    47  MET47       0.1570
     36  C          2.4110   -4.3330  -12.5570 C.2    47  MET47       0.2261
     37  O          1.3000   -4.8090  -12.3330 O.2    47  MET47      -0.2867
     38  CB         2.5790   -2.0520  -11.5280 C.3    47  MET47       0.0387
     39  CG         1.1950   -1.8640  -10.9320 C.3    47  MET47       0.0595
     40  SD         0.9280   -0.1260  -10.5280 S.3    47  MET47      -0.1393
     41  CE         1.6940    0.0010   -8.8780 C.3    47  MET47       0.0692
     42  N         -3.9640   -3.1590   -5.9630 N.3    56  VAL56      -0.1245
     43  CA        -4.6470   -2.3550   -6.9760 C.3    56  VAL56       0.1561
     44  C         -4.1950   -2.7690   -8.3570 C.2    56  VAL56       0.2260
     45  O         -3.0060   -2.8410   -8.6180 O.2    56  VAL56      -0.2867
     46  CB        -4.3310   -0.8430   -6.8270 C.3    56  VAL56       0.0252
     47  CG1       -5.3870   -0.0220   -7.5700 C.3    56  VAL56       0.0019
     48  CG2       -4.2620   -0.4510   -5.3740 C.3    56  VAL56       0.0019
     49  N         -0.2980    6.2640  -15.9270 N.3    69  ILE69      -0.1245
     50  CA        -0.5600    4.9000  -15.4980 C.3    69  ILE69       0.1561
     51  C         -2.0350    4.8320  -15.1860 C.2    69  ILE69       0.2260
     52  O         -2.5660    5.7070  -14.4930 O.2    69  ILE69      -0.2867
     53  CB         0.2710    4.4760  -14.2850 C.3    69  ILE69       0.0252
     54  CG1        1.7650    4.5490  -14.6060 C.3    69  ILE69       0.0019
     55  CG2       -0.1030    3.0700  -13.8770 C.3    69  ILE69       0.0019
     56  CD1        2.6570    4.8450  -13.4130 C.3    69  ILE69       0.0001
     57  N         -5.2610    2.6150  -13.6850 N.3    71  THR71      -0.1203
     58  CA        -5.5860    1.4910  -12.8220 C.3    71  THR71       0.1994
     59  C         -7.0560    1.5010  -12.4650 C.2    71  THR71       0.2618
     60  O         -7.7480    2.4990  -12.7180 O.2    71  THR71      -0.2717
     61  CB        -4.7840    1.5340  -11.5130 C.3    71  THR71       0.1784
     62  OG1       -5.1520    2.6910  -10.7520 O.3    71  THR71      -0.2211
     63  CG2       -3.2980    1.5670  -11.7960 C.3    71  THR71       0.0376
     64  N         -7.5240    0.3990  -11.8690 N.am   72  GLU72      -0.1965
     65  CA        -8.8530    0.3460  -11.2540 C.3    72  GLU72       0.1733
     66  C         -9.0610    1.5240  -10.3060 C.2    72  GLU72       0.2616
     67  O         -8.1060    2.0360   -9.7210 O.2    72  GLU72      -0.2715
     68  CB        -9.0860   -0.9900  -10.5300 C.3    72  GLU72       0.0429
     69  CG        -8.4240   -1.1590   -9.1580 C.3    72  GLU72       0.1163
     70  CD        -8.7030   -2.5230   -8.5270 C.2    72  GLU72       0.3649
     71  OE1       -7.7460   -3.2720   -8.2470 O.co2  72  GLU72      -0.2457
     72  OE2       -9.8820   -2.8510   -8.3050 O.co2  72  GLU72      -0.2457
     73  N        -10.3080    1.9650  -10.1710 N.am   73  TYR73      -0.1960
     74  CA       -10.6300    3.0880   -9.3030 C.3    73  TYR73       0.1771
     75  C        -10.9970    2.6280   -7.8920 C.2    73  TYR73       0.2619
     76  O        -11.8630    1.7810   -7.7090 O.2    73  TYR73      -0.2715
     77  CB       -11.7440    3.9250   -9.9330 C.3    73  TYR73       0.0574
     78  CG       -12.2610    5.0500   -9.0690 C.ar   73  TYR73      -0.0198
     79  CD1      -11.5400    6.2430   -8.9260 C.ar   73  TYR73      -0.0009
     80  CD2      -13.4770    4.9250   -8.3990 C.ar   73  TYR73      -0.0009
     81  CE1      -12.0150    7.2800   -8.1120 C.ar   73  TYR73       0.0417
     82  CE2      -13.9560    5.9400   -7.5970 C.ar   73  TYR73       0.0417
     83  CZ       -13.2260    7.1140   -7.4560 C.ar   73  TYR73       0.1957
     84  OH       -13.7350    8.1170   -6.6680 O.3    73  TYR73      -0.2866
     85  N        -10.3240    3.1880   -6.8950 N.am   74  MET74      -0.1977
     86  CA       -10.5760    2.8440   -5.5080 C.3    74  MET74       0.1605
     87  C        -11.4030    3.9450   -4.8860 C.2    74  MET74       0.2287
     88  O        -10.8750    4.9980   -4.5290 O.2    74  MET74      -0.2864
     89  CB        -9.2620    2.6590   -4.7550 C.3    74  MET74       0.0413
     90  CG        -8.4930    1.4560   -5.2060 C.3    74  MET74       0.0598
     91  SD        -9.4540   -0.0680   -5.1050 S.3    74  MET74      -0.1393
     92  CE        -9.3460   -0.5060   -3.3580 C.3    74  MET74       0.0692
     93  N        -10.3040    6.4460   -1.5810 N.3    77  GLY77      -0.1210
     94  CA        -8.9630    7.0370   -1.4120 C.3    77  GLY77       0.1956
     95  C         -8.0060    6.2390   -0.5160 C.2    77  GLY77       0.2612
     96  O         -8.1920    5.0230   -0.3250 O.2    77  GLY77      -0.2717
     97  N         -6.9890    6.9130    0.0390 N.am   78  SER78      -0.1952
     98  CA        -6.0130    6.2400    0.9090 C.3    78  SER78       0.1924
     99  C         -6.6690    5.6990    2.1570 C.2    78  SER78       0.2314
    100  O         -7.6460    6.2670    2.6440 O.2    78  SER78      -0.2863
    101  CB        -4.8600    7.1720    1.3170 C.3    78  SER78       0.2116
    102  OG        -5.3340    8.2540    2.0940 O.3    78  SER78      -0.2180
    103  N         -6.4590    8.5700    4.7470 N.3    81  ASP81      -0.1239
    104  CA        -7.6390    9.4770    4.7100 C.3    81  ASP81       0.1674
    105  C         -8.9130    8.8470    5.2950 C.2    81  ASP81       0.2266
    106  O         -9.7490    9.5210    5.9060 O.2    81  ASP81      -0.2867
    107  CB        -7.9580    9.9310    3.2900 C.3    81  ASP81       0.1410
    108  CG        -6.8670   10.7940    2.6780 C.2    81  ASP81       0.3668
    109  OD1       -6.0520   11.4140    3.4160 O.co2  81  ASP81      -0.2456
    110  OD2       -6.8200   10.8510    1.4270 O.co2  81  ASP81      -0.2456
    111  N         -5.1190    1.5240   -0.5030 N.3   126  LEU126     -0.1245
    112  CA        -6.3750    2.0860   -1.0150 C.3   126  LEU126      0.1561
    113  C         -7.6160    1.2550   -0.6270 C.2   126  LEU126      0.2260
    114  O         -7.5850    0.0140   -0.6040 O.2   126  LEU126     -0.2867
    115  CB        -6.3010    2.2660   -2.5220 C.3   126  LEU126      0.0270
    116  CG        -5.3280    3.3030   -3.0620 C.3   126  LEU126      0.0019
    117  CD1       -5.0250    3.0520   -4.5160 C.3   126  LEU126      0.0001
    118  CD2       -5.9180    4.6910   -2.8870 C.3   126  LEU126      0.0001
    119  N         -0.9330   -0.5260   -2.8780 N.3   136  ALA136     -0.1231
    120  CA        -0.6990    0.3290   -4.0590 C.3   136  ALA136      0.1694
    121  C          0.7280    0.8380   -4.1080 C.2   136  ALA136      0.2592
    122  O          1.4630    0.7000   -3.1350 O.2   136  ALA136     -0.2718
    123  CB        -1.6480    1.5160   -4.0350 C.3   136  ALA136      0.0304
    124  N          1.1140    1.4470   -5.2250 N.am  137  ASP137     -0.1974
    125  CA         2.3360    2.2700   -5.2850 C.3   137  ASP137      0.1709
    126  C          3.6090    1.4760   -5.0570 C.2   137  ASP137      0.2293
    127  O          4.2090    1.5800   -4.0060 O.2   137  ASP137     -0.2864
    128  CB         2.2610    3.3770   -4.2220 C.3   137  ASP137      0.1436
    129  CG         3.4930    4.2720   -4.2130 C.2   137  ASP137      0.3671
    130  OD1        4.4230    4.0260   -3.4050 O.co2 137  ASP137     -0.2456
    131  OD2        3.5380    5.2230   -5.0270 O.co2 137  ASP137     -0.2456
@<TRIPOS>BOND
     1    49    50    1
     2    50    51    1
     3    50    53    1
     4    51    52    2
     5    54    53    1
     6    54    56    1
     7    28    27    2
     8    53    55    1
     9    57    58    1
    10    23    22    2
    11    27    26    1
    12    22    21    1
    13    25    26    1
    14    58    59    1
    15    58    61    1
    16    60    59    2
    17    20    21    1
    18    36    37    2
    19    36    35    1
    20    59    64   am
    21    26    29    1
    22    21    24    1
    23    64    65    1
    24    63    61    1
    25    29    30    1
    26    34    35    1
    27    38    35    1
    28    38    39    1
    29    61    62    1
    30    65    68    1
    31    65    66    1
    32    30    31    1
    33    39    40    1
    34    68    69    1
    35    40    41    1
    36    66    73   am
    37    66    67    2
    38    15    14    1
    39    15    16    2
    40    73    74    1
    41    77    74    1
    42    77    78    1
    43    14    13    1
    44    14    17    1
    45    31    32    1
    46    74    75    1
    47    69    70    1
    48    78    79   ar
    49    78    80   ar
    50    32    33    1
    51    79    81   ar
    52    18    17    1
    53    45    44    2
    54    17    19    1
    55    70    72   ar
    56    70    71   ar
    57    80    82   ar
    58    44    43    1
    59     1     2    1
    60    81    83   ar
    61    75    76    2
    62    75    85   am
    63     7     6    1
    64    12    11    2
    65    82    83   ar
    66     6     5    1
    67     6     8    1
    68    47    46    1
    69    83    84    1
    70     5     2    1
    71     2     3    1
    72    43    46    1
    73    43    42    1
    74    85    86    1
    75    46    48    1
    76    11    10    1
    77     9     3   am
    78     9    10    1
    79     3     4    2
    80    86    87    1
    81    86    89    1
    82   125   124    1
    83   125   126    1
    84   125   128    1
    85   124   121   am
    86    90    91    1
    87    90    89    1
    88    91    92    1
    89   126   127    2
    90   131   129   ar
    91    87    88    2
    92   117   116    1
    93   128   129    1
    94   129   130   ar
    95   121   120    1
    96   121   122    2
    97   120   123    1
    98   120   119    1
    99   116   118    1
   100   116   115    1
   101   115   112    1
   102    93    94    1
   103    94    95    1
   104   112   113    1
   105   112   111    1
   106   113   114    2
   107    95    96    2
   108    95    97   am
   109    97    98    1
   110    98   101    1
   111    98    99    1
   112   101   102    1
   113   110   108   ar
   114    99   100    2
   115   108   107    1
   116   108   109   ar
   117   107   104    1
   118   104   103    1
   119   104   105    1
   120   105   106    2
