@<TRIPOS>MOLECULE
tmp/3en8A00.pdb
 95 94 0 0 0
SMALL
GASTEIGER

@<TRIPOS>ATOM
      1  N         -1.1070   14.9070   11.9360 N.3    37  TYR37      -0.1241
      2  CA        -1.0690   15.9360   12.9430 C.3    37  TYR37       0.1605
      3  C         -2.5050   16.3430   13.2820 C.2    37  TYR37       0.2264
      4  O         -3.0690   17.2400   12.6280 O.2    37  TYR37      -0.2867
      5  CB        -0.3160   17.1880   12.4360 C.3    37  TYR37       0.0534
      6  CG         1.0670   16.9490   11.8630 C.ar   37  TYR37      -0.0201
      7  CD1        1.9330   15.9980   12.4140 C.ar   37  TYR37      -0.0009
      8  CD2        1.5320   17.7030   10.8050 C.ar   37  TYR37      -0.0009
      9  CE1        3.1950   15.8020   11.9130 C.ar   37  TYR37       0.0417
     10  CE2        2.8040   17.5140   10.2940 C.ar   37  TYR37       0.0417
     11  CZ         3.6330   16.5560   10.8480 C.ar   37  TYR37       0.1957
     12  OH         4.9010   16.3770   10.3490 O.3    37  TYR37      -0.2866
     13  N         -3.7410   18.1380   15.4130 N.3    39  GLN39      -0.1245
     14  CA        -3.9190   19.5240   15.8850 C.3    39  GLN39       0.1566
     15  C         -4.2610   20.4450   14.7320 C.2    39  GLN39       0.2260
     16  O         -4.9020   21.5060   14.8930 O.2    39  GLN39      -0.2867
     17  CB        -2.6740   20.0570   16.5910 C.3    39  GLN39       0.0367
     18  CG        -2.4390   19.4760   17.9680 C.3    39  GLN39       0.0905
     19  CD        -1.0020   19.6880   18.4170 C.2    39  GLN39       0.2608
     20  OE1       -0.1120   18.8370   18.2130 O.2    39  GLN39      -0.2717
     21  NE2       -0.7620   20.8270   19.0100 N.am   39  GLN39      -0.0878
     22  N         -3.8830   17.7100    9.4420 N.3    42  GLU42      -0.1245
     23  CA        -3.0080   17.3630    8.3100 C.3    42  GLU42       0.1567
     24  C         -2.6450   15.8900    8.3400 C.2    42  GLU42       0.2260
     25  O         -2.3910   15.3090    9.4080 O.2    42  GLU42      -0.2867
     26  CB        -1.7220   18.1740    8.3050 C.3    42  GLU42       0.0388
     27  CG        -1.9280   19.6260    8.1190 C.3    42  GLU42       0.1160
     28  CD        -0.6520   20.3780    8.2650 C.2    42  GLU42       0.3649
     29  OE1       -0.2560   20.6170    9.4200 O.co2  42  GLU42      -0.2457
     30  OE2       -0.0520   20.7600    7.2340 O.co2  42  GLU42      -0.2457
     31  N         11.6010   21.5460    6.6320 N.3    56  HIS56      -0.1227
     32  CA        11.2380   22.3110    7.8240 C.3    56  HIS56       0.1737
     33  C         10.3960   21.5020    8.8030 C.2    56  HIS56       0.2438
     34  O          9.3990   20.8980    8.4050 O.2    56  HIS56      -0.2733
     35  CB        10.4930   23.5800    7.4190 C.3    56  HIS56       0.0758
     36  CG        10.0900   24.4250    8.5820 C.ar   56  HIS56       0.0818
     37  ND1       10.8180   25.5220    8.9920 N.ar   56  HIS56      -0.2268
     38  CD2        9.0580   24.3090    9.4520 C.ar   56  HIS56       0.1154
     39  CE1       10.2400   26.0570   10.0520 C.ar   56  HIS56       0.1986
     40  NE2        9.1680   25.3430   10.3500 N.ar   56  HIS56      -0.2212
     41  N         10.7570   21.5340   10.1040 N.am   57  PRO57      -0.2729
     42  CA        11.7430   22.4470   10.7010 C.3    57  PRO57       0.1401
     43  C         13.1940   21.9710   10.6260 C.2    57  PRO57       0.2269
     44  O         14.1120   22.6530   11.0750 O.2    57  PRO57      -0.2865
     45  CB        11.2970   22.5100   12.1690 C.3    57  PRO57       0.0296
     46  CG        10.7220   21.1590   12.4360 C.3    57  PRO57       0.0237
     47  CD        10.1200   20.6760   11.1200 C.3    57  PRO57       0.0939
     48  N         12.7070   27.1260   22.5620 N.3    86  ARG86      -0.1231
     49  CA        11.2710   26.8810   22.7780 C.3    86  ARG86       0.1679
     50  C         10.9540   25.3950   22.6300 C.2    86  ARG86       0.2434
     51  O         10.8860   24.8630   21.5330 O.2    86  ARG86      -0.2733
     52  CB        10.3720   27.6780   21.8280 C.3    86  ARG86       0.0321
     53  CG        10.5100   29.1880   21.9820 C.3    86  ARG86       0.0489
     54  CD         9.4510   29.9390   21.1740 C.3    86  ARG86       0.2205
     55  NE         9.7600   30.0480   19.7440 N.pl3  86  ARG86      -0.0865
     56  CZ         9.6760   29.0520   18.8560 C.cat  86  ARG86       0.5346
     57  NH1        9.2940   27.8330   19.2270 N.pl3  86  ARG86       0.1354
     58  NH2        9.9150   29.2930   17.5700 N.pl3  86  ARG86       0.1354
     59  N         10.7590   24.7280   23.7420 N.am   87  PRO87      -0.2718
     60  CA        10.5750   23.2920   23.6420 C.3    87  PRO87       0.1535
     61  C          9.1320   22.9040   23.4080 C.2    87  PRO87       0.2598
     62  O          8.1630   23.6490   23.7140 O.2    87  PRO87      -0.2715
     63  CB        11.0480   22.8120   25.0070 C.3    87  PRO87       0.0310
     64  CG        10.4750   23.9040   25.9070 C.3    87  PRO87       0.0237
     65  CD        10.8330   25.1650   25.1510 C.3    87  PRO87       0.0939
     66  N          9.0060   21.7400   22.8200 N.am   88  ALA88      -0.1978
     67  CA         7.7120   21.1020   22.6530 C.3    88  ALA88       0.1597
     68  C          7.7430   19.7220   23.2690 C.2    88  ALA88       0.2287
     69  O          8.6220   18.9130   22.9880 O.2    88  ALA88      -0.2864
     70  CB         7.3520   21.0220   21.2060 C.3    88  ALA88       0.0319
     71  N          2.1810   17.9590   19.4670 N.3   107  PHE107     -0.1227
     72  CA         3.2220   18.9020   19.8590 C.3   107  PHE107      0.1736
     73  C          2.6200   19.8780   20.8290 C.2   107  PHE107      0.2596
     74  O          1.7690   20.6740   20.4600 O.2   107  PHE107     -0.2718
     75  CB         3.7620   19.6460   18.6340 C.3   107  PHE107      0.0547
     76  CG         4.2000   18.7380   17.5090 C.ar  107  PHE107     -0.0202
     77  CD1        5.4920   18.2390   17.4780 C.ar  107  PHE107     -0.0042
     78  CD2        3.3170   18.3890   16.4790 C.ar  107  PHE107     -0.0042
     79  CE1        5.9080   17.4140   16.4390 C.ar  107  PHE107     -0.0003
     80  CE2        3.7400   17.5380   15.4350 C.ar  107  PHE107     -0.0003
     81  CZ         5.0200   17.0670   15.4320 C.ar  107  PHE107     -0.0000
     82  N          3.0110   19.7460   22.0890 N.am  108  SER108     -0.1938
     83  CA         2.3800   20.4890   23.1680 C.3   108  SER108      0.2055
     84  C          3.3650   21.4350   23.8610 C.2   108  SER108      0.2643
     85  O          4.5810   21.2120   23.8770 O.2   108  SER108     -0.2714
     86  CB         1.6900   19.5190   24.1490 C.3   108  SER108      0.2130
     87  OG         2.5920   18.9240   25.0250 O.3   108  SER108     -0.2179
     88  N          2.8100   22.5120   24.4030 N.am  109  ASP109     -0.1971
     89  CA         3.5970   23.4920   25.1520 C.3   109  ASP109      0.1709
     90  C          3.7350   23.1250   26.6310 C.2   109  ASP109      0.2293
     91  O          2.8380   22.4840   27.2030 O.2   109  ASP109     -0.2864
     92  CB         2.9580   24.8770   25.0730 C.3   109  ASP109      0.1436
     93  CG         2.9970   25.4500   23.6880 C.2   109  ASP109      0.3671
     94  OD1        4.0980   25.6170   23.1400 O.co2 109  ASP109     -0.2456
     95  OD2        1.9170   25.7460   23.1550 O.co2 109  ASP109     -0.2456
@<TRIPOS>BOND
     1    31    32    1
     2    30    28   ar
     3    35    32    1
     4    35    36    1
     5    32    33    1
     6    27    28    1
     7    27    26    1
     8    28    29   ar
     9    26    23    1
    10    23    24    1
    11    23    22    1
    12    24    25    2
    13    34    33    2
    14    36    37   ar
    15    36    38   ar
    16    33    41   am
    17    37    39   ar
    18    38    40   ar
    19    39    40   ar
    20    41    42    1
    21    41    47    1
    22    10     8   ar
    23    10    11   ar
    24    12    11    1
    25    43    42    1
    26    43    44    2
    27    42    45    1
    28     8     6   ar
    29    11     9   ar
    30    47    46    1
    31     6     7   ar
    32     6     5    1
    33     9     7   ar
    34     1     2    1
    35    45    46    1
    36     5     2    1
    37     4     3    2
    38     2     3    1
    39    15    16    2
    40    15    14    1
    41    13    14    1
    42    81    80   ar
    43    81    79   ar
    44    80    78   ar
    45    14    17    1
    46    79    77   ar
    47    78    76   ar
    48    17    18    1
    49    77    76   ar
    50    76    75    1
    51    58    56    1
    52    18    19    1
    53    20    19    2
    54    19    21   am
    55    75    72    1
    56    56    57    1
    57    56    55    2
    58    71    72    1
    59    55    54    1
    60    72    73    1
    61    74    73    2
    62    73    82   am
    63    54    53    1
    64    70    67    1
    65    51    50    2
    66    52    53    1
    67    52    49    1
    68    82    83    1
    69    48    49    1
    70    50    49    1
    71    50    59   am
    72    67    66    1
    73    67    68    1
    74    66    61   am
    75    69    68    2
    76    94    93   ar
    77    95    93   ar
    78    83    84    1
    79    83    86    1
    80    61    60    1
    81    61    62    2
    82    60    59    1
    83    60    63    1
    84    93    92    1
    85    59    65    1
    86    84    85    2
    87    84    88   am
    88    86    87    1
    89    88    89    1
    90    63    64    1
    91    92    89    1
    92    65    64    1
    93    89    90    1
    94    90    91    2
