@<TRIPOS>MOLECULE
tmp/3eneA00.pdb
 169 160 0 0 0
SMALL
GASTEIGER

@<TRIPOS>ATOM
      1  N         48.1130   15.2260   40.9620 N.3   568  MET568     -0.1245
      2  CA        47.8770   16.1220   39.8350 C.3   568  MET568      0.1570
      3  C         47.0300   17.2520   40.3320 C.2   568  MET568      0.2261
      4  O         46.3150   17.1090   41.3270 O.2   568  MET568     -0.2867
      5  CB        47.1160   15.4100   38.7200 C.3   568  MET568      0.0387
      6  CG        47.9200   15.1210   37.4770 C.3   568  MET568      0.0595
      7  SD        47.0450   14.0120   36.3810 S.3   568  MET568     -0.1393
      8  CE        47.0940   12.5700   37.3000 C.3   568  MET568      0.0692
      9  N         43.7340   13.2010   41.2540 N.3   574  PRO574     -0.2116
     10  CA        44.3020   11.9620   40.7420 C.3   574  PRO574      0.1372
     11  C         45.7840   11.7690   41.0080 C.2   574  PRO574      0.2244
     12  O         46.5640   12.7070   40.9580 O.2   574  PRO574     -0.2868
     13  CB        44.0380   12.0520   39.2300 C.3   574  PRO574      0.0268
     14  CG        43.9460   13.4910   38.9390 C.3   574  PRO574      0.0207
     15  CD        43.3770   14.1270   40.1610 C.3   574  PRO574      0.0892
     16  N         49.2070   10.6200   39.7070 N.3   576  TRP576     -0.1241
     17  CA        50.0520   10.3280   38.5630 C.3   576  TRP576      0.1605
     18  C         51.1360    9.4090   39.0720 C.2   576  TRP576      0.2264
     19  O         51.8990    9.7720   39.9240 O.2   576  TRP576     -0.2867
     20  CB        50.6050   11.6260   38.0490 C.3   576  TRP576      0.0550
     21  CG        51.6320   11.5830   37.0160 C.ar  576  TRP576      0.0003
     22  CD1       52.9490   11.2290   37.1740 C.ar  576  TRP576      0.0946
     23  CD2       51.5000   12.0330   35.6710 C.ar  576  TRP576      0.0152
     24  NE1       53.6340   11.4130   35.9990 N.ar  576  TRP576     -0.2442
     25  CE2       52.7700   11.9020   35.0540 C.ar  576  TRP576      0.0810
     26  CE3       50.4250   12.5070   34.9030 C.ar  576  TRP576      0.0012
     27  CZ2       52.9950   12.2530   33.7350 C.ar  576  TRP576      0.0191
     28  CZ3       50.6400   12.8360   33.5900 C.ar  576  TRP576      0.0001
     29  CH2       51.9200   12.7170   33.0140 C.ar  576  TRP576      0.0015
     30  N         47.6100    6.8580   35.6830 N.3   595  ILE595     -0.1245
     31  CA        46.8190    7.7470   36.5040 C.3   595  ILE595      0.1561
     32  C         45.7140    6.9850   37.2380 C.2   595  ILE595      0.2260
     33  O         44.9890    6.2190   36.6400 O.2   595  ILE595     -0.2867
     34  CB        46.1990    8.8260   35.6450 C.3   595  ILE595      0.0252
     35  CG1       47.2790    9.7780   35.1440 C.3   595  ILE595      0.0019
     36  CG2       45.1440    9.6100   36.4320 C.3   595  ILE595      0.0019
     37  CD1       46.7660   10.8690   34.2050 C.3   595  ILE595      0.0001
     38  N         42.2970    7.8860   39.2780 N.3   597  LYS597     -0.1245
     39  CA        41.3660    8.9850   39.5000 C.3   597  LYS597      0.1561
     40  C         40.0270    8.5020   40.0510 C.2   597  LYS597      0.2260
     41  O         39.4770    7.5110   39.5840 O.2   597  LYS597     -0.2867
     42  CB        41.1450    9.7700   38.2000 C.3   597  LYS597      0.0271
     43  CG        40.0540   10.8480   38.2780 C.3   597  LYS597      0.0035
     44  CD        40.2940   12.0140   37.2950 C.3   597  LYS597      0.0206
     45  CE        39.0570   12.3810   36.4660 C.3   597  LYS597      0.1093
     46  NZ        38.2690   13.4850   37.0610 N.3   597  LYS597     -0.1314
     47  N         34.4780    6.2270   34.5470 N.3   602  LEU602     -0.1245
     48  CA        35.4880    5.7290   33.6130 C.3   602  LEU602      0.1561
     49  C         34.9440    4.6320   32.6880 C.2   602  LEU602      0.2260
     50  O         35.5540    4.3170   31.6930 O.2   602  LEU602     -0.2867
     51  CB        36.6790    5.1650   34.3770 C.3   602  LEU602      0.0270
     52  CG        37.9990    5.9270   34.5690 C.3   602  LEU602      0.0019
     53  CD1       38.0720    7.3160   33.9080 C.3   602  LEU602      0.0001
     54  CD2       38.2700    6.0070   36.0400 C.3   602  LEU602      0.0001
     55  N         34.2490    6.5390   29.5760 N.3   605  ASP605     -0.1239
     56  CA        35.5080    6.6190   28.8590 C.3   605  ASP605      0.1674
     57  C         35.8510    5.3000   28.1350 C.2   605  ASP605      0.2266
     58  O         36.2580    5.3280   26.9820 O.2   605  ASP605     -0.2867
     59  CB        36.6440    6.9800   29.8000 C.3   605  ASP605      0.1410
     60  CG        36.7000    8.4370   30.0990 C.2   605  ASP605      0.3668
     61  OD1       35.9700    8.8820   31.0020 O.co2 605  ASP605     -0.2456
     62  OD2       37.4620    9.2250   29.5040 O.co2 605  ASP605     -0.2456
     63  N         43.8050    6.2000   24.4940 N.3   631  TYR631     -0.1241
     64  CA        44.6090    5.7680   25.6500 C.3   631  TYR631      0.1605
     65  C         44.0000    4.5570   26.3590 C.2   631  TYR631      0.2264
     66  O         42.8010    4.3310   26.3050 O.2   631  TYR631     -0.2867
     67  CB        44.7520    6.9150   26.6570 C.3   631  TYR631      0.0534
     68  CG        43.4740    7.6480   26.9360 C.ar  631  TYR631     -0.0201
     69  CD1       42.6500    7.2520   27.9580 C.ar  631  TYR631     -0.0009
     70  CD2       43.0900    8.7570   26.1680 C.ar  631  TYR631     -0.0009
     71  CE1       41.4610    7.9260   28.2040 C.ar  631  TYR631      0.0417
     72  CE2       41.9220    9.4330   26.4150 C.ar  631  TYR631      0.0417
     73  CZ        41.1100    9.0130   27.4230 C.ar  631  TYR631      0.1957
     74  OH        39.9420    9.6720   27.6990 O.3   631  TYR631     -0.2866
     75  N         44.1550    4.9880   34.0550 N.3   643  ILE643     -0.1231
     76  CA        44.2770    5.6110   32.7520 C.3   643  ILE643      0.1692
     77  C         45.7390    5.6460   32.3760 C.2   643  ILE643      0.2592
     78  O         46.5450    6.1610   33.1210 O.2   643  ILE643     -0.2718
     79  CB        43.7780    7.0670   32.8150 C.3   643  ILE643      0.0266
     80  CG1       42.3390    7.1520   33.3430 C.3   643  ILE643      0.0019
     81  CG2       43.9300    7.7100   31.4620 C.3   643  ILE643      0.0020
     82  CD1       42.0610    8.3580   34.1760 C.3   643  ILE643      0.0001
     83  N         46.0840    5.1080   31.2190 N.am  644  GLU644     -0.1966
     84  CA        47.4450    5.2030   30.6920 C.3   644  GLU644      0.1733
     85  C         47.9510    6.6540   30.5670 C.2   644  GLU644      0.2616
     86  O         47.2360    7.5360   30.0660 O.2   644  GLU644     -0.2715
     87  CB        47.4760    4.5420   29.3240 C.3   644  GLU644      0.0429
     88  CG        48.7960    4.5960   28.5750 C.3   644  GLU644      0.1163
     89  CD        48.7220    3.9930   27.1750 C.2   644  GLU644      0.3649
     90  OE1       49.7830    3.6320   26.6800 O.co2 644  GLU644     -0.2457
     91  OE2       47.6310    3.8870   26.5550 O.co2 644  GLU644     -0.2457
     92  N         49.1880    6.8790   31.0210 N.am  645  ILE645     -0.1963
     93  CA        49.8720    8.1370   30.8090 C.3   645  ILE645      0.1727
     94  C         50.5300    8.1360   29.4390 C.2   645  ILE645      0.2616
     95  O         51.4300    7.3480   29.1710 O.2   645  ILE645     -0.2715
     96  CB        50.9260    8.4120   31.9290 C.3   645  ILE645      0.0290
     97  CG1       50.2170    8.9250   33.1790 C.3   645  ILE645      0.0022
     98  CG2       51.9420    9.4370   31.4840 C.3   645  ILE645      0.0023
     99  CD1       51.0430    8.9510   34.4260 C.3   645  ILE645      0.0001
    100  N         50.0690    9.0290   28.5770 N.am  646  VAL646     -0.1977
    101  CA        50.6650    9.2080   27.2630 C.3   646  VAL646      0.1596
    102  C         51.8560   10.0910   27.4140 C.2   646  VAL646      0.2287
    103  O         51.7410   11.1620   27.9700 O.2   646  VAL646     -0.2864
    104  CB        49.7130    9.9140   26.3110 C.3   646  VAL646      0.0276
    105  CG1       50.4450   10.3010   24.9870 C.3   646  VAL646      0.0022
    106  CG2       48.5140    9.0600   26.0760 C.3   646  VAL646      0.0022
    107  N         53.3250   14.6380   26.3810 N.3   649  ALA649     -0.1231
    108  CA        52.0280   15.1770   26.0910 C.3   649  ALA649      0.1694
    109  C         51.6400   16.2030   27.1450 C.2   649  ALA649      0.2593
    110  O         52.0420   16.1320   28.3050 O.2   649  ALA649     -0.2718
    111  CB        51.0430   14.0810   26.0380 C.3   649  ALA649      0.0304
    112  N         50.8870   17.1900   26.7100 N.am  650  THR650     -0.1939
    113  CA        50.4200   18.2360   27.5810 C.3   650  THR650      0.2028
    114  C         49.1070   18.7220   27.0240 C.2   650  THR650      0.2642
    115  O         48.8170   18.5450   25.8590 O.2   650  THR650     -0.2714
    116  CB        51.4390   19.4170   27.7340 C.3   650  THR650      0.1808
    117  OG1       51.0990   20.4880   26.8460 O.3   650  THR650     -0.2208
    118  CG2       52.8430   19.0410   27.2860 C.3   650  THR650      0.0379
    119  N         48.3070   19.3070   27.8890 N.am  651  THR651     -0.1950
    120  CA        47.0070   19.8210   27.5100 C.3   651  THR651      0.1897
    121  C         47.1370   21.1190   26.7210 C.2   651  THR651      0.2313
    122  O         48.1160   21.8370   26.8540 O.2   651  THR651     -0.2863
    123  CB        46.1720   20.0320   28.7930 C.3   651  THR651      0.1794
    124  OG1       46.0270   18.7790   29.4870 O.3   651  THR651     -0.2208
    125  CG2       44.7280   20.3760   28.4670 C.3   651  THR651      0.0378
    126  N         47.1290   24.0730   29.0570 N.3   654  LYS654     -0.1245
    127  CA        48.4390   24.2200   29.6890 C.3   654  LYS654      0.1561
    128  C         49.4110   24.9540   28.7530 C.2   654  LYS654      0.2260
    129  O         50.1320   25.8260   29.1800 O.2   654  LYS654     -0.2867
    130  CB        48.9990   22.8370   30.0690 C.3   654  LYS654      0.0271
    131  CG        49.3500   22.6290   31.5480 C.3   654  LYS654      0.0035
    132  CD        48.4100   21.5980   32.2670 C.3   654  LYS654      0.0206
    133  CE        47.4140   22.2910   33.2270 C.3   654  LYS654      0.1093
    134  NZ        47.9300   22.5050   34.6290 N.3   654  LYS654     -0.1314
    135  N         44.4020   17.4050   24.3970 N.3   717  MET717     -0.1245
    136  CA        45.8270   17.2540   24.6010 C.3   717  MET717      0.1570
    137  C         46.5620   17.1550   23.2530 C.2   717  MET717      0.2261
    138  O         45.9290   17.0040   22.2140 O.2   717  MET717     -0.2867
    139  CB        46.0880   16.0060   25.4360 C.3   717  MET717      0.0387
    140  CG        45.6270   16.1000   26.8710 C.3   717  MET717      0.0595
    141  SD        46.4530   14.8790   27.8960 S.3   717  MET717     -0.1393
    142  CE        47.8900   15.7360   28.3360 C.3   717  MET717      0.0692
    143  N         44.7420   14.6630   20.8760 N.3   725  PHE725     -0.1241
    144  CA        43.7550   13.6940   21.3650 C.3   725  PHE725      0.1605
    145  C         42.8020   14.2330   22.4380 C.2   725  PHE725      0.2264
    146  O         43.1930   15.0330   23.2830 O.2   725  PHE725     -0.2867
    147  CB        44.4070   12.3670   21.8150 C.3   725  PHE725      0.0534
    148  CG        45.4150   12.4960   22.9390 C.ar  725  PHE725     -0.0203
    149  CD1       45.1220   12.0180   24.1990 C.ar  725  PHE725     -0.0042
    150  CD2       46.6950   12.9830   22.7010 C.ar  725  PHE725     -0.0042
    151  CE1       46.0500   12.0930   25.2340 C.ar  725  PHE725     -0.0003
    152  CE2       47.6080   13.0690   23.7050 C.ar  725  PHE725     -0.0003
    153  CZ        47.2870   12.6240   24.9980 C.ar  725  PHE725     -0.0000
    154  N         40.4000   13.8350   25.7760 N.3   727  ILE727     -0.1231
    155  CA        40.4380   13.0520   27.0270 C.3   727  ILE727      0.1692
    156  C         39.2040   13.3030   27.9060 C.2   727  ILE727      0.2592
    157  O         38.4330   14.1880   27.6360 O.2   727  ILE727     -0.2718
    158  CB        41.7260   13.3280   27.8540 C.3   727  ILE727      0.0266
    159  CG1       41.8480   14.7970   28.2830 C.3   727  ILE727      0.0019
    160  CG2       42.9510   12.9320   27.0970 C.3   727  ILE727      0.0020
    161  CD1       42.7310   15.0090   29.5740 C.3   727  ILE727      0.0001
    162  N         39.0530   12.5110   28.9640 N.am  728  ASP728     -0.1974
    163  CA        37.9990   12.6510   29.9910 C.3   728  ASP728      0.1709
    164  C         36.5600   12.7660   29.4510 C.2   728  ASP728      0.2293
    165  O         35.8220   13.6960   29.7060 O.2   728  ASP728     -0.2864
    166  CB        38.3360   13.7910   30.9430 C.3   728  ASP728      0.1436
    167  CG        37.7490   13.5750   32.3240 C.2   728  ASP728      0.3671
    168  OD1       37.9930   14.4060   33.2420 O.co2 728  ASP728     -0.2456
    169  OD2       37.0250   12.5900   32.5770 O.co2 728  ASP728     -0.2456
@<TRIPOS>BOND
     1   143   144    1
     2   144   147    1
     3   144   145    1
     4   147   148    1
     5   138   137    2
     6   145   146    2
     7   150   148   ar
     8   150   152   ar
     9   148   149   ar
    10   137   136    1
    11   152   153   ar
    12   149   151   ar
    13   135   136    1
    14    63    64    1
    15   136   139    1
    16   105   104    1
    17   153   151   ar
    18   139   140    1
    19    64    65    1
    20    64    67    1
    21   154   155    1
    22   115   114    2
    23   111   108    1
    24   106   104    1
    25   108   107    1
    26   108   109    1
    27    70    72   ar
    28    70    68   ar
    29    66    65    2
    30   104   101    1
    31    72    73   ar
    32    91    89   ar
    33    67    68    1
    34    90    89   ar
    35   112   109   am
    36   112   113    1
    37   121   122    2
    38   121   120    1
    39   117   116    1
    40   140   141    1
    41    68    69   ar
    42    58    57    2
    43   114   113    1
    44   114   119   am
    45   155   158    1
    46   155   156    1
    47   160   158    1
    48   109   110    2
    49    89    88    1
    50   101   102    1
    51   101   100    1
    52   118   116    1
    53   102   103    2
    54    73    74    1
    55    73    71   ar
    56   120   119    1
    57   120   123    1
    58   113   116    1
    59   157   156    2
    60   158   159    1
    61   141   142    1
    62   156   162   am
    63    69    71   ar
    64    57    56    1
    65   159   161    1
    66   125   123    1
    67    88    87    1
    68   100    94   am
    69   128   129    2
    70   128   127    1
    71   123   124    1
    72    56    55    1
    73    56    59    1
    74   162   163    1
    75   126   127    1
    76    95    94    2
    77    87    84    1
    78    94    93    1
    79   164   165    2
    80   164   163    1
    81    62    60   ar
    82   127   130    1
    83    59    60    1
    84   163   166    1
    85    86    85    2
    86   130   131    1
    87    60    61   ar
    88    85    84    1
    89    85    92   am
    90    84    83    1
    91    93    92    1
    92    93    96    1
    93   166   167    1
    94    83    77   am
    95    81    79    1
    96    98    96    1
    97   131   132    1
    98    50    49    2
    99    96    97    1
   100   132   133    1
   101   167   169   ar
   102   167   168   ar
   103    77    76    1
   104    77    78    2
   105    49    48    1
   106    76    79    1
   107    76    75    1
   108    79    80    1
   109    29    28   ar
   110    29    27   ar
   111    97    99    1
   112   133   134    1
   113    80    82    1
   114    28    26   ar
   115    48    51    1
   116    48    47    1
   117    27    25   ar
   118    53    52    1
   119    37    35    1
   120    51    52    1
   121    52    54    1
   122    26    23   ar
   123    25    23   ar
   124    25    24   ar
   125    35    34    1
   126    34    36    1
   127    34    31    1
   128    23    21   ar
   129    30    31    1
   130    24    22   ar
   131     7     8    1
   132     7     6    1
   133    45    46    1
   134    45    44    1
   135    31    32    1
   136    33    32    2
   137    21    22   ar
   138    21    20    1
   139    44    43    1
   140     6     5    1
   141    20    17    1
   142    42    43    1
   143    42    39    1
   144    17    18    1
   145    17    16    1
   146     5     2    1
   147    14    13    1
   148    14    15    1
   149    18    19    2
   150    13    10    1
   151    38    39    1
   152    39    40    1
   153    41    40    2
   154     2     3    1
   155     2     1    1
   156    15     9    1
   157     3     4    2
   158    10    11    1
   159    10     9    1
   160    12    11    2
