@<TRIPOS>MOLECULE
tmp/3engA00.pdb
 110 107 0 0 0
SMALL
GASTEIGER

@<TRIPOS>ATOM
      1  N        -23.8090   25.4630    1.0680 N.3     6  THR6       -0.1203
      2  CA       -23.3750   26.5550    1.9230 C.3     6  THR6        0.1994
      3  C        -23.8750   26.1580    3.3180 C.2     6  THR6        0.2618
      4  O        -24.4060   25.0450    3.4370 O.2     6  THR6       -0.2717
      5  CB       -23.8980   27.9450    1.5450 C.3     6  THR6        0.1784
      6  OG1      -25.3220   27.9120    1.3870 O.3     6  THR6       -0.2211
      7  CG2      -23.2490   28.4490    0.2520 C.3     6  THR6        0.0376
      8  N        -23.6930   26.9770    4.3340 N.am    7  ARG7       -0.1965
      9  CA       -24.1990   26.6220    5.6630 C.3     7  ARG7        0.1729
     10  C        -24.8770   27.8440    6.2620 C.2     7  ARG7        0.2616
     11  O        -24.4810   28.9750    5.9290 O.2     7  ARG7       -0.2715
     12  CB       -23.0730   26.1840    6.6110 C.3     7  ARG7        0.0348
     13  CG       -21.9290   27.1810    6.6930 C.3     7  ARG7        0.0492
     14  CD       -20.7850   26.6670    7.5550 C.3     7  ARG7        0.2205
     15  NE       -19.7560   27.7090    7.6900 N.pl3   7  ARG7       -0.0865
     16  CZ       -18.7600   27.9150    6.8360 C.cat   7  ARG7        0.5346
     17  NH1      -18.5710   27.1870    5.7400 N.pl3   7  ARG7        0.1354
     18  NH2      -17.8830   28.9050    7.0500 N.pl3   7  ARG7        0.1354
     19  N        -25.8800   27.6290    7.1090 N.am    8  TYR8       -0.1974
     20  CA       -26.5500   28.7470    7.7550 C.3     8  TYR8        0.1639
     21  C        -27.2870   28.3360    9.0250 C.2     8  TYR8        0.2290
     22  O        -27.6420   27.1580    9.2030 O.2     8  TYR8       -0.2864
     23  CB       -27.5960   29.3670    6.7960 C.3     8  TYR8        0.0560
     24  CG       -28.9880   28.7750    6.8550 C.ar    8  TYR8       -0.0198
     25  CD1      -29.2900   27.5010    6.4010 C.ar    8  TYR8       -0.0009
     26  CD2      -30.0290   29.5360    7.3910 C.ar    8  TYR8       -0.0009
     27  CE1      -30.5770   26.9860    6.4800 C.ar    8  TYR8        0.0417
     28  CE2      -31.3190   29.0480    7.4720 C.ar    8  TYR8        0.0417
     29  CZ       -31.5850   27.7710    7.0080 C.ar    8  TYR8        0.1957
     30  OH       -32.8800   27.3100    7.1180 O.3     8  TYR8       -0.2866
     31  N        -28.7360   24.3790   -5.1910 N.3   119  HIS119     -0.1241
     32  CA       -28.0980   24.9070   -3.9970 C.3   119  HIS119      0.1621
     33  C        -28.7340   24.3830   -2.7220 C.2   119  HIS119      0.2264
     34  O        -29.9220   24.5710   -2.5000 O.2   119  HIS119     -0.2867
     35  CB       -28.2230   26.4450   -4.0620 C.3   119  HIS119      0.0745
     36  CG       -27.5190   27.1320   -2.9370 C.ar  119  HIS119      0.0817
     37  ND1      -27.2150   28.4710   -2.9380 N.ar  119  HIS119     -0.2268
     38  CD2      -27.0200   26.6670   -1.7670 C.ar  119  HIS119      0.1154
     39  CE1      -26.5880   28.7790   -1.8070 C.ar  119  HIS119      0.1986
     40  NE2      -26.4700   27.6980   -1.0670 N.ar  119  HIS119     -0.2212
     41  N        -28.4090   24.8550    1.2810 N.3   121  ASP121     -0.1239
     42  CA       -27.9140   25.6490    2.3990 C.3   121  ASP121      0.1674
     43  C        -28.1780   24.7880    3.6380 C.2   121  ASP121      0.2266
     44  O        -29.3160   24.6530    4.0880 O.2   121  ASP121     -0.2867
     45  CB       -28.7100   26.9530    2.4560 C.3   121  ASP121      0.1410
     46  CG       -27.9860   28.1000    3.1350 C.2   121  ASP121      0.3668
     47  OD1      -26.8630   27.8760    3.6010 O.co2 121  ASP121     -0.2456
     48  OD2      -28.5540   29.2030    3.1790 O.co2 121  ASP121     -0.2456
     49  N        -23.3960   28.4240   11.5420 N.3   127  GLY127     -0.1210
     50  CA       -23.0280   28.5100   10.1300 C.3   127  GLY127      0.1956
     51  C        -23.2330   29.9060    9.5380 C.2   127  GLY127      0.2612
     52  O        -22.7010   30.1900    8.4420 O.2   127  GLY127     -0.2717
     53  N        -23.8410   30.8400   10.2470 N.am  128  GLY128     -0.1942
     54  CA       -24.0090   32.2170    9.7940 C.3   128  GLY128      0.2014
     55  C        -25.4650   32.6330    9.6450 C.2   128  GLY128      0.2639
     56  O        -26.2390   31.9050    8.9910 O.2   128  GLY128     -0.2714
     57  N        -25.8360   33.7940   10.1880 N.am  129  VAL129     -0.1963
     58  CA       -27.2110   34.2680   10.1330 C.3   129  VAL129      0.1727
     59  C        -27.5880   34.8370    8.7700 C.2   129  VAL129      0.2616
     60  O        -28.7530   34.7220    8.3760 O.2   129  VAL129     -0.2715
     61  CB       -27.5370   35.2880   11.2430 C.3   129  VAL129      0.0290
     62  CG1      -27.3520   34.6340   12.6130 C.3   129  VAL129      0.0023
     63  CG2      -26.6780   36.5490   11.1410 C.3   129  VAL129      0.0023
     64  N        -26.6440   35.3990    8.0170 N.am  130  GLY130     -0.1955
     65  CA       -26.9720   35.9300    6.6890 C.3   130  GLY130      0.1869
     66  C        -27.7180   37.2580    6.8000 C.2   130  GLY130      0.2309
     67  O        -27.3760   38.0300    7.7100 O.2   130  GLY130     -0.2863
     68  N        -21.4760   37.1310    9.8880 N.3   146  ARG146     -0.1231
     69  CA       -22.7980   37.0200    9.2820 C.3   146  ARG146      0.1694
     70  C        -22.8770   35.9030    8.2550 C.2   146  ARG146      0.2592
     71  O        -23.8540   35.1590    8.1940 O.2   146  ARG146     -0.2718
     72  CB       -23.1310   38.3220    8.5340 C.3   146  ARG146      0.0321
     73  CG       -23.4260   39.4410    9.5180 C.3   146  ARG146      0.0489
     74  CD       -24.9440   39.5030    9.6750 C.3   146  ARG146      0.2205
     75  NE       -25.4940   40.3750    8.6340 N.pl3 146  ARG146     -0.0865
     76  CZ       -26.7460   40.8250    8.6730 C.cat 146  ARG146      0.5346
     77  NH1      -27.5370   40.4680    9.6760 N.pl3 146  ARG146      0.1354
     78  NH2      -27.1890   41.6230    7.7050 N.pl3 146  ARG146      0.1354
     79  N        -21.8550   35.8760    7.3980 N.am  147  TYR147     -0.1962
     80  CA       -21.7860   34.8500    6.3610 C.3   147  TYR147      0.1771
     81  C        -20.6620   33.8780    6.6920 C.2   147  TYR147      0.2620
     82  O        -19.4750   34.2440    6.6630 O.2   147  TYR147     -0.2715
     83  CB       -21.5820   35.5060    4.9810 C.3   147  TYR147      0.0574
     84  CG       -22.8130   36.2820    4.5540 C.ar  147  TYR147     -0.0198
     85  CD1      -22.9870   37.6140    4.9120 C.ar  147  TYR147     -0.0009
     86  CD2      -23.7900   35.6580    3.7940 C.ar  147  TYR147     -0.0009
     87  CE1      -24.1250   38.3020    4.5440 C.ar  147  TYR147      0.0417
     88  CE2      -24.9350   36.3400    3.4180 C.ar  147  TYR147      0.0417
     89  CZ       -25.0830   37.6630    3.7940 C.ar  147  TYR147      0.1957
     90  OH       -26.2110   38.3170    3.3980 O.3   147  TYR147     -0.2866
     91  N        -21.0090   32.6470    7.0680 N.am  148  GLY148     -0.1954
     92  CA       -19.9570   31.6870    7.4110 C.3   148  GLY148      0.1869
     93  C        -19.8870   31.4150    8.9150 C.2   148  GLY148      0.2309
     94  O        -19.4870   30.3040    9.2880 O.2   148  GLY148     -0.2863
     95  N        -15.6650   23.2550    3.9030 N.3   178  ASP178     -0.1225
     96  CA       -16.1160   24.5770    3.4970 C.3   178  ASP178      0.1805
     97  C        -16.8010   24.5020    2.1320 C.2   178  ASP178      0.2597
     98  O        -16.2060   24.3060    1.0920 O.2   178  ASP178     -0.2718
     99  CB       -14.9540   25.5690    3.5000 C.3   178  ASP178      0.1424
    100  CG       -15.4750   26.9820    3.3190 C.2   178  ASP178      0.3668
    101  OD1      -16.2690   27.4740    4.1320 O.co2 178  ASP178     -0.2456
    102  OD2      -15.0810   27.6230    2.3190 O.co2 178  ASP178     -0.2456
    103  N        -18.1320   24.5720    2.2120 N.am  179  ASN179     -0.1974
    104  CA       -19.0020   24.5230    1.0480 C.3   179  ASN179      0.1688
    105  C        -18.6650   23.4380    0.0410 C.2   179  ASN179      0.2292
    106  O        -18.4590   23.7000   -1.1580 O.2   179  ASN179     -0.2864
    107  CB       -18.9200   25.8910    0.3320 C.3   179  ASN179      0.1181
    108  CG       -19.3010   27.0530    1.2150 C.2   179  ASN179      0.2629
    109  OD1      -20.0090   26.9220    2.2100 O.2   179  ASN179     -0.2716
    110  ND2      -18.8250   28.2620    0.8710 N.am  179  ASN179     -0.0877
@<TRIPOS>BOND
     1    31    32    1
     2    35    32    1
     3    35    36    1
     4    32    33    1
     5    37    36   ar
     6    37    39   ar
     7    36    38   ar
     8    33    34    2
     9    39    40   ar
    10    38    40   ar
    11   106   105    2
    12   105   104    1
    13     7     5    1
    14   107   104    1
    15   107   108    1
    16   110   108   am
    17   104   103    1
    18     1     2    1
    19    98    97    2
    20   108   109    2
    21    41    42    1
    22     6     5    1
    23     5     2    1
    24     2     3    1
    25    97   103   am
    26    97    96    1
    27   102   100   ar
    28    42    45    1
    29    42    43    1
    30    45    46    1
    31    46    48   ar
    32    46    47   ar
    33     3     4    2
    34     3     8   am
    35   100    99    1
    36   100   101   ar
    37    90    89    1
    38    88    86   ar
    39    88    89   ar
    40    96    99    1
    41    96    95    1
    42    43    44    2
    43    86    84   ar
    44    89    87   ar
    45     8     9    1
    46    87    85   ar
    47    84    85   ar
    48    84    83    1
    49    83    80    1
    50     9    10    1
    51     9    12    1
    52    17    16    1
    53    11    10    2
    54    10    19   am
    55    80    81    1
    56    80    79    1
    57    25    27   ar
    58    25    24   ar
    59    27    29   ar
    60    12    13    1
    61    82    81    2
    62    65    66    1
    63    65    64    1
    64    81    91   am
    65    13    14    1
    66    23    24    1
    67    23    20    1
    68    66    67    2
    69    16    18    1
    70    16    15    2
    71    24    26   ar
    72    29    30    1
    73    29    28   ar
    74    91    92    1
    75    19    20    1
    76    26    28   ar
    77    79    70   am
    78    92    93    1
    79    14    15    1
    80    78    76    1
    81    20    21    1
    82    64    59   am
    83    71    70    2
    84    70    69    1
    85    60    59    2
    86    52    51    2
    87    72    69    1
    88    72    73    1
    89    75    76    2
    90    75    74    1
    91    76    77    1
    92    59    58    1
    93    93    94    2
    94    56    55    2
    95    21    22    2
    96    69    68    1
    97    73    74    1
    98    51    50    1
    99    51    53   am
   100    55    54    1
   101    55    57   am
   102    54    53    1
   103    50    49    1
   104    58    57    1
   105    58    61    1
   106    63    61    1
   107    61    62    1
