@<TRIPOS>MOLECULE
tmp/3eniB05.pdb
 132 132 0 0 0
SMALL
GASTEIGER

@<TRIPOS>ATOM
      1  N         38.4430  -60.6070   36.7130 N.3    32  PRO32      -0.2102
      2  CA        37.6880  -59.3890   36.9660 C.3    32  PRO32       0.1504
      3  C         37.9810  -58.9260   38.4050 C.2    32  PRO32       0.2576
      4  O         38.3990  -59.7200   39.2710 O.2    32  PRO32      -0.2718
      5  CB        36.2310  -59.8500   36.8410 C.3    32  PRO32       0.0282
      6  CG        36.2590  -61.2990   37.0850 C.3    32  PRO32       0.0208
      7  CD        37.5780  -61.7990   36.5970 C.3    32  PRO32       0.0893
      8  N         37.7800  -57.6460   38.6700 N.am   33  ALA33      -0.1966
      9  CA        38.0000  -57.1680   40.0240 C.3    33  ALA33       0.1728
     10  C         36.7480  -57.2980   40.8950 C.2    33  ALA33       0.2617
     11  O         36.3920  -56.3680   41.5800 O.2    33  ALA33      -0.2715
     12  CB        38.5030  -55.6990   40.0180 C.3    33  ALA33       0.0334
     13  N         36.0620  -58.4280   40.8450 N.am   34  SER34      -0.1936
     14  CA        34.8880  -58.6260   41.7220 C.3    34  SER34       0.2040
     15  C         35.2730  -59.5410   42.8860 C.2    34  SER34       0.2485
     16  O         35.8600  -60.5840   42.6640 O.2    34  SER34      -0.2729
     17  CB        33.7330  -59.2650   40.9390 C.3    34  SER34       0.2129
     18  OG        32.6660  -59.5680   41.8200 O.3    34  SER34      -0.2179
     19  N         34.9800  -59.1290   44.1210 N.am   35  PRO35      -0.2726
     20  CA        35.3370  -59.9330   45.2760 C.3    35  PRO35       0.1402
     21  C         34.4470  -61.1820   45.4220 C.2    35  PRO35       0.2269
     22  O         34.6990  -62.0160   46.3010 O.2    35  PRO35      -0.2865
     23  CB        35.1800  -58.9630   46.4740 C.3    35  PRO35       0.0296
     24  CG        34.2530  -57.8890   45.9790 C.3    35  PRO35       0.0237
     25  CD        34.5280  -57.7680   44.5060 C.3    35  PRO35       0.0939
     26  N         25.9570  -45.6730   47.8110 N.3   177  PHE177     -0.1227
     27  CA        27.0510  -45.9320   46.8910 C.3   177  PHE177      0.1736
     28  C         27.9370  -47.0480   47.3730 C.2   177  PHE177      0.2595
     29  O         29.0680  -46.8440   47.7470 O.2   177  PHE177     -0.2718
     30  CB        27.7850  -44.6220   46.5920 C.3   177  PHE177      0.0547
     31  CG        26.8880  -43.5850   45.9760 C.ar  177  PHE177     -0.0202
     32  CD1       26.4300  -43.7400   44.6730 C.ar  177  PHE177     -0.0042
     33  CD2       26.3400  -42.5720   46.7540 C.ar  177  PHE177     -0.0042
     34  CE1       25.5520  -42.8250   44.1100 C.ar  177  PHE177     -0.0003
     35  CE2       25.4330  -41.6540   46.2000 C.ar  177  PHE177     -0.0003
     36  CZ        25.0360  -41.7910   44.8800 C.ar  177  PHE177     -0.0000
     37  N         27.3480  -48.2270   47.4180 N.am  178  ILE178     -0.1966
     38  CA        27.9750  -49.4460   47.9170 C.3   178  ILE178      0.1727
     39  C         29.3550  -49.7460   47.3560 C.2   178  ILE178      0.2617
     40  O         29.6260  -49.5500   46.1570 O.2   178  ILE178     -0.2715
     41  CB        26.9950  -50.6620   47.7260 C.3   178  ILE178      0.0290
     42  CG1       27.4910  -51.8970   48.4800 C.3   178  ILE178      0.0022
     43  CG2       26.7640  -50.9290   46.2480 C.3   178  ILE178      0.0023
     44  CD1       26.4260  -52.9400   48.7040 C.3   178  ILE178      0.0001
     45  N         30.2380  -50.2140   48.2290 N.am  179  GLY179     -0.1941
     46  CA        31.5850  -50.5810   47.8180 C.3   179  GLY179      0.1998
     47  C         32.3310  -49.4650   47.0700 C.2   179  GLY179      0.2481
     48  O         32.3450  -48.3130   47.4890 O.2   179  GLY179     -0.2729
     49  N         32.9210  -49.8210   45.9340 N.am  180  PRO180     -0.2715
     50  CA        33.6940  -48.8680   45.1440 C.3   180  PRO180      0.1536
     51  C         32.8790  -47.8660   44.3130 C.2   180  PRO180      0.2598
     52  O         33.4550  -47.0300   43.6120 O.2   180  PRO180     -0.2715
     53  CB        34.5730  -49.7760   44.2610 C.3   180  PRO180      0.0310
     54  CG        33.7900  -51.0380   44.1360 C.3   180  PRO180      0.0237
     55  CD        32.9530  -51.1840   45.3640 C.3   180  PRO180      0.0939
     56  N         31.5540  -47.9580   44.3770 N.am  181  ALA181     -0.1978
     57  CA        30.6740  -46.9790   43.7060 C.3   181  ALA181      0.1597
     58  C         30.9280  -45.6210   44.3810 C.2   181  ALA181      0.2287
     59  O         30.9800  -44.5820   43.7410 O.2   181  ALA181     -0.2864
     60  CB        29.1590  -47.3870   43.8550 C.3   181  ALA181      0.0319
     61  N         34.1010  -44.0780   42.8260 N.3   184  ALA184     -0.1231
     62  CA        33.8900  -43.6630   41.4280 C.3   184  ALA184      0.1694
     63  C         33.3310  -42.2300   41.2900 C.2   184  ALA184      0.2591
     64  O         33.6000  -41.5560   40.3080 O.2   184  ALA184     -0.2718
     65  CB        32.9910  -44.6880   40.6750 C.3   184  ALA184      0.0304
     66  N         32.5860  -41.7640   42.2920 N.am  185  LEU185     -0.1980
     67  CA        32.0220  -40.4120   42.2710 C.3   185  LEU185      0.1596
     68  C         33.1090  -39.3800   42.0010 C.2   185  LEU185      0.2287
     69  O         33.0360  -38.6280   41.0100 O.2   185  LEU185     -0.2864
     70  CB        31.2620  -40.0840   43.5920 C.3   185  LEU185      0.0297
     71  CG        29.9440  -40.8650   43.7810 C.3   185  LEU185      0.0022
     72  CD1       29.3230  -40.6050   45.1920 C.3   185  LEU185      0.0001
     73  CD2       28.9190  -40.4780   42.6950 C.3   185  LEU185      0.0001
     74  N         32.1990  -35.9500   40.0220 N.3   190  GLN190     -0.1245
     75  CA        30.7840  -35.9720   40.2940 C.3   190  GLN190      0.1566
     76  C         30.4760  -35.8840   41.7910 C.2   190  GLN190      0.2260
     77  O         31.1790  -36.4700   42.6090 O.2   190  GLN190     -0.2867
     78  CB        30.2280  -37.2600   39.6860 C.3   190  GLN190      0.0367
     79  CG        28.7590  -37.3990   39.8040 C.3   190  GLN190      0.0905
     80  CD        28.2370  -38.5580   38.9700 C.2   190  GLN190      0.2608
     81  OE1       28.9970  -39.4400   38.5880 O.2   190  GLN190     -0.2717
     82  NE2       26.9320  -38.5710   38.7200 N.am  190  GLN190     -0.0878
     83  N         32.4450  -40.7420   31.1720 N.3   284  ILE284     -0.1231
     84  CA        32.1840  -41.5860   32.3530 C.3   284  ILE284      0.1678
     85  C         32.5730  -43.0590   32.2080 C.2   284  ILE284      0.2434
     86  O         33.3320  -43.5680   33.0200 O.2   284  ILE284     -0.2733
     87  CB        30.7180  -41.4090   32.8750 C.3   284  ILE284      0.0265
     88  CG1       30.5450  -39.9890   33.4210 C.3   284  ILE284      0.0019
     89  CG2       30.3890  -42.4270   33.9770 C.3   284  ILE284      0.0020
     90  CD1       31.4720  -39.6580   34.5730 C.3   284  ILE284      0.0001
     91  N         32.1110  -43.7310   31.1490 N.am  285  PRO285     -0.2729
     92  CA        32.4570  -45.1350   30.9390 C.3   285  PRO285      0.1401
     93  C         33.9650  -45.3540   30.9020 C.2   285  PRO285      0.2269
     94  O         34.4700  -46.3460   31.4240 O.2   285  PRO285     -0.2865
     95  CB        31.8490  -45.4490   29.5530 C.3   285  PRO285      0.0296
     96  CG        30.8390  -44.4480   29.3170 C.3   285  PRO285      0.0237
     97  CD        31.2750  -43.2160   30.0400 C.3   285  PRO285      0.0939
     98  N         35.3780  -44.6570   34.5520 N.3   288  HIS288     -0.1226
     99  CA        34.9720  -45.6970   35.4910 C.3   288  HIS288      0.1752
    100  C         35.6270  -47.0550   35.1630 C.2   288  HIS288      0.2596
    101  O         36.1340  -47.7450   36.0630 O.2   288  HIS288     -0.2718
    102  CB        33.4520  -45.8180   35.5410 C.3   288  HIS288      0.0759
    103  CG        32.7910  -44.6860   36.2680 C.ar  288  HIS288      0.0818
    104  ND1       31.4480  -44.6980   36.6020 N.ar  288  HIS288     -0.2268
    105  CD2       33.2720  -43.4840   36.6700 C.ar  288  HIS288      0.1154
    106  CE1       31.1510  -43.5800   37.2460 C.ar  288  HIS288      0.1986
    107  NE2       32.2360  -42.8220   37.2910 N.ar  288  HIS288     -0.2212
    108  N         35.6060  -47.4580   33.8980 N.am  289  HIS289     -0.1975
    109  CA        36.2780  -48.7070   33.5540 C.3   289  HIS289      0.1656
    110  C         37.7920  -48.5670   33.8170 C.2   289  HIS289      0.2291
    111  O         38.4710  -49.5400   34.1010 O.2   289  HIS289     -0.2864
    112  CB        36.0310  -49.1140   32.1000 C.3   289  HIS289      0.0771
    113  CG        36.6720  -50.4240   31.7250 C.ar  289  HIS289      0.0820
    114  ND1       37.9650  -50.5200   31.2460 N.ar  289  HIS289     -0.2267
    115  CD2       36.1910  -51.6890   31.7690 C.ar  289  HIS289      0.1154
    116  CE1       38.2430  -51.7860   30.9870 C.ar  289  HIS289      0.1986
    117  NE2       37.1810  -52.5180   31.2970 N.ar  289  HIS289     -0.2212
    118  N         39.1540  -47.5410   36.3080 N.3   291  MET291     -0.1230
    119  CA        39.4040  -47.9940   37.6910 C.3   291  MET291      0.1702
    120  C         39.7220  -49.4850   37.7930 C.2   291  MET291      0.2592
    121  O         40.2980  -49.9080   38.7830 O.2   291  MET291     -0.2718
    122  CB        38.2130  -47.6480   38.5800 C.3   291  MET291      0.0401
    123  CG        37.9950  -46.1120   38.6300 C.3   291  MET291      0.0596
    124  SD        36.5990  -45.5830   39.6270 S.3   291  MET291     -0.1393
    125  CE        37.2500  -45.8020   41.2220 C.3   291  MET291      0.0692
    126  N         39.3310  -50.2780   36.7830 N.am  292  VAL292     -0.1980
    127  CA        39.5710  -51.7200   36.7820 C.3   292  VAL292      0.1595
    128  C         40.4760  -52.1560   35.6390 C.2   292  VAL292      0.2287
    129  O         40.8580  -53.3300   35.5480 O.2   292  VAL292     -0.2864
    130  CB        38.2270  -52.5490   36.7600 C.3   292  VAL292      0.0276
    131  CG1       37.3690  -52.2540   37.9710 C.3   292  VAL292      0.0022
    132  CG2       37.4210  -52.3290   35.4180 C.3   292  VAL292      0.0022
@<TRIPOS>BOND
     1    96    95    1
     2    96    97    1
     3    95    92    1
     4    97    91    1
     5    93    92    1
     6    93    94    2
     7    92    91    1
     8   116   114   ar
     9   116   117   ar
    10    91    85   am
    11    83    84    1
    12   114   113   ar
    13   117   115   ar
    14   113   115   ar
    15   113   112    1
    16   112   109    1
    17    85    84    1
    18    85    86    2
    19    84    87    1
    20    87    88    1
    21    87    89    1
    22    88    90    1
    23   109   110    1
    24   109   108    1
    25   110   111    2
    26   108   100   am
    27    98    99    1
    28   100    99    1
    29   100   101    2
    30   132   130    1
    31    99   102    1
    32   102   103    1
    33   129   128    2
    34   128   127    1
    35   103   104   ar
    36   103   105   ar
    37   118   119    1
    38     7     1    1
    39     7     6    1
    40   104   106   ar
    41   105   107   ar
    42     1     2    1
    43   130   127    1
    44   130   131    1
    45   127   126    1
    46   126   120   am
    47     5     2    1
    48     5     6    1
    49     2     3    1
    50   106   107   ar
    51   119   120    1
    52   119   122    1
    53   120   121    2
    54     3     8   am
    55     3     4    2
    56   122   123    1
    57    81    80    2
    58   123   124    1
    59     8     9    1
    60    82    80   am
    61    80    79    1
    62   124   125    1
    63    78    79    1
    64    78    75    1
    65    12     9    1
    66    74    75    1
    67     9    10    1
    68    75    76    1
    69    64    63    2
    70    65    62    1
    71    13    10   am
    72    13    14    1
    73    10    11    2
    74    17    14    1
    75    17    18    1
    76    69    68    2
    77    63    62    1
    78    63    66   am
    79    62    61    1
    80    14    15    1
    81    76    77    2
    82    68    67    1
    83    67    66    1
    84    67    70    1
    85    16    15    2
    86    73    71    1
    87    15    19   am
    88    70    71    1
    89    52    51    2
    90    57    60    1
    91    57    56    1
    92    57    58    1
    93    59    58    2
    94    71    72    1
    95    34    32   ar
    96    34    36   ar
    97    19    25    1
    98    19    20    1
    99    54    53    1
   100    54    55    1
   101    53    50    1
   102    51    56   am
   103    51    50    1
   104    25    24    1
   105    32    31   ar
   106    36    35   ar
   107    50    49    1
   108    20    21    1
   109    20    23    1
   110    55    49    1
   111    21    22    2
   112    49    47   am
   113    31    30    1
   114    31    33   ar
   115    24    23    1
   116    40    39    2
   117    35    33   ar
   118    43    41    1
   119    30    27    1
   120    27    28    1
   121    27    26    1
   122    47    48    2
   123    47    46    1
   124    39    38    1
   125    39    45   am
   126    28    37   am
   127    28    29    2
   128    37    38    1
   129    41    38    1
   130    41    42    1
   131    46    45    1
   132    42    44    1
