@<TRIPOS>MOLECULE
tmp/3eniB06.pdb
 211 200 0 0 0
SMALL
GASTEIGER

@<TRIPOS>ATOM
      1  N         43.9420  -59.4290   25.0010 N.3     4  ALA4       -0.1231
      2  CA        42.5770  -58.9800   24.8400 C.3     4  ALA4        0.1694
      3  C         42.2430  -59.1220   23.3410 C.2     4  ALA4        0.2592
      4  O         42.9760  -58.6010   22.5030 O.2     4  ALA4       -0.2718
      5  CB        42.4700  -57.5180   25.2530 C.3     4  ALA4        0.0304
      6  N         41.1760  -59.8580   23.0040 N.am    5  HIS5       -0.1962
      7  CA        40.7280  -60.0310   21.6030 C.3     5  HIS5        0.1787
      8  C         39.3920  -59.3390   21.5060 C.2     5  HIS5        0.2620
      9  O         38.4930  -59.6620   22.2640 O.2     5  HIS5       -0.2715
     10  CB        40.4740  -61.4990   21.2690 C.3     5  HIS5        0.0785
     11  CG        41.6710  -62.3720   21.4560 C.ar    5  HIS5        0.0821
     12  ND1       42.6850  -62.4610   20.5200 N.ar    5  HIS5       -0.2267
     13  CD2       42.0440  -63.1600   22.4960 C.ar    5  HIS5        0.1154
     14  CE1       43.6240  -63.2740   20.9740 C.ar    5  HIS5        0.1986
     15  NE2       43.2580  -63.7140   22.1680 N.ar    5  HIS5       -0.2212
     16  N         39.2570  -58.3640   20.6190 N.am    6  SER6       -0.1950
     17  CA        37.9770  -57.6730   20.5070 C.3     6  SER6        0.1924
     18  C         37.6890  -57.3630   19.0450 C.2     6  SER6        0.2314
     19  O         38.5870  -57.2170   18.2330 O.2     6  SER6       -0.2863
     20  CB        37.9630  -56.3760   21.3230 C.3     6  SER6        0.2116
     21  OG        39.0760  -55.5620   21.0090 O.3     6  SER6       -0.2180
     22  N         34.8750  -54.8200   16.8630 N.3     8  TYR8       -0.1241
     23  CA        33.7750  -53.8500   16.9290 C.3     8  TYR8        0.1605
     24  C         33.2840  -53.5510   15.5130 C.2     8  TYR8        0.2264
     25  O         34.0620  -53.4680   14.5670 O.2     8  TYR8       -0.2867
     26  CB        34.2410  -52.5290   17.5860 C.3     8  TYR8        0.0534
     27  CG        35.1080  -52.7180   18.8120 C.ar    8  TYR8       -0.0201
     28  CD1       34.5740  -53.2280   20.0070 C.ar    8  TYR8       -0.0009
     29  CD2       36.4680  -52.4860   18.7500 C.ar    8  TYR8       -0.0009
     30  CE1       35.3860  -53.4180   21.1450 C.ar    8  TYR8        0.0417
     31  CE2       37.2910  -52.6800   19.8660 C.ar    8  TYR8        0.0417
     32  CZ        36.7410  -53.1120   21.0670 C.ar    8  TYR8        0.1957
     33  OH        37.5770  -53.3530   22.1440 O.3     8  TYR8       -0.2866
     34  N         29.6720  -55.7060   19.0790 N.3    24  ALA24      -0.1245
     35  CA        30.9870  -55.8280   19.7500 C.3    24  ALA24       0.1562
     36  C         31.1250  -57.2020   20.4060 C.2    24  ALA24       0.2260
     37  O         30.1690  -57.7120   20.9950 O.2    24  ALA24      -0.2867
     38  CB        31.1440  -54.7560   20.8230 C.3    24  ALA24       0.0290
     39  N         34.2260  -59.2670   22.8380 N.3    26  ALA26      -0.1245
     40  CA        35.5260  -59.1160   23.4780 C.3    26  ALA26       0.1562
     41  C         35.7720  -60.2710   24.3910 C.2    26  ALA26       0.2260
     42  O         34.8410  -60.8090   24.9970 O.2    26  ALA26      -0.2867
     43  CB        35.6210  -57.8060   24.2550 C.3    26  ALA26       0.0290
     44  N         38.9720  -61.4550   27.3000 N.3    28  VAL28      -0.1245
     45  CA        40.2840  -61.2450   27.9260 C.3    28  VAL28       0.1561
     46  C         40.4970  -62.2720   29.0170 C.2    28  VAL28       0.2260
     47  O         39.5850  -62.5410   29.8040 O.2    28  VAL28      -0.2867
     48  CB        40.5460  -59.7940   28.4180 C.3    28  VAL28       0.0252
     49  CG1       39.6420  -59.4170   29.5410 C.3    28  VAL28       0.0019
     50  CG2       42.0380  -59.6330   28.8870 C.3    28  VAL28       0.0019
     51  N         41.9720  -62.3490   31.9190 N.3    30  ALA30      -0.1231
     52  CA        42.4990  -61.7040   33.1210 C.3    30  ALA30       0.1679
     53  C         41.3000  -61.7100   34.0700 C.2    30  ALA30       0.2434
     54  O         40.1560  -61.6610   33.6080 O.2    30  ALA30      -0.2733
     55  CB        42.9580  -60.2830   32.8310 C.3    30  ALA30       0.0304
     56  N         41.5510  -61.8730   35.3680 N.am   31  PRO31      -0.2718
     57  CA        40.4390  -61.9160   36.3360 C.3    31  PRO31       0.1520
     58  C         39.7500  -60.5670   36.5220 C.2    31  PRO31       0.2440
     59  O         40.3680  -59.5190   36.5030 O.2    31  PRO31      -0.2731
     60  CB        41.1110  -62.3540   37.6480 C.3    31  PRO31       0.0310
     61  CG        42.5770  -61.9930   37.4890 C.3    31  PRO31       0.0237
     62  CD        42.8720  -62.0770   35.9960 C.3    31  PRO31       0.0939
     63  N         38.4430  -60.6070   36.7130 N.am   32  PRO32      -0.2716
     64  CA        37.6880  -59.3890   36.9660 C.3    32  PRO32       0.1536
     65  C         37.9810  -58.9260   38.4050 C.2    32  PRO32       0.2598
     66  O         38.3990  -59.7200   39.2710 O.2    32  PRO32      -0.2715
     67  CB        36.2310  -59.8500   36.8410 C.3    32  PRO32       0.0310
     68  CG        36.2590  -61.2990   37.0850 C.3    32  PRO32       0.0237
     69  CD        37.5780  -61.7990   36.5970 C.3    32  PRO32       0.0939
     70  N         37.7800  -57.6460   38.6700 N.am   33  ALA33      -0.1964
     71  CA        38.0000  -57.1680   40.0240 C.3    33  ALA33       0.1728
     72  C         36.7480  -57.2980   40.8950 C.2    33  ALA33       0.2616
     73  O         36.3920  -56.3680   41.5800 O.2    33  ALA33      -0.2715
     74  CB        38.5030  -55.6990   40.0180 C.3    33  ALA33       0.0334
     75  N         36.0620  -58.4280   40.8450 N.am   34  SER34      -0.1950
     76  CA        34.8880  -58.6260   41.7220 C.3    34  SER34       0.1924
     77  C         35.2730  -59.5410   42.8860 C.2    34  SER34       0.2314
     78  O         35.8600  -60.5840   42.6640 O.2    34  SER34      -0.2863
     79  CB        33.7330  -59.2650   40.9390 C.3    34  SER34       0.2116
     80  OG        32.6660  -59.5680   41.8200 O.3    34  SER34      -0.2180
     81  N         30.5960  -64.3210   38.1330 N.3    39  ALA39      -0.1245
     82  CA        29.5810  -63.3050   37.9130 C.3    39  ALA39       0.1562
     83  C         29.2300  -63.2310   36.4040 C.2    39  ALA39       0.2260
     84  O         30.0720  -62.9250   35.5650 O.2    39  ALA39      -0.2867
     85  CB        30.1080  -61.9280   38.4230 C.3    39  ALA39       0.0290
     86  N         27.3480  -48.2270   47.4180 N.3   178  ILE178     -0.1245
     87  CA        27.9750  -49.4460   47.9170 C.3   178  ILE178      0.1561
     88  C         29.3550  -49.7460   47.3560 C.2   178  ILE178      0.2260
     89  O         29.6260  -49.5500   46.1570 O.2   178  ILE178     -0.2867
     90  CB        26.9950  -50.6620   47.7260 C.3   178  ILE178      0.0252
     91  CG1       27.4910  -51.8970   48.4800 C.3   178  ILE178      0.0019
     92  CG2       26.7640  -50.9290   46.2480 C.3   178  ILE178      0.0019
     93  CD1       26.4260  -52.9400   48.7040 C.3   178  ILE178      0.0001
     94  N         31.5540  -47.9580   44.3770 N.3   181  ALA181     -0.1245
     95  CA        30.6740  -46.9790   43.7060 C.3   181  ALA181      0.1562
     96  C         30.9280  -45.6210   44.3810 C.2   181  ALA181      0.2260
     97  O         30.9800  -44.5820   43.7410 O.2   181  ALA181     -0.2867
     98  CB        29.1590  -47.3870   43.8550 C.3   181  ALA181      0.0290
     99  N         27.7620  -60.5260   29.7080 N.3   249  PHE249     -0.1241
    100  CA        29.1340  -60.9540   29.9500 C.3   249  PHE249      0.1605
    101  C         29.1170  -62.1980   30.8420 C.2   249  PHE249      0.2264
    102  O         28.1630  -62.4270   31.6260 O.2   249  PHE249     -0.2867
    103  CB        30.0170  -59.8250   30.5600 C.3   249  PHE249      0.0534
    104  CG        29.6150  -59.4030   31.9740 C.ar  249  PHE249     -0.0203
    105  CD1       30.0040  -60.1550   33.0850 C.ar  249  PHE249     -0.0042
    106  CD2       28.8660  -58.2490   32.1810 C.ar  249  PHE249     -0.0042
    107  CE1       29.6340  -59.7700   34.3940 C.ar  249  PHE249     -0.0003
    108  CE2       28.4710  -57.8570   33.4760 C.ar  249  PHE249     -0.0003
    109  CZ        28.8590  -58.6130   34.5840 C.ar  249  PHE249     -0.0000
    110  N         31.9300  -64.1920   33.4190 N.3   251  SER251     -0.1217
    111  CA        33.2460  -63.9960   33.9990 C.3   251  SER251      0.1889
    112  C         33.5080  -64.8750   35.2040 C.2   251  SER251      0.2288
    113  O         32.6080  -65.2180   35.9630 O.2   251  SER251     -0.2866
    114  CB        33.4840  -62.5240   34.3240 C.3   251  SER251      0.2089
    115  OG        32.8530  -62.1430   35.5260 O.3   251  SER251     -0.2183
    116  N         37.1220  -62.8480   31.1250 N.3   256  ILE256     -0.1245
    117  CA        35.8830  -62.1190   30.9000 C.3   256  ILE256      0.1561
    118  C         35.5150  -62.2660   29.4570 C.2   256  ILE256      0.2260
    119  O         36.3770  -62.1500   28.5890 O.2   256  ILE256     -0.2867
    120  CB        36.0540  -60.5940   31.2150 C.3   256  ILE256      0.0252
    121  CG1       36.4670  -60.3750   32.6800 C.3   256  ILE256      0.0019
    122  CG2       34.7870  -59.8400   30.8850 C.3   256  ILE256      0.0019
    123  CD1       37.2010  -59.0620   32.9180 C.3   256  ILE256      0.0001
    124  N         32.5100  -60.8700   26.6170 N.3   258  VAL258     -0.1245
    125  CA        31.4040  -59.9570   26.4980 C.3   258  VAL258      0.1561
    126  C         30.8600  -59.8870   25.0920 C.2   258  VAL258      0.2260
    127  O         31.5820  -60.1190   24.1260 O.2   258  VAL258     -0.2867
    128  CB        31.7530  -58.5480   27.1390 C.3   258  VAL258      0.0252
    129  CG1       33.1360  -58.0900   26.7450 C.3   258  VAL258      0.0019
    130  CG2       30.7120  -57.4640   26.7930 C.3   258  VAL258      0.0019
    131  N         27.8090  -57.6100   22.6240 N.3   260  VAL260     -0.1245
    132  CA        26.8410  -56.5300   22.5290 C.3   260  VAL260      0.1561
    133  C         26.2610  -56.5370   21.1240 C.2   260  VAL260      0.2260
    134  O         26.9830  -56.7300   20.1470 O.2   260  VAL260     -0.2867
    135  CB        27.5100  -55.1290   22.7970 C.3   260  VAL260      0.0252
    136  CG1       26.5740  -53.9930   22.3990 C.3   260  VAL260      0.0019
    137  CG2       27.9600  -54.9750   24.2560 C.3   260  VAL260      0.0019
    138  N         35.3780  -44.6570   34.5520 N.3   288  HIS288     -0.1226
    139  CA        34.9720  -45.6970   35.4910 C.3   288  HIS288      0.1752
    140  C         35.6270  -47.0550   35.1630 C.2   288  HIS288      0.2596
    141  O         36.1340  -47.7450   36.0630 O.2   288  HIS288     -0.2718
    142  CB        33.4520  -45.8180   35.5410 C.3   288  HIS288      0.0759
    143  CG        32.7910  -44.6860   36.2680 C.ar  288  HIS288      0.0818
    144  ND1       31.4480  -44.6980   36.6020 N.ar  288  HIS288     -0.2268
    145  CD2       33.2720  -43.4840   36.6700 C.ar  288  HIS288      0.1154
    146  CE1       31.1510  -43.5800   37.2460 C.ar  288  HIS288      0.1986
    147  NE2       32.2360  -42.8220   37.2910 N.ar  288  HIS288     -0.2212
    148  N         35.6060  -47.4580   33.8980 N.am  289  HIS289     -0.1975
    149  CA        36.2780  -48.7070   33.5540 C.3   289  HIS289      0.1656
    150  C         37.7920  -48.5670   33.8170 C.2   289  HIS289      0.2291
    151  O         38.4710  -49.5400   34.1010 O.2   289  HIS289     -0.2864
    152  CB        36.0310  -49.1140   32.1000 C.3   289  HIS289      0.0771
    153  CG        36.6720  -50.4240   31.7250 C.ar  289  HIS289      0.0820
    154  ND1       37.9650  -50.5200   31.2460 N.ar  289  HIS289     -0.2267
    155  CD2       36.1910  -51.6890   31.7690 C.ar  289  HIS289      0.1154
    156  CE1       38.2430  -51.7860   30.9870 C.ar  289  HIS289      0.1986
    157  NE2       37.1810  -52.5180   31.2970 N.ar  289  HIS289     -0.2212
    158  N         39.3310  -50.2780   36.7830 N.3   292  VAL292     -0.1231
    159  CA        39.5710  -51.7200   36.7820 C.3   292  VAL292      0.1692
    160  C         40.4760  -52.1560   35.6390 C.2   292  VAL292      0.2592
    161  O         40.8580  -53.3300   35.5480 O.2   292  VAL292     -0.2718
    162  CB        38.2270  -52.5490   36.7600 C.3   292  VAL292      0.0266
    163  CG1       37.3690  -52.2540   37.9710 C.3   292  VAL292      0.0020
    164  CG2       37.4210  -52.3290   35.4180 C.3   292  VAL292      0.0020
    165  N         40.8170  -51.2490   34.7360 N.am  293  GLY293     -0.1957
    166  CA        41.5790  -51.6600   33.5360 C.3   293  GLY293      0.1869
    167  C         43.1120  -51.7360   33.6630 C.2   293  GLY293      0.2309
    168  O         43.7760  -52.0310   32.6940 O.2   293  GLY293     -0.2863
    169  N         45.0040  -53.5900   36.2060 N.3   295  PHE295     -0.1227
    170  CA        45.5200  -54.6300   37.1100 C.3   295  PHE295      0.1736
    171  C         46.3310  -55.7590   36.4300 C.2   295  PHE295      0.2595
    172  O         47.0610  -56.4820   37.0940 O.2   295  PHE295     -0.2718
    173  CB        44.4050  -55.2140   38.0020 C.3   295  PHE295      0.0547
    174  CG        43.5800  -54.1750   38.7440 C.ar  295  PHE295     -0.0202
    175  CD1       44.2010  -53.1660   39.4740 C.ar  295  PHE295     -0.0042
    176  CD2       42.1880  -54.2780   38.8000 C.ar  295  PHE295     -0.0042
    177  CE1       43.4610  -52.1960   40.1880 C.ar  295  PHE295     -0.0003
    178  CE2       41.4450  -53.3740   39.5430 C.ar  295  PHE295     -0.0003
    179  CZ        42.0760  -52.3160   40.2500 C.ar  295  PHE295     -0.0000
    180  N         46.2090  -55.9190   35.1160 N.am  296  ASN296     -0.1974
    181  CA        46.9870  -56.9550   34.4150 C.3   296  ASN296      0.1688
    182  C         47.5120  -56.4000   33.0930 C.2   296  ASN296      0.2292
    183  O         46.7790  -55.7630   32.3520 O.2   296  ASN296     -0.2864
    184  CB        46.1800  -58.2360   34.1210 C.3   296  ASN296      0.1181
    185  CG        45.9700  -59.1080   35.3600 C.2   296  ASN296      0.2629
    186  OD1       46.8510  -59.8440   35.7680 O.2   296  ASN296     -0.2716
    187  ND2       44.7870  -59.0560   35.9170 N.am  296  ASN296     -0.0877
    188  N         48.5260  -56.4590   29.3220 N.3   298  PHE298     -0.1241
    189  CA        47.9210  -57.2100   28.2200 C.3   298  PHE298      0.1605
    190  C         48.4040  -56.7490   26.8460 C.2   298  PHE298      0.2264
    191  O         48.8020  -55.6040   26.6430 O.2   298  PHE298     -0.2867
    192  CB        46.3940  -57.1030   28.2580 C.3   298  PHE298      0.0534
    193  CG        45.8610  -55.6770   28.1280 C.ar  298  PHE298     -0.0203
    194  CD1       45.4960  -55.1570   26.8880 C.ar  298  PHE298     -0.0042
    195  CD2       45.7230  -54.8540   29.2600 C.ar  298  PHE298     -0.0042
    196  CE1       44.9820  -53.8560   26.7760 C.ar  298  PHE298     -0.0003
    197  CE2       45.1970  -53.5410   29.1830 C.ar  298  PHE298     -0.0003
    198  CZ        44.8060  -53.0460   27.9360 C.ar  298  PHE298     -0.0000
    199  N         43.4460  -48.3040   21.6460 N.3   340  VAL340     -0.1245
    200  CA        42.6010  -49.2680   22.3640 C.3   340  VAL340      0.1561
    201  C         43.1630  -49.5560   23.7490 C.2   340  VAL340      0.2260
    202  O         42.4240  -49.6100   24.7410 O.2   340  VAL340     -0.2867
    203  CB        42.3730  -50.5870   21.5480 C.3   340  VAL340      0.0252
    204  CG1       41.6840  -51.6410   22.3990 C.3   340  VAL340      0.0019
    205  CG2       41.5440  -50.2770   20.2990 C.3   340  VAL340      0.0019
    206  N         41.0880  -48.5700   27.2200 N.3   344  CYS344     -0.1235
    207  CA        40.7800  -49.7050   28.1280 C.3   344  CYS344      0.1677
    208  C         41.3550  -49.4540   29.5270 C.2   344  CYS344      0.2270
    209  O         40.8690  -50.0120   30.4980 O.2   344  CYS344     -0.2867
    210  CB        41.3490  -51.0320   27.5910 C.3   344  CYS344      0.0956
    211  SG        40.3770  -51.6220   26.2080 S.3   344  CYS344     -0.0801
@<TRIPOS>BOND
     1    25    24    2
     2    24    23    1
     3    22    23    1
     4    23    26    1
     5    26    27    1
     6    19    18    2
     7    29    27   ar
     8    29    31   ar
     9    27    28   ar
    10    18    17    1
    11    34    35    1
    12    35    36    1
    13    35    38    1
    14    31    32   ar
    15    28    30   ar
    16   134   133    2
    17   205   203    1
    18    36    37    2
    19    17    16    1
    20    17    20    1
    21    12    14   ar
    22    12    11   ar
    23    16     8   am
    24    14    15   ar
    25    21    20    1
    26    32    30   ar
    27    32    33    1
    28   133   132    1
    29    10    11    1
    30    10     7    1
    31    11    13   ar
    32     8     7    1
    33     8     9    2
    34   203   200    1
    35   203   204    1
    36     7     6    1
    37   199   200    1
    38    15    13   ar
    39   200   201    1
    40   136   135    1
    41     4     3    2
    42   132   131    1
    43   132   135    1
    44   135   137    1
    45    39    40    1
    46     6     3   am
    47     3     2    1
    48    40    43    1
    49    40    41    1
    50   201   202    2
    51   127   126    2
    52    41    42    2
    53     2     1    1
    54     2     5    1
    55   126   125    1
    56   211   210    1
    57   125   124    1
    58   125   128    1
    59   191   190    2
    60   129   128    1
    61   196   194   ar
    62   196   198   ar
    63   130   128    1
    64   190   189    1
    65   194   193   ar
    66   206   207    1
    67    44    45    1
    68   210   207    1
    69    45    48    1
    70    45    46    1
    71   198   197   ar
    72   207   208    1
    73   193   192    1
    74   193   195   ar
    75   189   192    1
    76   189   188    1
    77    48    50    1
    78    48    49    1
    79   119   118    2
    80    46    47    2
    81   197   195   ar
    82   118   117    1
    83   208   209    2
    84    99   100    1
    85   100   103    1
    86   100   101    1
    87   103   104    1
    88   101   102    2
    89   122   120    1
    90   117   116    1
    91   117   120    1
    92   156   154   ar
    93   156   157   ar
    94   120   121    1
    95   154   153   ar
    96   157   155   ar
    97   153   155   ar
    98   153   152    1
    99    51    52    1
   100   104   106   ar
   101   104   105   ar
   102   152   149    1
   103   106   108   ar
   104   183   182    2
   105   121   123    1
   106   168   167    2
   107    55    52    1
   108   105   107   ar
   109   182   181    1
   110    52    53    1
   111   110   111    1
   112   108   109   ar
   113   166   167    1
   114   166   165    1
   115   149   150    1
   116   149   148    1
   117    54    53    2
   118   150   151    2
   119   148   140   am
   120   111   114    1
   121   111   112    1
   122    53    56   am
   123   184   181    1
   124   184   185    1
   125   114   115    1
   126   107   109   ar
   127   181   180    1
   128   138   139    1
   129   165   160   am
   130   180   171   am
   131   140   139    1
   132   140   141    2
   133   112   113    2
   134   185   186    2
   135   185   187   am
   136    56    62    1
   137    56    57    1
   138   164   162    1
   139   139   142    1
   140   142   143    1
   141   161   160    2
   142    84    83    2
   143   160   159    1
   144    62    61    1
   145   169   170    1
   146   143   144   ar
   147   143   145   ar
   148    57    58    1
   149    57    60    1
   150    83    82    1
   151   171   172    2
   152   171   170    1
   153    59    58    2
   154    58    63   am
   155    69    63    1
   156    69    68    1
   157   144   146   ar
   158   145   147   ar
   159    63    64    1
   160   162   159    1
   161   162   163    1
   162   159   158    1
   163    67    64    1
   164    67    68    1
   165    64    65    1
   166   170   173    1
   167   146   147   ar
   168    61    60    1
   169    82    81    1
   170    82    85    1
   171   173   174    1
   172    65    70   am
   173    65    66    2
   174    70    71    1
   175   174   176   ar
   176   174   175   ar
   177   176   178   ar
   178   175   177   ar
   179   178   179   ar
   180    74    71    1
   181    71    72    1
   182   177   179   ar
   183    75    72   am
   184    75    76    1
   185    72    73    2
   186    79    76    1
   187    79    80    1
   188    76    77    1
   189    78    77    2
   190    95    98    1
   191    95    94    1
   192    95    96    1
   193    97    96    2
   194    89    88    2
   195    92    90    1
   196    88    87    1
   197    86    87    1
   198    90    87    1
   199    90    91    1
   200    91    93    1
