@<TRIPOS>MOLECULE
tmp/3eniB03.pdb
 212 203 0 0 0
SMALL
GASTEIGER

@<TRIPOS>ATOM
      1  N         17.5320  -54.0890   26.5560 N.3    45  LEU45      -0.1245
      2  CA        16.9010  -52.7500   26.5830 C.3    45  LEU45       0.1561
      3  C         16.1180  -52.5750   25.2840 C.2    45  LEU45       0.2260
      4  O         16.5720  -52.9900   24.2060 O.2    45  LEU45      -0.2867
      5  CB        17.9580  -51.6250   26.6890 C.3    45  LEU45       0.0270
      6  CG        18.9030  -51.6560   27.9010 C.3    45  LEU45       0.0019
      7  CD1       19.9020  -50.5450   27.7540 C.3    45  LEU45       0.0001
      8  CD2       18.1230  -51.4320   29.1640 C.3    45  LEU45       0.0001
      9  N         13.2050  -49.6780   23.3990 N.3    47  VAL47      -0.1245
     10  CA        12.4760  -48.4310   23.4830 C.3    47  VAL47       0.1561
     11  C         11.6320  -48.2650   22.2270 C.2    47  VAL47       0.2260
     12  O         12.0560  -48.6340   21.1360 O.2    47  VAL47      -0.2867
     13  CB        13.3750  -47.2110   23.7570 C.3    47  VAL47       0.0252
     14  CG1       14.3070  -46.9080   22.5400 C.3    47  VAL47       0.0019
     15  CG2       12.4740  -45.9810   24.0750 C.3    47  VAL47       0.0019
     16  N         10.2470  -47.0400   27.5240 N.3    59  ILE59      -0.1245
     17  CA        11.4970  -47.7850   27.5930 C.3    59  ILE59       0.1561
     18  C         11.3470  -48.9630   28.5260 C.2    59  ILE59       0.2260
     19  O         10.6570  -48.8720   29.5370 O.2    59  ILE59      -0.2867
     20  CB        12.6890  -46.8580   27.9680 C.3    59  ILE59       0.0252
     21  CG1       14.0180  -47.5940   27.9340 C.3    59  ILE59       0.0019
     22  CG2       12.5140  -46.2880   29.3230 C.3    59  ILE59       0.0019
     23  CD1       15.1900  -46.6220   27.7500 C.3    59  ILE59       0.0001
     24  N         13.6380  -52.2000   30.4110 N.3    61  ALA61      -0.1245
     25  CA        14.9340  -52.8000   30.6780 C.3    61  ALA61       0.1562
     26  C         14.8100  -54.0590   31.5230 C.2    61  ALA61       0.2260
     27  O         14.0130  -54.1150   32.4800 O.2    61  ALA61      -0.2867
     28  CB        15.8420  -51.7730   31.3940 C.3    61  ALA61       0.0290
     29  N         17.5260  -56.7220   33.5770 N.3    63  PHE63      -0.1241
     30  CA        18.8830  -57.0960   33.9880 C.3    63  PHE63       0.1605
     31  C         18.7890  -58.4370   34.6620 C.2    63  PHE63       0.2264
     32  O         17.9900  -58.5930   35.5840 O.2    63  PHE63      -0.2867
     33  CB        19.4510  -56.1050   34.9880 C.3    63  PHE63       0.0534
     34  CG        19.6350  -54.7360   34.4230 C.ar   63  PHE63      -0.0203
     35  CD1       20.8850  -54.3130   33.9760 C.ar   63  PHE63      -0.0042
     36  CD2       18.5710  -53.8550   34.3430 C.ar   63  PHE63      -0.0042
     37  CE1       21.0560  -53.0290   33.4430 C.ar   63  PHE63      -0.0003
     38  CE2       18.7460  -52.5710   33.8110 C.ar   63  PHE63      -0.0003
     39  CZ        19.9750  -52.1660   33.3640 C.ar   63  PHE63      -0.0000
     40  N         12.3750  -52.9600   34.6190 N.3    76  ILE76      -0.1245
     41  CA        11.8010  -51.6430   34.7470 C.3    76  ILE76       0.1561
     42  C         11.1450  -51.2280   33.4340 C.2    76  ILE76       0.2260
     43  O         11.5940  -51.6090   32.3520 O.2    76  ILE76      -0.2867
     44  CB        12.8010  -50.6120   35.3250 C.3    76  ILE76       0.0252
     45  CG1       12.3320  -49.1870   35.0780 C.3    76  ILE76       0.0019
     46  CG2       14.2080  -50.8270   34.8130 C.3    76  ILE76       0.0019
     47  CD1       12.5750  -48.2890   36.2730 C.3    76  ILE76       0.0001
     48  N          9.1990  -47.7220   31.7430 N.3    78  ALA78      -0.1245
     49  CA         8.9000  -46.3160   32.0370 C.3    78  ALA78       0.1562
     50  C          8.5040  -45.5480   30.7990 C.2    78  ALA78       0.2260
     51  O          8.9390  -45.8630   29.6970 O.2    78  ALA78      -0.2867
     52  CB        10.1100  -45.6260   32.7080 C.3    78  ALA78       0.0290
     53  N          8.7720  -41.8080   29.2300 N.3    80  ILE80      -0.1245
     54  CA         9.5810  -40.6250   29.4550 C.3    80  ILE80       0.1561
     55  C          9.3490  -39.5860   28.3840 C.2    80  ILE80       0.2260
     56  O          9.2200  -39.9280   27.2100 O.2    80  ILE80      -0.2867
     57  CB        11.1040  -41.0230   29.4870 C.3    80  ILE80       0.0252
     58  CG1       11.3580  -42.0360   30.5980 C.3    80  ILE80       0.0019
     59  CG2       12.0030  -39.7540   29.5940 C.3    80  ILE80       0.0019
     60  CD1       12.6940  -42.6810   30.5240 C.3    80  ILE80       0.0001
     61  N          9.0360  -38.5980   34.0250 N.3    90  SER90      -0.1217
     62  CA         8.9230  -40.0330   33.8260 C.3    90  SER90       0.1889
     63  C          7.9020  -40.6360   34.7760 C.2    90  SER90       0.2288
     64  O          7.6580  -40.1220   35.8800 O.2    90  SER90      -0.2866
     65  CB        10.2630  -40.7020   34.0720 C.3    90  SER90       0.2089
     66  OG        10.6220  -40.4980   35.4250 O.3    90  SER90      -0.2183
     67  N          6.6920  -45.5220   40.3200 N.3   107  PHE107     -0.1241
     68  CA         7.2380  -44.2060   40.6180 C.3   107  PHE107      0.1605
     69  C          6.8730  -43.1720   39.5680 C.2   107  PHE107      0.2264
     70  O          6.4910  -43.4920   38.4350 O.2   107  PHE107     -0.2867
     71  CB         8.7720  -44.2970   40.6440 C.3   107  PHE107      0.0534
     72  CG         9.3900  -44.4730   39.2750 C.ar  107  PHE107     -0.0203
     73  CD1        9.7480  -43.3620   38.5040 C.ar  107  PHE107     -0.0042
     74  CD2        9.5400  -45.7480   38.7180 C.ar  107  PHE107     -0.0042
     75  CE1       10.2990  -43.5210   37.2440 C.ar  107  PHE107     -0.0003
     76  CE2       10.0920  -45.9130   37.4180 C.ar  107  PHE107     -0.0003
     77  CZ        10.4810  -44.7930   36.7030 C.ar  107  PHE107     -0.0000
     78  N          8.7590  -39.2390   38.5140 N.3   109  GLY109     -0.1210
     79  CA         9.7830  -38.2800   38.9000 C.3   109  GLY109      0.1956
     80  C         10.1130  -37.2940   37.7930 C.2   109  GLY109      0.2613
     81  O          9.8550  -37.5360   36.6190 O.2   109  GLY109     -0.2717
     82  N         10.7130  -36.1790   38.1730 N.am  110  SER110     -0.1938
     83  CA        11.1410  -35.2330   37.1700 C.3   110  SER110      0.2055
     84  C         12.6130  -34.9180   37.4330 C.2   110  SER110      0.2642
     85  O         13.0880  -35.0190   38.5740 O.2   110  SER110     -0.2714
     86  CB        10.3040  -33.9770   37.2410 C.3   110  SER110      0.2130
     87  OG        10.5110  -33.3440   38.4780 O.3   110  SER110     -0.2179
     88  N         13.3370  -34.5960   36.3670 N.am  111  VAL111     -0.1977
     89  CA        14.7250  -34.2390   36.4900 C.3   111  VAL111      0.1596
     90  C         14.8800  -32.9300   35.7460 C.2   111  VAL111      0.2287
     91  O         14.3950  -32.8020   34.6360 O.2   111  VAL111     -0.2864
     92  CB        15.6470  -35.3550   35.9290 C.3   111  VAL111      0.0276
     93  CG1       17.0990  -34.9060   35.9130 C.3   111  VAL111      0.0022
     94  CG2       15.5020  -36.6660   36.7740 C.3   111  VAL111      0.0022
     95  N         16.7230  -34.0000   40.9640 N.3   138  HIS138     -0.1241
     96  CA        15.7980  -35.1330   40.8960 C.3   138  HIS138      0.1621
     97  C         14.7010  -34.9020   41.9480 C.2   138  HIS138      0.2264
     98  O         14.9870  -34.5230   43.0980 O.2   138  HIS138     -0.2867
     99  CB        16.5330  -36.4510   41.2420 C.3   138  HIS138      0.0745
    100  CG        17.2490  -37.1100   40.0860 C.ar  138  HIS138      0.0817
    101  ND1       18.3360  -36.5410   39.4440 N.ar  138  HIS138     -0.2268
    102  CD2       17.0900  -38.3420   39.5270 C.ar  138  HIS138      0.1154
    103  CE1       18.7670  -37.3640   38.4950 C.ar  138  HIS138      0.1986
    104  NE2       18.0470  -38.4780   38.5450 N.ar  138  HIS138     -0.2212
    105  N         11.5340  -37.2060   43.2530 N.3   140  ILE140     -0.1245
    106  CA        11.0100  -38.5570   43.0590 C.3   140  ILE140      0.1561
    107  C          9.8820  -38.9300   44.0180 C.2   140  ILE140      0.2260
    108  O          9.9520  -38.6980   45.2360 O.2   140  ILE140     -0.2867
    109  CB        12.1570  -39.6020   43.2070 C.3   140  ILE140      0.0252
    110  CG1       13.2180  -39.4340   42.1120 C.3   140  ILE140      0.0019
    111  CG2       11.6100  -41.0100   43.2760 C.3   140  ILE140      0.0019
    112  CD1       14.6430  -39.5940   42.6310 C.3   140  ILE140      0.0001
    113  N          8.0010  -42.4200   45.0020 N.3   142  MET142     -0.1245
    114  CA         7.9750  -43.8630   44.7750 C.3   142  MET142      0.1570
    115  C          7.0960  -44.6320   45.7500 C.2   142  MET142      0.2261
    116  O          6.9220  -44.2360   46.9080 O.2   142  MET142     -0.2867
    117  CB         9.3700  -44.4670   44.7350 C.3   142  MET142      0.0387
    118  CG        10.2180  -44.1960   45.9710 C.3   142  MET142      0.0595
    119  SD        11.9570  -44.7250   45.7630 S.3   142  MET142     -0.1393
    120  CE        12.3840  -45.0520   47.5120 C.3   142  MET142      0.0692
    121  N         24.0480  -45.9340   50.0340 N.3   176  TRP176     -0.1227
    122  CA        23.6620  -45.8340   48.6290 C.3   176  TRP176      0.1737
    123  C         24.7700  -46.2260   47.6240 C.2   176  TRP176      0.2595
    124  O         24.5630  -47.0230   46.7050 O.2   176  TRP176     -0.2718
    125  CB        23.2570  -44.3720   48.4470 C.3   176  TRP176      0.0564
    126  CG        22.7160  -43.9260   47.1380 C.ar  176  TRP176      0.0003
    127  CD1       22.5970  -44.6480   45.9710 C.ar  176  TRP176      0.0946
    128  CD2       22.2160  -42.5990   46.8540 C.ar  176  TRP176      0.0152
    129  NE1       22.0740  -43.8440   44.9830 N.ar  176  TRP176     -0.2442
    130  CE2       21.8200  -42.5880   45.4920 C.ar  176  TRP176      0.0810
    131  CE3       22.0090  -41.4460   47.6390 C.ar  176  TRP176      0.0012
    132  CZ2       21.2680  -41.4430   44.8760 C.ar  176  TRP176      0.0191
    133  CZ3       21.4480  -40.3060   47.0310 C.ar  176  TRP176      0.0001
    134  CH2       21.1160  -40.3080   45.6480 C.ar  176  TRP176      0.0015
    135  N         25.9570  -45.6730   47.8110 N.am  177  PHE177     -0.1976
    136  CA        27.0510  -45.9320   46.8910 C.3   177  PHE177      0.1639
    137  C         27.9370  -47.0480   47.3730 C.2   177  PHE177      0.2290
    138  O         29.0680  -46.8440   47.7470 O.2   177  PHE177     -0.2864
    139  CB        27.7850  -44.6220   46.5920 C.3   177  PHE177      0.0560
    140  CG        26.8880  -43.5850   45.9760 C.ar  177  PHE177     -0.0200
    141  CD1       26.4300  -43.7400   44.6730 C.ar  177  PHE177     -0.0042
    142  CD2       26.3400  -42.5720   46.7540 C.ar  177  PHE177     -0.0042
    143  CE1       25.5520  -42.8250   44.1100 C.ar  177  PHE177     -0.0003
    144  CE2       25.4330  -41.6540   46.2000 C.ar  177  PHE177     -0.0003
    145  CZ        25.0360  -41.7910   44.8800 C.ar  177  PHE177     -0.0000
    146  N         11.1610  -37.7290   47.7680 N.3   214  TRP214     -0.1241
    147  CA        12.4580  -37.1770   48.1400 C.3   214  TRP214      0.1605
    148  C         13.1490  -36.5720   46.9490 C.2   214  TRP214      0.2264
    149  O         12.8110  -36.8710   45.8060 O.2   214  TRP214     -0.2867
    150  CB        13.3430  -38.2890   48.7350 C.3   214  TRP214      0.0550
    151  CG        13.5200  -39.5100   47.8430 C.ar  214  TRP214      0.0003
    152  CD1       12.5620  -40.4520   47.5100 C.ar  214  TRP214      0.0946
    153  CD2       14.7360  -39.9510   47.2120 C.ar  214  TRP214      0.0152
    154  NE1       13.1160  -41.4310   46.7170 N.ar  214  TRP214     -0.2442
    155  CE2       14.4440  -41.1550   46.5280 C.ar  214  TRP214      0.0810
    156  CE3       16.0470  -39.4440   47.1620 C.ar  214  TRP214      0.0012
    157  CZ2       15.4090  -41.8480   45.7900 C.ar  214  TRP214      0.0191
    158  CZ3       17.0010  -40.1540   46.4610 C.ar  214  TRP214      0.0001
    159  CH2       16.6720  -41.3410   45.7780 C.ar  214  TRP214      0.0015
    160  N         17.2220  -34.9810   45.4400 N.3   216  PHE216     -0.1241
    161  CA        18.6810  -34.8170   45.5780 C.3   216  PHE216      0.1605
    162  C         19.1760  -34.0840   44.3100 C.2   216  PHE216      0.2264
    163  O         18.4580  -34.0320   43.3180 O.2   216  PHE216     -0.2867
    164  CB        19.3790  -36.1760   45.7660 C.3   216  PHE216      0.0534
    165  CG        19.4880  -36.9930   44.4980 C.ar  216  PHE216     -0.0203
    166  CD1       20.6190  -36.8990   43.6770 C.ar  216  PHE216     -0.0042
    167  CD2       18.5070  -37.9340   44.1690 C.ar  216  PHE216     -0.0042
    168  CE1       20.7400  -37.6970   42.5460 C.ar  216  PHE216     -0.0003
    169  CE2       18.6350  -38.7310   43.0670 C.ar  216  PHE216     -0.0003
    170  CZ        19.7510  -38.6220   42.2530 C.ar  216  PHE216     -0.0000
    171  N         22.8370  -33.4940   41.7540 N.3   218  HIS218     -0.1241
    172  CA        24.1410  -34.0380   41.4570 C.3   218  HIS218      0.1621
    173  C         24.8910  -33.0950   40.5510 C.2   218  HIS218      0.2264
    174  O         24.3160  -32.5970   39.5780 O.2   218  HIS218     -0.2867
    175  CB        24.1150  -35.5390   41.0930 C.3   218  HIS218      0.0745
    176  CG        24.0510  -35.8540   39.6310 C.ar  218  HIS218      0.0817
    177  ND1       25.1400  -36.3570   38.9360 N.ar  218  HIS218     -0.2268
    178  CD2       22.9890  -35.9500   38.7870 C.ar  218  HIS218      0.1154
    179  CE1       24.7790  -36.6240   37.6950 C.ar  218  HIS218      0.1986
    180  NE2       23.4780  -36.3980   37.5780 N.ar  218  HIS218     -0.2212
    181  N         13.9830  -49.1540   18.9730 N.3   243  ALA243     -0.1231
    182  CA        15.4280  -49.3920   19.0210 C.3   243  ALA243      0.1694
    183  C         15.6580  -50.4260   20.1210 C.2   243  ALA243      0.2592
    184  O         14.7920  -50.6130   20.9840 O.2   243  ALA243     -0.2718
    185  CB        16.2190  -48.0840   19.3250 C.3   243  ALA243      0.0304
    186  N         16.7970  -51.1190   20.0910 N.am  244  GLN244     -0.1966
    187  CA        17.0660  -52.1120   21.1500 C.3   244  GLN244      0.1733
    188  C         18.5360  -52.4550   21.2670 C.2   244  GLN244      0.2616
    189  O         19.2900  -52.2500   20.3200 O.2   244  GLN244     -0.2715
    190  CB        16.2480  -53.3940   20.9370 C.3   244  GLN244      0.0408
    191  CG        16.6320  -54.1840   19.6940 C.3   244  GLN244      0.0908
    192  CD        15.4690  -54.9580   19.0930 C.2   244  GLN244      0.2608
    193  OE1       14.4760  -54.3660   18.6600 O.2   244  GLN244     -0.2717
    194  NE2       15.6070  -56.2780   19.0140 N.am  244  GLN244     -0.0878
    195  N         18.9330  -52.9600   22.4340 N.am  245  VAL245     -0.1977
    196  CA        20.2960  -53.4300   22.6760 C.3   245  VAL245      0.1596
    197  C         20.1970  -54.6840   23.5280 C.2   245  VAL245      0.2287
    198  O         19.4160  -54.7370   24.4910 O.2   245  VAL245     -0.2864
    199  CB        21.2070  -52.3810   23.4470 C.3   245  VAL245      0.0276
    200  CG1       22.6630  -52.7540   23.2910 C.3   245  VAL245      0.0022
    201  CG2       21.0230  -51.0140   22.9080 C.3   245  VAL245      0.0022
    202  N         20.1140  -48.2720   17.2960 N.3   264  PHE264     -0.1241
    203  CA        19.4010  -47.1220   17.8660 C.3   264  PHE264      0.1605
    204  C         19.8920  -45.8840   17.1470 C.2   264  PHE264      0.2264
    205  O         20.8740  -45.9320   16.4320 O.2   264  PHE264     -0.2867
    206  CB        19.7220  -47.0020   19.3820 C.3   264  PHE264      0.0534
    207  CG        21.1620  -47.3100   19.7110 C.ar  264  PHE264     -0.0203
    208  CD1       22.1340  -46.3430   19.5620 C.ar  264  PHE264     -0.0042
    209  CD2       21.5550  -48.5940   20.0330 C.ar  264  PHE264     -0.0042
    210  CE1       23.4960  -46.6410   19.7670 C.ar  264  PHE264     -0.0003
    211  CE2       22.9000  -48.8970   20.2560 C.ar  264  PHE264     -0.0003
    212  CZ        23.8700  -47.9200   20.0930 C.ar  264  PHE264     -0.0000
@<TRIPOS>BOND
     1   205   204    2
     2   204   203    1
     3   202   203    1
     4   203   206    1
     5   193   192    2
     6   181   182    1
     7   194   192   am
     8   182   185    1
     9   182   183    1
    10   192   191    1
    11   206   207    1
    12   208   207   ar
    13   208   210   ar
    14   191   190    1
    15   207   209   ar
    16   210   212   ar
    17   209   211   ar
    18   186   183   am
    19   186   187    1
    20   212   211   ar
    21   183   184    2
    22   189   188    2
    23   190   187    1
    24    12    11    2
    25   187   188    1
    26   188   195   am
    27    11    10    1
    28   195   196    1
    29    14    13    1
    30   196   199    1
    31   196   197    1
    32   201   199    1
    33   200   199    1
    34     9    10    1
    35    10    13    1
    36   197   198    2
    37    13    15    1
    38     4     3    2
    39     3     2    1
    40     1     2    1
    41     2     5    1
    42     5     6    1
    43    56    55    2
    44    16    17    1
    45    17    20    1
    46    17    18    1
    47    23    21    1
    48     7     6    1
    49     6     8    1
    50    21    20    1
    51    20    22    1
    52    55    54    1
    53    18    19    2
    54    53    54    1
    55    54    57    1
    56    57    59    1
    57    57    58    1
    58    51    50    2
    59    24    25    1
    60    60    58    1
    61    25    28    1
    62    25    26    1
    63    50    49    1
    64    26    27    2
    65    48    49    1
    66    49    52    1
    67    43    42    2
    68    39    37   ar
    69    39    38   ar
    70    42    41    1
    71    37    35   ar
    72    29    30    1
    73    38    36   ar
    74    62    61    1
    75    62    65    1
    76    62    63    1
    77    35    34   ar
    78    30    31    1
    79    30    33    1
    80    65    66    1
    81    36    34   ar
    82    34    33    1
    83    40    41    1
    84    91    90    2
    85    31    32    2
    86    41    44    1
    87    63    64    2
    88    46    44    1
    89    45    44    1
    90    45    47    1
    91    90    89    1
    92    93    92    1
    93    92    89    1
    94    92    94    1
    95    88    89    1
    96    88    84   am
    97    81    80    2
    98    77    75   ar
    99    77    76   ar
   100    83    86    1
   101    83    84    1
   102    83    82    1
   103    86    87    1
   104    75    73   ar
   105    76    74   ar
   106    84    85    2
   107   180   179   ar
   108   180   178   ar
   109   179   177   ar
   110    80    82   am
   111    80    79    1
   112    70    69    2
   113   103   104   ar
   114   103   101   ar
   115    73    72   ar
   116    78    79    1
   117   104   102   ar
   118    74    72   ar
   119   178   176   ar
   120   177   176   ar
   121    72    71    1
   122   101   100   ar
   123   102   100   ar
   124    69    68    1
   125   174   173    2
   126   176   175    1
   127   100    99    1
   128    67    68    1
   129   173   172    1
   130    68    71    1
   131    96    95    1
   132    96    99    1
   133    96    97    1
   134   175   172    1
   135   172   171    1
   136    97    98    2
   137   110   112    1
   138   110   109    1
   139   170   168   ar
   140   170   169   ar
   141   168   166   ar
   142   106   109    1
   143   106   105    1
   144   106   107    1
   145   169   167   ar
   146   109   111    1
   147   163   162    2
   148   166   165   ar
   149   107   108    2
   150   143   141   ar
   151   143   145   ar
   152   167   165   ar
   153   162   161    1
   154   165   164    1
   155   141   140   ar
   156   117   114    1
   157   117   118    1
   158   114   113    1
   159   114   115    1
   160   132   130   ar
   161   132   134   ar
   162   145   144   ar
   163   129   130   ar
   164   129   127   ar
   165   160   161    1
   166   130   128   ar
   167   161   164    1
   168   134   133   ar
   169   115   116    2
   170   119   118    1
   171   119   120    1
   172   159   157   ar
   173   159   158   ar
   174   157   155   ar
   175   149   148    2
   176   127   126   ar
   177   140   139    1
   178   140   142   ar
   179   144   142   ar
   180   158   156   ar
   181   155   154   ar
   182   155   153   ar
   183   139   136    1
   184   124   123    2
   185   154   152   ar
   186   128   126   ar
   187   128   131   ar
   188   136   137    1
   189   136   135    1
   190   148   147    1
   191   133   131   ar
   192   126   125    1
   193   156   153   ar
   194   153   151   ar
   195   137   138    2
   196   152   151   ar
   197   123   135   am
   198   123   122    1
   199   146   147    1
   200   151   150    1
   201   147   150    1
   202   125   122    1
   203   122   121    1
