@<TRIPOS>MOLECULE
tmp/3enkA01.pdb
 232 223 0 0 0
SMALL
GASTEIGER

@<TRIPOS>ATOM
      1  N          7.2400    0.2030   -1.1780 N.3    88  LYS88      -0.1245
      2  CA         8.3050    0.8150   -0.3680 C.3    88  LYS88       0.1561
      3  C          8.8310   -0.0900    0.7230 C.2    88  LYS88       0.2260
      4  O          9.6040    0.3610    1.5490 O.2    88  LYS88      -0.2867
      5  CB         7.8420    2.1460    0.2730 C.3    88  LYS88       0.0271
      6  CG         6.7250    1.9610    1.3620 C.3    88  LYS88       0.0035
      7  CD         6.7530    3.0110    2.4650 C.3    88  LYS88       0.0206
      8  CE         5.6550    2.7800    3.5190 C.3    88  LYS88       0.1093
      9  NZ         5.5990    3.9230    4.5480 N.3    88  LYS88      -0.1314
     10  N         11.3630   -2.4450    1.9870 N.3    90  VAL90      -0.1245
     11  CA        12.6890   -2.9630    1.6430 C.3    90  VAL90       0.1561
     12  C         12.8030   -4.4990    1.6680 C.2    90  VAL90       0.2260
     13  O         13.3040   -5.1080    0.7120 O.2    90  VAL90      -0.2867
     14  CB        13.7600   -2.4090    2.5780 C.3    90  VAL90       0.0252
     15  CG1       15.0610   -3.1630    2.3670 C.3    90  VAL90       0.0019
     16  CG2       13.9380   -0.9440    2.3390 C.3    90  VAL90       0.0019
     17  N         14.4670    9.1820   -1.8000 N.3   128  SER128     -0.1217
     18  CA        14.7510    8.6250   -0.4960 C.3   128  SER128      0.1889
     19  C         16.2430    8.7230   -0.1700 C.2   128  SER128      0.2288
     20  O         17.0680    8.6800   -1.0820 O.2   128  SER128     -0.2866
     21  CB        14.3410    7.1510   -0.4800 C.3   128  SER128      0.2089
     22  OG        14.8030    6.4810    0.6800 O.3   128  SER128     -0.2183
     23  N         17.8000    6.4170    0.9390 N.3   130  THR130     -0.1218
     24  CA        18.3060    5.1240    0.4510 C.3   130  THR130      0.1862
     25  C         19.2230    5.2950   -0.7720 C.2   130  THR130      0.2287
     26  O         20.0560    4.4320   -1.0130 O.2   130  THR130     -0.2866
     27  CB        17.1320    4.1520    0.1240 C.3   130  THR130      0.1770
     28  OG1       17.6230    2.8240    0.0160 O.3   130  THR130     -0.2211
     29  CG2       16.4750    4.5350   -1.1620 C.3   130  THR130      0.0375
     30  N         19.5540   -2.2770   -1.8680 N.3   150  ASN150     -0.1240
     31  CA        18.3580   -3.1210   -1.9710 C.3   150  ASN150      0.1653
     32  C         17.5030   -2.6640   -3.1720 C.2   150  ASN150      0.2266
     33  O         17.6310   -1.5390   -3.5870 O.2   150  ASN150     -0.2867
     34  CB        17.5650   -3.0540   -0.6620 C.3   150  ASN150      0.1155
     35  CG        17.0860   -1.6570   -0.3380 C.2   150  ASN150      0.2627
     36  OD1       16.1780   -1.1510   -0.9750 O.2   150  ASN150     -0.2716
     37  ND2       17.7240   -1.0080    0.6440 N.am  150  ASN150     -0.0877
     38  N         14.4060   -1.8150   -3.7080 N.3   152  TYR152     -0.1241
     39  CA        13.6440   -0.6060   -3.4550 C.3   152  TYR152      0.1605
     40  C         14.5300    0.6500   -3.6550 C.2   152  TYR152      0.2264
     41  O         14.1510    1.5660   -4.3880 O.2   152  TYR152     -0.2867
     42  CB        12.9920   -0.6210   -2.0600 C.3   152  TYR152      0.0534
     43  CG        12.5290    0.7480   -1.6830 C.ar  152  TYR152     -0.0201
     44  CD1       13.2490    1.5200   -0.7600 C.ar  152  TYR152     -0.0009
     45  CD2       11.4190    1.3040   -2.3050 C.ar  152  TYR152     -0.0009
     46  CE1       12.8520    2.8120   -0.4380 C.ar  152  TYR152      0.0417
     47  CE2       10.9970    2.6060   -1.9880 C.ar  152  TYR152      0.0417
     48  CZ        11.7240    3.3430   -1.0570 C.ar  152  TYR152      0.1957
     49  OH        11.3080    4.6110   -0.7460 O.3   152  TYR152     -0.2866
     50  N         14.1140   11.6780    4.4780 N.3   181  PHE181     -0.1227
     51  CA        14.8200   10.7950    5.3960 C.3   181  PHE181      0.1736
     52  C         13.8560    9.8240    6.0720 C.2   181  PHE181      0.2595
     53  O         13.4030    8.8830    5.3940 O.2   181  PHE181     -0.2718
     54  CB        15.7960   11.5810    6.2950 C.3   181  PHE181      0.0547
     55  CG        17.0900   11.8750    5.5760 C.ar  181  PHE181     -0.0202
     56  CD1       17.0740   12.6530    4.4200 C.ar  181  PHE181     -0.0042
     57  CD2       18.2830   11.2910    5.9870 C.ar  181  PHE181     -0.0042
     58  CE1       18.2460   12.8900    3.6710 C.ar  181  PHE181     -0.0003
     59  CE2       19.4910   11.5480    5.2600 C.ar  181  PHE181     -0.0003
     60  CZ        19.4470   12.3450    4.1050 C.ar  181  PHE181     -0.0000
     61  N         13.5210   10.0060    7.3550 N.am  182  ASN182     -0.1961
     62  CA        12.6290    9.0570    8.0230 C.3   182  ASN182      0.1804
     63  C         11.3580    9.7360    8.5510 C.2   182  ASN182      0.2463
     64  O         11.3100   10.1590    9.7220 O.2   182  ASN182     -0.2730
     65  CB        13.3450    8.2960    9.1550 C.3   182  ASN182      0.1195
     66  CG        14.4340    7.3090    8.6480 C.2   182  ASN182      0.2630
     67  OD1       15.3900    7.6950    7.9760 O.2   182  ASN182     -0.2716
     68  ND2       14.3030    6.0540    9.0180 N.am  182  ASN182     -0.0877
     69  N         10.3160    9.8450    7.6950 N.am  183  PRO183     -0.2727
     70  CA         9.0890   10.5030    8.1370 C.3   183  PRO183      0.1402
     71  C          8.3800    9.7180    9.2370 C.2   183  PRO183      0.2269
     72  O          8.2340    8.4820    9.1320 O.2   183  PRO183     -0.2865
     73  CB         8.2060   10.5200    6.8680 C.3   183  PRO183      0.0296
     74  CG         9.1170   10.2350    5.7540 C.3   183  PRO183      0.0237
     75  CD        10.2300    9.4060    6.2980 C.3   183  PRO183      0.0939
     76  N          4.3370   -3.8820   11.3280 N.3   200  PRO200     -0.2102
     77  CA         5.0960   -2.7800   10.7270 C.3   200  PRO200      0.1504
     78  C          6.5320   -3.1270   10.5160 C.2   200  PRO200      0.2576
     79  O          7.1450   -3.7970   11.3620 O.2   200  PRO200     -0.2718
     80  CB         5.0170   -1.6810   11.7960 C.3   200  PRO200      0.0282
     81  CG         3.8230   -2.0290   12.6100 C.3   200  PRO200      0.0208
     82  CD         3.7950   -3.5110   12.6440 C.3   200  PRO200      0.0893
     83  N          7.0870   -2.6640    9.4010 N.am  201  ASN201     -0.1961
     84  CA         8.5080   -2.8400    9.1550 C.3   201  ASN201      0.1819
     85  C          9.3310   -1.7550    9.8190 C.2   201  ASN201      0.2621
     86  O         10.5010   -1.9810   10.1510 O.2   201  ASN201     -0.2715
     87  CB         8.8110   -2.8330    7.6480 C.3   201  ASN201      0.1195
     88  CG         8.0400   -3.8970    6.8980 C.2   201  ASN201      0.2630
     89  OD1        7.2830   -3.5980    5.9480 O.2   201  ASN201     -0.2716
     90  ND2        8.2060   -5.1440    7.3240 N.am  201  ASN201     -0.0877
     91  N          8.7140   -0.5880   10.0020 N.am  202  ASN202     -0.1958
     92  CA         9.3800    0.6370   10.4620 C.3   202  ASN202      0.1819
     93  C          9.2790    0.8660   11.9760 C.2   202  ASN202      0.2621
     94  O          8.3900    0.3170   12.6320 O.2   202  ASN202     -0.2715
     95  CB         8.8030    1.8370    9.7080 C.3   202  ASN202      0.1195
     96  CG         9.2270    1.8750    8.2500 C.2   202  ASN202      0.2630
     97  OD1       10.3380    2.2930    7.9230 O.2   202  ASN202     -0.2716
     98  ND2        8.3340    1.4510    7.3620 N.am  202  ASN202     -0.0877
     99  N         10.1720    1.6940   12.5080 N.am  203  LEU203     -0.1963
    100  CA        10.2880    1.9060   13.9590 C.3   203  LEU203      0.1728
    101  C          9.0740    2.5600   14.6140 C.2   203  LEU203      0.2616
    102  O          8.4840    1.9650   15.5170 O.2   203  LEU203     -0.2715
    103  CB        11.5540    2.7140   14.2980 C.3   203  LEU203      0.0311
    104  CG        11.8820    2.9060   15.7860 C.3   203  LEU203      0.0022
    105  CD1       12.0310    1.5590   16.5140 C.3   203  LEU203      0.0001
    106  CD2       13.0970    3.7510   15.9980 C.3   203  LEU203      0.0001
    107  N          8.6930    3.7760   14.1990 N.am  204  MET204     -0.1977
    108  CA         7.6490    4.4880   14.9610 C.3   204  MET204      0.1605
    109  C          6.2970    3.7720   14.9740 C.2   204  MET204      0.2287
    110  O          5.6770    3.6880   16.0370 O.2   204  MET204     -0.2864
    111  CB         7.5280    5.9890   14.6030 C.3   204  MET204      0.0413
    112  CG         6.6880    6.8190   15.6400 C.3   204  MET204      0.0598
    113  SD         7.0940    8.5830   15.8790 S.3   204  MET204     -0.1393
    114  CE         8.7060    8.4070   16.6550 C.3   204  MET204      0.0692
    115  N          5.8170    0.5390   14.8710 N.3   206  TYR206     -0.1241
    116  CA         5.9820   -0.5900   15.7900 C.3   206  TYR206      0.1605
    117  C          5.9050   -0.1300   17.2450 C.2   206  TYR206      0.2264
    118  O          5.1620   -0.7100   18.0520 O.2   206  TYR206     -0.2867
    119  CB         7.2930   -1.3360   15.5430 C.3   206  TYR206      0.0534
    120  CG         7.2100   -2.8110   15.9100 C.ar  206  TYR206     -0.0201
    121  CD1        7.1220   -3.2230   17.2470 C.ar  206  TYR206     -0.0009
    122  CD2        7.1960   -3.7940   14.9190 C.ar  206  TYR206     -0.0009
    123  CE1        7.0460   -4.5660   17.5840 C.ar  206  TYR206      0.0417
    124  CE2        7.1120   -5.1460   15.2490 C.ar  206  TYR206      0.0417
    125  CZ         7.0240   -5.5200   16.5790 C.ar  206  TYR206      0.1957
    126  OH         6.9390   -6.8600   16.9030 O.3   206  TYR206     -0.2866
    127  N          8.6740   -4.4690   21.5040 N.3   218  LEU218     -0.1231
    128  CA         9.5350   -3.9630   20.4320 C.3   218  LEU218      0.1693
    129  C         10.8340   -4.7510   20.4290 C.2   218  LEU218      0.2592
    130  O         11.3840   -5.0250   21.4940 O.2   218  LEU218     -0.2718
    131  CB         9.8300   -2.4970   20.6820 C.3   218  LEU218      0.0284
    132  CG        10.3970   -1.4920   19.6580 C.3   218  LEU218      0.0019
    133  CD1       11.7220   -0.9660   20.1000 C.3   218  LEU218      0.0001
    134  CD2       10.3820   -1.8790   18.1820 C.3   218  LEU218      0.0001
    135  N         11.3150   -5.1090   19.2410 N.am  219  ARG219     -0.1966
    136  CA        12.6760   -5.6120   19.0630 C.3   219  ARG219      0.1729
    137  C         13.6010   -4.5200   18.5330 C.2   219  ARG219      0.2616
    138  O         13.3100   -3.8910   17.5080 O.2   219  ARG219     -0.2715
    139  CB        12.6910   -6.8000   18.0910 C.3   219  ARG219      0.0348
    140  CG        12.4300   -8.1630   18.7190 C.3   219  ARG219      0.0492
    141  CD        10.9900   -8.3060   19.2120 C.3   219  ARG219      0.2205
    142  NE        10.6190   -9.7140   19.3430 N.pl3 219  ARG219     -0.0865
    143  CZ         9.9060  -10.3930   18.4450 C.cat 219  ARG219      0.5346
    144  NH1        9.4530   -9.7960   17.3460 N.pl3 219  ARG219      0.1354
    145  NH2        9.6290  -11.6710   18.6570 N.pl3 219  ARG219      0.1354
    146  N         14.7000   -4.2790   19.2400 N.am  220  VAL220     -0.1963
    147  CA        15.7120   -3.3120   18.8180 C.3   220  VAL220      0.1727
    148  C         16.7820   -4.0620   18.0000 C.2   220  VAL220      0.2616
    149  O         17.4330   -4.9810   18.5250 O.2   220  VAL220     -0.2715
    150  CB        16.3320   -2.5880   20.0590 C.3   220  VAL220      0.0290
    151  CG1       17.4340   -1.6330   19.6520 C.3   220  VAL220      0.0023
    152  CG2       15.2530   -1.8140   20.8020 C.3   220  VAL220      0.0023
    153  N         16.9450   -3.6700   16.7270 N.am  221  PHE221     -0.1974
    154  CA        17.8080   -4.3840   15.7600 C.3   221  PHE221      0.1639
    155  C         19.2540   -3.9060   15.8350 C.2   221  PHE221      0.2290
    156  O         19.6550   -2.9660   15.1270 O.2   221  PHE221     -0.2864
    157  CB        17.2980   -4.2320   14.3020 C.3   221  PHE221      0.0560
    158  CG        15.8700   -4.6870   14.0880 C.ar  221  PHE221     -0.0200
    159  CD1       15.2670   -5.6140   14.9470 C.ar  221  PHE221     -0.0042
    160  CD2       15.1330   -4.2130   12.9880 C.ar  221  PHE221     -0.0042
    161  CE1       13.9450   -6.0420   14.7400 C.ar  221  PHE221     -0.0003
    162  CE2       13.8230   -4.6460   12.7590 C.ar  221  PHE221     -0.0003
    163  CZ        13.2180   -5.5540   13.6270 C.ar  221  PHE221     -0.0000
    164  N         26.3930   -1.2000   17.2650 N.3   225  TYR225     -0.1241
    165  CA        26.8380   -0.2620   16.2310 C.3   225  TYR225      0.1605
    166  C         27.7940    0.7920   16.8110 C.2   225  TYR225      0.2264
    167  O         27.7540    1.0560   18.0200 O.2   225  TYR225     -0.2867
    168  CB        25.6420    0.4320   15.5750 C.3   225  TYR225      0.0534
    169  CG        24.8290   -0.4360   14.6330 C.ar  225  TYR225     -0.0201
    170  CD1       25.3130   -0.7770   13.3650 C.ar  225  TYR225     -0.0009
    171  CD2       23.5680   -0.8730   14.9850 C.ar  225  TYR225     -0.0009
    172  CE1       24.5600   -1.5610   12.4800 C.ar  225  TYR225      0.0417
    173  CE2       22.8010   -1.6460   14.1100 C.ar  225  TYR225      0.0417
    174  CZ        23.3060   -1.9900   12.8730 C.ar  225  TYR225      0.1957
    175  OH        22.5470   -2.7560   12.0310 O.3   225  TYR225     -0.2866
    176  N         20.9180    2.0010   16.0480 N.3   232  GLY232     -0.1225
    177  CA        20.9490    2.7970   14.8200 C.3   232  GLY232      0.1811
    178  C         20.4880    4.2200   15.0330 C.2   232  GLY232      0.2280
    179  O         19.6390    4.4760   15.8880 O.2   232  GLY232     -0.2866
    180  N         19.0030    7.6690   13.0990 N.3   234  ARG234     -0.1245
    181  CA        18.2760    8.1470   11.9200 C.3   234  ARG234      0.1563
    182  C         17.7780    9.5580   12.1000 C.2   234  ARG234      0.2260
    183  O         17.6320   10.0450   13.2250 O.2   234  ARG234     -0.2867
    184  CB        17.0620    7.2520   11.6000 C.3   234  ARG234      0.0307
    185  CG        17.3920    5.8070   11.3020 C.3   234  ARG234      0.0489
    186  CD        18.1900    5.5950    9.9800 C.3   234  ARG234      0.2205
    187  NE        18.3420    4.1610    9.7780 N.pl3 234  ARG234     -0.0865
    188  CZ        19.3970    3.4430   10.1570 C.cat 234  ARG234      0.5346
    189  NH1       20.4380    4.0250   10.7290 N.pl3 234  ARG234      0.1354
    190  NH2       19.4110    2.1270    9.9430 N.pl3 234  ARG234      0.1354
    191  N         14.7420   11.4470   11.9120 N.3   236  TYR236     -0.1241
    192  CA        13.2850   11.4070   11.9360 C.3   236  TYR236      0.1605
    193  C         12.7420   12.7820   11.6270 C.2   236  TYR236      0.2264
    194  O         13.1970   13.7760   12.1900 O.2   236  TYR236     -0.2867
    195  CB        12.7680   10.8710   13.2780 C.3   236  TYR236      0.0534
    196  CG        13.2340    9.4660   13.4980 C.ar  236  TYR236     -0.0201
    197  CD1       12.6300    8.4060   12.8080 C.ar  236  TYR236     -0.0009
    198  CD2       14.3370    9.1900   14.3300 C.ar  236  TYR236     -0.0009
    199  CE1       13.0870    7.0930   12.9570 C.ar  236  TYR236      0.0417
    200  CE2       14.7920    7.8800   14.4990 C.ar  236  TYR236      0.0417
    201  CZ        14.1660    6.8400   13.7870 C.ar  236  TYR236      0.1957
    202  OH        14.5990    5.5430   13.9100 O.3   236  TYR236     -0.2866
    203  N         17.6920    4.5770   18.2050 N.3   272  VAL272     -0.1245
    204  CA        16.4610    3.8150   18.4780 C.3   272  VAL272      0.1561
    205  C         16.0140    3.9930   19.9380 C.2   272  VAL272      0.2260
    206  O         14.8190    4.1430   20.2260 O.2   272  VAL272     -0.2867
    207  CB        16.6550    2.3200   18.2110 C.3   272  VAL272      0.0252
    208  CG1       15.3740    1.5190   18.5280 C.3   272  VAL272      0.0019
    209  CG2       17.1020    2.0860   16.7790 C.3   272  VAL272      0.0019
    210  N         19.6410   -6.0090   11.8750 N.3   295  ARG295     -0.1245
    211  CA        18.8510   -6.4030   10.7280 C.3   295  ARG295      0.1563
    212  C         19.7490   -6.2510    9.4890 C.2   295  ARG295      0.2260
    213  O         20.2960   -5.1810    9.2540 O.2   295  ARG295     -0.2867
    214  CB        17.6440   -5.4800   10.6530 C.3   295  ARG295      0.0307
    215  CG        16.7880   -5.5600    9.3970 C.3   295  ARG295      0.0489
    216  CD        16.2930   -4.1350    9.1010 C.3   295  ARG295      0.2205
    217  NE        14.9060   -3.9120    9.4310 N.pl3 295  ARG295     -0.0865
    218  CZ        14.3160   -2.7240    9.5730 C.cat 295  ARG295      0.5346
    219  NH1       14.9890   -1.5730    9.4800 N.pl3 295  ARG295      0.1354
    220  NH2       13.0230   -2.6970    9.8330 N.pl3 295  ARG295      0.1354
    221  N         21.5040   -5.2950    6.1450 N.3   297  GLY297     -0.1210
    222  CA        21.2420   -4.1220    5.3050 C.3   297  GLY297      0.1956
    223  C         21.1560   -2.7900    6.0550 C.2   297  GLY297      0.2611
    224  O         21.2590   -1.7380    5.4340 O.2   297  GLY297     -0.2717
    225  N         20.9590   -2.8150    7.3770 N.am  298  ASP298     -0.1973
    226  CA        20.9180   -1.5550    8.1520 C.3   298  ASP298      0.1709
    227  C         22.2670   -0.8520    8.2510 C.2   298  ASP298      0.2293
    228  O         23.2840   -1.4880    8.5150 O.2   298  ASP298     -0.2864
    229  CB        20.3830   -1.7740    9.5730 C.3   298  ASP298      0.1436
    230  CG        18.8690   -1.8820    9.6370 C.2   298  ASP298      0.3671
    231  OD1       18.1990   -1.8340    8.5730 O.co2 298  ASP298     -0.2456
    232  OD2       18.3430   -2.0360   10.7830 O.co2 298  ASP298     -0.2456
@<TRIPOS>BOND
     1    41    40    2
     2    38    39    1
     3    40    39    1
     4    33    32    2
     5    39    42    1
     6    32    31    1
     7    45    47   ar
     8    45    43   ar
     9    42    43    1
    10    47    48   ar
    11    31    30    1
    12    31    34    1
    13    17    18    1
    14    43    44   ar
    15     1     2    1
    16    29    27    1
    17    20    19    2
    18    48    49    1
    19    48    46   ar
    20    26    25    2
    21    36    35    2
    22    25    24    1
    23    44    46   ar
    24    34    35    1
    25    18    21    1
    26    18    19    1
    27    21    22    1
    28     2     5    1
    29     2     3    1
    30    35    37   am
    31    28    27    1
    32    27    24    1
    33     5     6    1
    34    24    23    1
    35    13    12    2
    36     3     4    2
    37     6     7    1
    38    11    12    1
    39    11    10    1
    40    11    14    1
    41    16    14    1
    42    15    14    1
    43     7     8    1
    44     8     9    1
    45    58    60   ar
    46    58    56   ar
    47    60    59   ar
    48    56    55   ar
    49    50    51    1
    50    59    57   ar
    51   222   223    1
    52   222   221    1
    53    53    52    2
    54    51    52    1
    55    51    54    1
    56   224   223    2
    57    55    57   ar
    58    55    54    1
    59    74    75    1
    60    74    73    1
    61    89    88    2
    62   223   225   am
    63    52    61   am
    64    75    69    1
    65    73    70    1
    66    88    90   am
    67    88    87    1
    68    61    62    1
    69    98    96   am
    70   225   226    1
    71    87    84    1
    72    69    70    1
    73    69    63   am
    74    97    96    2
    75    67    66    2
    76    62    63    1
    77    62    65    1
    78    70    71    1
    79   226   227    1
    80   226   229    1
    81    96    95    1
    82   227   228    2
    83    63    64    2
    84   231   230   ar
    85    66    68   am
    86    66    65    1
    87   216   215    1
    88   216   217    1
    89    72    71    2
    90    84    83    1
    91    84    85    1
    92   213   212    2
    93   215   214    1
    94    83    78   am
    95   217   218    2
    96   219   218    1
    97   212   211    1
    98   218   220    1
    99   229   230    1
   100   230   232   ar
   101    95    92    1
   102   187   186    1
   103   187   188    2
   104    85    91   am
   105    85    86    2
   106   190   188    1
   107   186   185    1
   108    91    92    1
   109   188   189    1
   110    92    93    1
   111    78    77    1
   112    78    79    2
   113   214   211    1
   114    77    76    1
   115    77    80    1
   116   211   210    1
   117   185   184    1
   118    76    82    1
   119   184   181    1
   120   193   192    1
   121   193   194    2
   122    80    81    1
   123   191   192    1
   124   181   182    1
   125   181   180    1
   126   192   195    1
   127    93    99   am
   128    93    94    2
   129   175   174    1
   130   182   183    2
   131   172   174   ar
   132   172   170   ar
   133    99   100    1
   134    81    82    1
   135   162   160   ar
   136   162   163   ar
   137   197   199   ar
   138   197   196   ar
   139   174   173   ar
   140   199   201   ar
   141   160   158   ar
   142   195   196    1
   143   170   169   ar
   144   196   198   ar
   145   163   161   ar
   146   201   202    1
   147   201   200   ar
   148   100   103    1
   149   100   101    1
   150   158   157    1
   151   158   159   ar
   152   173   171   ar
   153   107   101   am
   154   107   108    1
   155   103   104    1
   156   157   154    1
   157   198   200   ar
   158   111   108    1
   159   111   112    1
   160   101   102    2
   161   169   171   ar
   162   169   168    1
   163   161   159   ar
   164   177   178    1
   165   177   176    1
   166   115   116    1
   167   122   124   ar
   168   122   120   ar
   169   108   109    1
   170   109   110    2
   171   178   179    2
   172   156   155    2
   173   124   125   ar
   174   119   116    1
   175   119   120    1
   176   168   165    1
   177   112   113    1
   178   154   155    1
   179   154   153    1
   180   104   106    1
   181   104   105    1
   182   116   117    1
   183   113   114    1
   184   120   121   ar
   185   165   166    1
   186   165   164    1
   187   125   126    1
   188   125   123   ar
   189   153   148   am
   190   209   207    1
   191   166   167    2
   192   117   118    2
   193   121   123   ar
   194   144   143    1
   195   138   137    2
   196   148   149    2
   197   148   147    1
   198   139   140    1
   199   139   136    1
   200   134   132    1
   201   203   204    1
   202   207   204    1
   203   207   208    1
   204   143   145    1
   205   143   142    2
   206   204   205    1
   207   137   136    1
   208   137   146   am
   209   140   141    1
   210   147   146    1
   211   147   150    1
   212   136   135    1
   213   141   142    1
   214   135   129   am
   215   151   150    1
   216   132   133    1
   217   132   131    1
   218   205   206    2
   219   150   152    1
   220   129   128    1
   221   129   130    2
   222   128   131    1
   223   128   127    1
