@<TRIPOS>MOLECULE
tmp/3ensB00.pdb
 217 215 0 0 0
SMALL
GASTEIGER

@<TRIPOS>ATOM
      1  N          8.3690    7.2600   38.1140 N.3    42  HIS42      -0.1241
      2  CA         6.9530    7.5690   37.9500 C.3    42  HIS42       0.1621
      3  C          6.0390    6.3470   38.1010 C.2    42  HIS42       0.2264
      4  O          4.8670    6.4860   38.4500 O.2    42  HIS42      -0.2867
      5  CB         6.6860    8.2880   36.6300 C.3    42  HIS42       0.0745
      6  CG         6.6710    7.3860   35.4380 C.ar   42  HIS42       0.0817
      7  ND1        7.8020    7.1090   34.7030 N.ar   42  HIS42      -0.2268
      8  CD2        5.6600    6.7130   34.8430 C.ar   42  HIS42       0.1154
      9  CE1        7.4900    6.2940   33.7110 C.ar   42  HIS42       0.1986
     10  NE2        6.1970    6.0360   33.7750 N.ar   42  HIS42      -0.2212
     11  N          8.1130   15.4760   38.8280 N.3    82  LYS82      -0.1231
     12  CA         6.8370   15.0520   38.2520 C.3    82  LYS82       0.1693
     13  C          6.4490   15.7670   36.9620 C.2    82  LYS82       0.2592
     14  O          5.8880   15.1490   36.0560 O.2    82  LYS82      -0.2718
     15  CB         5.7210   15.2170   39.2900 C.3    82  LYS82       0.0285
     16  CG         5.9050   14.3420   40.5240 C.3    82  LYS82       0.0035
     17  CD         5.2060   14.9240   41.7530 C.3    82  LYS82       0.0206
     18  CE         5.4150   14.0400   42.9880 C.3    82  LYS82       0.1093
     19  NZ         4.7180   14.5750   44.1990 N.3    82  LYS82      -0.1314
     20  N          6.7200   17.0670   36.8770 N.am   83  GLU83      -0.1966
     21  CA         6.3630   17.7950   35.6670 C.3    83  GLU83       0.1733
     22  C          7.2750   17.4830   34.4700 C.2    83  GLU83       0.2617
     23  O          6.8280   17.5160   33.3290 O.2    83  GLU83      -0.2715
     24  CB         6.2280   19.3100   35.9160 C.3    83  GLU83       0.0429
     25  CG         7.0700   19.8590   37.0470 C.3    83  GLU83       0.1163
     26  CD         6.5160   19.5040   38.4140 C.2    83  GLU83       0.3649
     27  OE1        7.2320   18.8420   39.1870 O.co2  83  GLU83      -0.2457
     28  OE2        5.3610   19.8780   38.7100 O.co2  83  GLU83      -0.2457
     29  N          8.5350   17.1500   34.7240 N.am   84  THR84      -0.1937
     30  CA         9.4830   16.9140   33.6350 C.3    84  THR84       0.2028
     31  C          9.8500   15.4340   33.4190 C.2    84  THR84       0.2642
     32  O         10.2270   15.0320   32.3150 O.2    84  THR84      -0.2714
     33  CB        10.7870   17.7040   33.8590 C.3    84  THR84       0.1808
     34  OG1       11.3790   17.3050   35.0990 O.3    84  THR84      -0.2208
     35  CG2       10.5100   19.2040   33.8960 C.3    84  THR84       0.0379
     36  N          9.7410   14.6390   34.4830 N.am   85  TYR85      -0.1973
     37  CA        10.2180   13.2560   34.4940 C.3    85  TYR85       0.1639
     38  C         11.7410   13.2030   34.4590 C.2    85  TYR85       0.2290
     39  O         12.3340   12.1950   34.0710 O.2    85  TYR85      -0.2864
     40  CB         9.6180   12.4450   33.3490 C.3    85  TYR85       0.0560
     41  CG         8.2610   11.8640   33.6580 C.ar   85  TYR85      -0.0198
     42  CD1        7.4010   12.4940   34.5410 C.ar   85  TYR85      -0.0009
     43  CD2        7.8340   10.6880   33.0510 C.ar   85  TYR85      -0.0009
     44  CE1        6.1540   11.9700   34.8220 C.ar   85  TYR85       0.0417
     45  CE2        6.5900   10.1520   33.3230 C.ar   85  TYR85       0.0417
     46  CZ         5.7530   10.7970   34.2090 C.ar   85  TYR85       0.1957
     47  OH         4.5120   10.2640   34.4840 O.3    85  TYR85      -0.2866
     48  N          1.4280   -2.2710   25.5930 N.3   132  ARG132     -0.1245
     49  CA         0.4930   -2.2670   24.4750 C.3   132  ARG132      0.1563
     50  C          1.2440   -2.5490   23.1880 C.2   132  ARG132      0.2260
     51  O          2.3170   -1.9870   22.9620 O.2   132  ARG132     -0.2867
     52  CB        -0.1980   -0.9060   24.3570 C.3   132  ARG132      0.0307
     53  CG        -1.1640   -0.5830   25.4790 C.3   132  ARG132      0.0489
     54  CD        -2.0850    0.5610   25.0790 C.3   132  ARG132      0.2205
     55  NE        -3.2290    0.6920   25.9800 N.pl3 132  ARG132     -0.0865
     56  CZ        -4.2810    1.4680   25.7400 C.cat 132  ARG132      0.5346
     57  NH1       -4.3360    2.1830   24.6210 N.pl3 132  ARG132      0.1354
     58  NH2       -5.2800    1.5260   26.6160 N.pl3 132  ARG132      0.1354
     59  N         -0.7690    1.6720   20.0330 N.3   135  GLU135     -0.1245
     60  CA        -1.1750    2.8360   20.8180 C.3   135  GLU135      0.1567
     61  C         -2.6790    2.7980   21.0960 C.2   135  GLU135      0.2260
     62  O         -3.1250    3.1000   22.2060 O.2   135  GLU135     -0.2867
     63  CB        -0.7940    4.1420   20.1190 C.3   135  GLU135      0.0388
     64  CG        -1.0090    5.3790   20.9890 C.3   135  GLU135      0.1160
     65  CD        -0.9120    6.6770   20.2090 C.2   135  GLU135      0.3649
     66  OE1        0.0130    6.8130   19.3830 O.co2 135  GLU135     -0.2457
     67  OE2       -1.7640    7.5640   20.4260 O.co2 135  GLU135     -0.2457
     68  N          8.3760   18.5590   24.5450 N.3   162  PHE162     -0.1227
     69  CA         8.7310   18.7530   25.9410 C.3   162  PHE162      0.1736
     70  C         10.2260   18.7310   26.1710 C.2   162  PHE162      0.2595
     71  O         10.9910   18.2430   25.3410 O.2   162  PHE162     -0.2718
     72  CB         8.0360   17.7060   26.8120 C.3   162  PHE162      0.0547
     73  CG         6.5540   17.7230   26.6670 C.ar  162  PHE162     -0.0202
     74  CD1        5.7970   18.7070   27.2850 C.ar  162  PHE162     -0.0042
     75  CD2        5.9120   16.7900   25.8730 C.ar  162  PHE162     -0.0042
     76  CE1        4.4260   18.7390   27.1310 C.ar  162  PHE162     -0.0003
     77  CE2        4.5420   16.8230   25.7200 C.ar  162  PHE162     -0.0003
     78  CZ         3.7990   17.7940   26.3520 C.ar  162  PHE162     -0.0000
     79  N         10.6260   19.2600   27.3170 N.am  163  ILE163     -0.1980
     80  CA        12.0300   19.3540   27.6810 C.3   163  ILE163      0.1595
     81  C         12.7140   17.9940   27.7280 C.2   163  ILE163      0.2287
     82  O         12.3120   17.1120   28.4850 O.2   163  ILE163     -0.2864
     83  CB        12.1880   19.9960   29.0570 C.3   163  ILE163      0.0276
     84  CG1       11.9130   21.4970   28.9690 C.3   163  ILE163      0.0022
     85  CG2       13.5800   19.7260   29.5960 C.3   163  ILE163      0.0022
     86  CD1       12.9690   22.2690   28.1970 C.3   163  ILE163      0.0001
     87  N          7.9510    1.0500   18.4070 N.3   179  ASP179     -0.1225
     88  CA         8.1870    1.9480   19.5250 C.3   179  ASP179      0.1805
     89  C          7.7790    1.2310   20.7930 C.2   179  ASP179      0.2598
     90  O          7.0720    0.2310   20.7390 O.2   179  ASP179     -0.2718
     91  CB         7.3340    3.2100   19.3600 C.3   179  ASP179      0.1424
     92  CG         7.7590    4.3410   20.2790 C.2   179  ASP179      0.3668
     93  OD1        7.0660    5.3800   20.2810 O.co2 179  ASP179     -0.2456
     94  OD2        8.7790    4.2060   20.9840 O.co2 179  ASP179     -0.2456
     95  N          8.2340    1.7350   21.9340 N.am  180  ALA180     -0.1966
     96  CA         7.7180    1.2870   23.2180 C.3   180  ALA180      0.1728
     97  C          6.3600    1.9480   23.4350 C.2   180  ALA180      0.2616
     98  O          5.9850    2.8670   22.7120 O.2   180  ALA180     -0.2715
     99  CB         8.6770    1.6450   24.3330 C.3   180  ALA180      0.0334
    100  N          5.6180    1.4910   24.4310 N.am  181  CYS181     -0.1954
    101  CA         4.2640    1.9840   24.6130 C.3   181  CYS181      0.1843
    102  C          3.8580    1.9120   26.0780 C.2   181  CYS181      0.2625
    103  O          4.5860    1.3740   26.9040 O.2   181  CYS181     -0.2714
    104  CB         3.2920    1.1710   23.7460 C.3   181  CYS181      0.0997
    105  SG         1.8680    2.0910   23.0950 S.3   181  CYS181     -0.0797
    106  N          2.6930    2.4660   26.3870 N.am  182  GLN182     -0.1977
    107  CA         2.1270    2.3950   27.7240 C.3   182  GLN182      0.1601
    108  C          2.1540    0.9530   28.2290 C.2   182  GLN182      0.2287
    109  O          1.6680    0.0400   27.5560 O.2   182  GLN182     -0.2864
    110  CB         0.6910    2.9080   27.6970 C.3   182  GLN182      0.0394
    111  CG         0.1190    3.2470   29.0490 C.3   182  GLN182      0.0908
    112  CD        -1.3580    3.5670   28.9690 C.2   182  GLN182      0.2608
    113  OE1       -2.1860    2.6780   28.7540 O.2   182  GLN182     -0.2717
    114  NE2       -1.6990    4.8410   29.1400 N.am  182  GLN182     -0.0878
    115  N          6.7510    1.1480   30.3920 N.3   185  SER185     -0.1217
    116  CA         7.4190    2.1230   31.2470 C.3   185  SER185      0.1889
    117  C          8.1660    1.4540   32.4070 C.2   185  SER185      0.2288
    118  O          7.6520    0.5250   33.0290 O.2   185  SER185     -0.2866
    119  CB         6.3900    3.1150   31.7740 C.3   185  SER185      0.2089
    120  OG         7.0090    4.3460   32.0550 O.3   185  SER185     -0.2183
    121  N         12.7280    2.7440   30.2860 N.3   203  VAL203     -0.1231
    122  CA        11.6230    3.3060   29.5100 C.3   203  VAL203      0.1692
    123  C         10.9260    4.3910   30.3430 C.2   203  VAL203      0.2593
    124  O         10.5000    4.1340   31.4630 O.2   203  VAL203     -0.2718
    125  CB        10.6140    2.2270   29.0720 C.3   203  VAL203      0.0266
    126  CG1        9.4440    2.8560   28.3280 C.3   203  VAL203      0.0020
    127  CG2       11.2940    1.1720   28.2080 C.3   203  VAL203      0.0020
    128  N         10.8180    5.6010   29.8060 N.am  204  SER204     -0.1938
    129  CA        10.3520    6.7330   30.6110 C.3   204  SER204      0.2055
    130  C          9.0450    7.3590   30.1250 C.2   204  SER204      0.2643
    131  O          8.0420    7.3540   30.8350 O.2   204  SER204     -0.2714
    132  CB        11.4380    7.8100   30.7100 C.3   204  SER204      0.2130
    133  OG        11.0940    8.7810   31.6800 O.3   204  SER204     -0.2179
    134  N          9.0640    7.9200   28.9260 N.am  205  TRP205     -0.1959
    135  CA         7.8710    8.5420   28.3830 C.3   205  TRP205      0.1771
    136  C          7.9730    8.7480   26.8790 C.2   205  TRP205      0.2620
    137  O          8.9850    8.4150   26.2520 O.2   205  TRP205     -0.2715
    138  CB         7.5770    9.8710   29.0890 C.3   205  TRP205      0.0590
    139  CG         8.6910   10.8650   29.0080 C.ar  205  TRP205      0.0006
    140  CD1        9.7740   10.9450   29.8280 C.ar  205  TRP205      0.0946
    141  CD2        8.8310   11.9210   28.0540 C.ar  205  TRP205      0.0152
    142  NE1       10.5830   11.9870   29.4460 N.ar  205  TRP205     -0.2442
    143  CE2       10.0230   12.6060   28.3610 C.ar  205  TRP205      0.0810
    144  CE3        8.0630   12.3590   26.9710 C.ar  205  TRP205      0.0012
    145  CZ2       10.4660   13.7010   27.6270 C.ar  205  TRP205      0.0191
    146  CZ3        8.5070   13.4510   26.2420 C.ar  205  TRP205      0.0001
    147  CH2        9.6960   14.1050   26.5730 C.ar  205  TRP205      0.0015
    148  N          6.9050    9.2930   26.3080 N.am  206  GLY206     -0.1940
    149  CA         6.8420    9.5460   24.8840 C.3   206  GLY206      0.2014
    150  C          5.5090   10.1760   24.5390 C.2   206  GLY206      0.2639
    151  O          4.5480   10.0580   25.2960 O.2   206  GLY206     -0.2714
    152  N          5.4560   10.8570   23.4000 N.am  207  GLU207     -0.1963
    153  CA         4.2100   11.4380   22.9180 C.3   207  GLU207      0.1733
    154  C          3.4600   10.4210   22.0580 C.2   207  GLU207      0.2617
    155  O          3.6090   10.3840   20.8350 O.2   207  GLU207     -0.2715
    156  CB         4.4910   12.7330   22.1550 C.3   207  GLU207      0.0429
    157  CG         5.1120   13.8030   23.0460 C.3   207  GLU207      0.1163
    158  CD         5.6920   14.9640   22.2730 C.2   207  GLU207      0.3649
    159  OE1        4.9520   15.5790   21.4810 O.co2 207  GLU207     -0.2457
    160  OE2        6.8860   15.2710   22.4710 O.co2 207  GLU207     -0.2457
    161  N          2.6640    9.5870   22.7210 N.am  208  GLY208     -0.1940
    162  CA         1.9600    8.5050   22.0630 C.3   208  GLY208      0.2014
    163  C          2.9040    7.3440   21.8290 C.2   208  GLY208      0.2639
    164  O          3.9740    7.2800   22.4410 O.2   208  GLY208     -0.2714
    165  N          2.5130    6.4300   20.9470 N.am  209  CYS209     -0.1967
    166  CA         3.3710    5.3080   20.5800 C.3   209  CYS209      0.1712
    167  C          3.5860    5.2590   19.0730 C.2   209  CYS209      0.2296
    168  O          2.6310    5.2980   18.3020 O.2   209  CYS209     -0.2864
    169  CB         2.7720    3.9890   21.0690 C.3   209  CYS209      0.0983
    170  SG         2.2530    4.0580   22.7880 S.3   209  CYS209     -0.0798
    171  N          4.4010    7.3850   16.8880 N.3   211  ARG211     -0.1245
    172  CA         3.8740    8.4990   16.0940 C.3   211  ARG211      0.1563
    173  C          4.9570    9.1050   15.2030 C.2   211  ARG211      0.2260
    174  O          6.1160    9.2110   15.6090 O.2   211  ARG211     -0.2867
    175  CB         3.2910    9.5930   16.9930 C.3   211  ARG211      0.0307
    176  CG         1.9430    9.2730   17.6130 C.3   211  ARG211      0.0489
    177  CD         1.4930   10.4460   18.4770 C.3   211  ARG211      0.2205
    178  NE         0.3670   10.1290   19.3570 N.pl3 211  ARG211     -0.0865
    179  CZ         0.0280   10.8610   20.4180 C.cat 211  ARG211      0.5346
    180  NH1       -1.0110   10.5170   21.1730 N.pl3 211  ARG211      0.1354
    181  NH2        0.7400   11.9390   20.7330 N.pl3 211  ARG211      0.1354
    182  N          9.8210   10.0270   19.1070 N.3   215  TYR215     -0.1227
    183  CA        10.6660    8.9320   19.5580 C.3   215  TYR215      0.1736
    184  C         10.2540    8.5080   20.9590 C.2   215  TYR215      0.2596
    185  O          9.4350    9.1650   21.5950 O.2   215  TYR215     -0.2718
    186  CB        12.1390    9.3510   19.5430 C.3   215  TYR215      0.0548
    187  CG        12.6210    9.7880   18.1800 C.ar  215  TYR215     -0.0200
    188  CD1       12.8120    8.8580   17.1580 C.ar  215  TYR215     -0.0009
    189  CD2       12.8860   11.1270   17.9090 C.ar  215  TYR215     -0.0009
    190  CE1       13.2490    9.2490   15.9070 C.ar  215  TYR215      0.0417
    191  CE2       13.3230   11.5280   16.6590 C.ar  215  TYR215      0.0417
    192  CZ        13.5010   10.5840   15.6640 C.ar  215  TYR215      0.1957
    193  OH        13.9350   10.9700   14.4250 O.3   215  TYR215     -0.2866
    194  N         10.8100    7.4010   21.4340 N.am  216  GLY216     -0.1942
    195  CA        10.6160    7.0110   22.8170 C.3   216  GLY216      0.2014
    196  C         11.6750    7.7050   23.6470 C.2   216  GLY216      0.2639
    197  O         12.8270    7.7830   23.2260 O.2   216  GLY216     -0.2714
    198  N         11.2850    8.2240   24.8080 N.am  217  ILE217     -0.1963
    199  CA        12.2160    8.9270   25.6840 C.3   217  ILE217      0.1727
    200  C         12.6640    8.0030   26.8000 C.2   217  ILE217      0.2616
    201  O         11.8450    7.4290   27.5050 O.2   217  ILE217     -0.2715
    202  CB        11.5890   10.2080   26.2910 C.3   217  ILE217      0.0290
    203  CG1       10.9680   11.0660   25.1840 C.3   217  ILE217      0.0022
    204  CG2       12.6340   11.0040   27.0700 C.3   217  ILE217      0.0023
    205  CD1       11.9060   11.3020   24.0000 C.3   217  ILE217      0.0001
    206  N         13.9720    7.8660   26.9470 N.am  218  TYR218     -0.1974
    207  CA        14.5560    6.9320   27.9000 C.3   218  TYR218      0.1639
    208  C         15.3780    7.6670   28.9480 C.2   218  TYR218      0.2290
    209  O         16.0210    8.6810   28.6510 O.2   218  TYR218     -0.2864
    210  CB        15.4580    5.9310   27.1650 C.3   218  TYR218      0.0560
    211  CG        14.7030    5.0350   26.2220 C.ar  218  TYR218     -0.0198
    212  CD1       14.2680    5.4980   24.9840 C.ar  218  TYR218     -0.0009
    213  CD2       14.3950    3.7320   26.5840 C.ar  218  TYR218     -0.0009
    214  CE1       13.5550    4.6750   24.1280 C.ar  218  TYR218      0.0417
    215  CE2       13.6920    2.9060   25.7400 C.ar  218  TYR218      0.0417
    216  CZ        13.2750    3.3780   24.5120 C.ar  218  TYR218      0.1957
    217  OH        12.5700    2.5430   23.6840 O.3   218  TYR218     -0.2866
@<TRIPOS>BOND
     1   193   192    1
     2   173   174    2
     3   173   172    1
     4   192   190   ar
     5   192   191   ar
     6   190   188   ar
     7   172   171    1
     8   172   175    1
     9   191   189   ar
    10   175   176    1
    11   188   187   ar
    12   176   177    1
    13   189   187   ar
    14   187   186    1
    15   168   167    2
    16    87    88    1
    17   177   178    1
    18   167   166    1
    19   182   183    1
    20   178   179    2
    21    91    88    1
    22    91    92    1
    23    66    65   ar
    24    88    89    1
    25   186   183    1
    26   183   184    1
    27    59    60    1
    28    63    60    1
    29    63    64    1
    30    65    67   ar
    31    65    64    1
    32    92    93   ar
    33    92    94   ar
    34   179   181    1
    35   179   180    1
    36   166   165    1
    37   166   169    1
    38    90    89    2
    39    89    95   am
    40    60    61    1
    41   155   154    2
    42   165   163   am
    43   184   194   am
    44   184   185    2
    45   169   170    1
    46    61    62    2
    47   194   195    1
    48   159   158   ar
    49   163   162    1
    50   163   164    2
    51    95    96    1
    52   154   161   am
    53   154   153    1
    54   162   161    1
    55   156   153    1
    56   156   157    1
    57   158   160   ar
    58   158   157    1
    59    98    97    2
    60   170   105    1
    61   195   196    1
    62   153   152    1
    63    51    50    2
    64   105   104    1
    65    50    49    1
    66    96    97    1
    67    96    99    1
    68   197   196    2
    69   152   150   am
    70    97   100   am
    71   196   198   am
    72   217   216    1
    73   104   101    1
    74   205   203    1
    75   214   216   ar
    76   214   212   ar
    77    52    49    1
    78    52    53    1
    79   100   101    1
    80    49    48    1
    81   216   215   ar
    82   150   149    1
    83   150   151    2
    84    68    69    1
    85   101   102    1
    86    57    56    1
    87   198   199    1
    88   149   148    1
    89   212   211   ar
    90    54    53    1
    91    54    55    1
    92   203   202    1
    93    71    70    2
    94   199   202    1
    95   199   200    1
    96    77    75   ar
    97    77    78   ar
    98   215   213   ar
    99    56    55    2
   100    56    58    1
   101    75    73   ar
   102    69    70    1
   103    69    72    1
   104   102   106   am
   105   102   103    2
   106    70    79   am
   107   211   213   ar
   108   211   210    1
   109   146   147   ar
   110   146   144   ar
   111   137   136    2
   112   202   204    1
   113   148   136   am
   114    78    76   ar
   115   106   107    1
   116   147   145   ar
   117    73    72    1
   118    73    74   ar
   119   200   206   am
   120   200   201    2
   121   136   135    1
   122   206   207    1
   123   144   141   ar
   124    76    74   ar
   125   210   207    1
   126    79    80    1
   127   109   108    2
   128   145   143   ar
   129    80    81    1
   130    80    83    1
   131   110   107    1
   132   110   111    1
   133   107   108    1
   134    81    82    2
   135   207   208    1
   136   141   143   ar
   137   141   139   ar
   138    86    84    1
   139   127   125    1
   140   126   125    1
   141   143   142   ar
   142   135   134    1
   143   135   138    1
   144   209   208    2
   145   113   112    2
   146   134   130   am
   147    84    83    1
   148   112   111    1
   149   112   114   am
   150   139   138    1
   151   139   140   ar
   152    83    85    1
   153   125   122    1
   154   142   140   ar
   155   122   121    1
   156   122   123    1
   157   128   123   am
   158   128   129    1
   159   130   129    1
   160   130   131    2
   161   123   124    2
   162   115   116    1
   163   129   132    1
   164   132   133    1
   165   116   119    1
   166   116   117    1
   167   119   120    1
   168    32    31    2
   169   117   118    2
   170    43    45   ar
   171    43    41   ar
   172    45    46   ar
   173    23    22    2
   174    40    41    1
   175    40    37    1
   176    31    30    1
   177    31    36   am
   178    30    33    1
   179    30    29    1
   180    41    42   ar
   181     9    10   ar
   182     9     7   ar
   183    10     8   ar
   184    33    35    1
   185    33    34    1
   186    39    38    2
   187    46    47    1
   188    46    44   ar
   189    38    37    1
   190    22    29   am
   191    22    21    1
   192    36    37    1
   193    42    44   ar
   194     7     6   ar
   195     8     6   ar
   196     6     5    1
   197    21    24    1
   198    21    20    1
   199    24    25    1
   200    14    13    2
   201     5     2    1
   202    20    13   am
   203    13    12    1
   204    25    26    1
   205     2     3    1
   206     2     1    1
   207     3     4    2
   208    12    11    1
   209    12    15    1
   210    26    28   ar
   211    26    27   ar
   212    15    16    1
   213    16    17    1
   214    17    18    1
   215    18    19    1
