@<TRIPOS>MOLECULE
tmp/3envA00.pdb
 93 87 0 0 0
SMALL
GASTEIGER

@<TRIPOS>ATOM
      1  N        -17.7380  -47.5040   19.5830 N.3     6  LYS6       -0.1245
      2  CA       -18.4000  -46.2110   19.4790 C.3     6  LYS6        0.1561
      3  C        -18.7810  -45.7220   20.8540 C.2     6  LYS6        0.2260
      4  O        -18.4570  -44.5970   21.2130 O.2     6  LYS6       -0.2867
      5  CB       -19.6560  -46.3260   18.5980 C.3     6  LYS6        0.0271
      6  CG       -19.3410  -46.8120   17.1380 C.3     6  LYS6        0.0035
      7  CD       -20.6050  -47.1490   16.3680 C.3     6  LYS6        0.0206
      8  CE       -20.3810  -47.6150   14.9070 C.3     6  LYS6        0.1093
      9  NZ       -19.4390  -46.8900   13.9810 N.3     6  LYS6       -0.1314
     10  N        -22.9860  -35.1770   15.3340 N.3    27  THR27      -0.1203
     11  CA       -23.9020  -36.2050   14.8650 C.3    27  THR27       0.1994
     12  C        -23.0760  -37.4240   14.4610 C.2    27  THR27       0.2618
     13  O        -21.8700  -37.3000   14.1800 O.2    27  THR27      -0.2717
     14  CB       -24.7000  -35.7070   13.6220 C.3    27  THR27       0.1784
     15  OG1      -25.0300  -36.8080   12.7640 O.3    27  THR27      -0.2211
     16  CG2      -23.9420  -34.6670   12.8480 C.3    27  THR27       0.0376
     17  N        -23.7030  -38.6010   14.4370 N.am   28  GLY28      -0.1942
     18  CA       -22.9770  -39.8040   14.0940 C.3    28  GLY28       0.2014
     19  C        -23.1840  -40.9330   15.0990 C.2    28  GLY28       0.2640
     20  O        -23.6170  -40.6970   16.2370 O.2    28  GLY28      -0.2714
     21  N        -22.8880  -42.1640   14.6670 N.am   29  SER29      -0.1935
     22  CA       -23.1640  -43.3470   15.5030 C.3    29  SER29       0.2055
     23  C        -22.5850  -43.1200   16.8890 C.2    29  SER29       0.2643
     24  O        -23.1420  -43.5120   17.9010 O.2    29  SER29      -0.2714
     25  CB       -22.4290  -44.5270   14.9170 C.3    29  SER29       0.2130
     26  OG       -21.0830  -44.1530   14.7140 O.3    29  SER29      -0.2179
     27  N        -21.4450  -42.4350   16.8840 N.am   30  THR30      -0.1950
     28  CA       -20.5160  -42.4770   17.9630 C.3    30  THR30       0.1897
     29  C        -20.8190  -41.3090   18.8820 C.2    30  THR30       0.2313
     30  O        -20.6370  -41.4570   20.0970 O.2    30  THR30      -0.2863
     31  CB       -19.0990  -42.4810   17.3630 C.3    30  THR30       0.1794
     32  OG1      -19.0570  -43.4900   16.3340 O.3    30  THR30      -0.2208
     33  CG2      -18.0320  -42.7590   18.4010 C.3    30  THR30       0.0378
     34  N        -17.3230  -36.8560   15.2400 N.3    81  GLY81      -0.1210
     35  CA       -16.2870  -37.6110   14.5990 C.3    81  GLY81       0.1956
     36  C        -15.9420  -37.0770   13.2100 C.2    81  GLY81       0.2612
     37  O        -16.0940  -35.8990   12.9250 O.2    81  GLY81      -0.2717
     38  N        -15.5060  -37.9820   12.3450 N.am   82  ALA82      -0.1965
     39  CA       -14.8980  -37.6330   11.1020 C.3    82  ALA82       0.1728
     40  C        -15.2070  -38.7790   10.1470 C.2    82  ALA82       0.2616
     41  O        -15.7740  -39.7760   10.5470 O.2    82  ALA82      -0.2715
     42  CB       -13.4070  -37.4500   11.3160 C.3    82  ALA82       0.0334
     43  N        -14.8840  -38.5930    8.8750 N.am   83  ASP83      -0.1971
     44  CA       -14.9420  -39.6480    7.9080 C.3    83  ASP83       0.1709
     45  C        -13.5470  -40.2000    7.8040 C.2    83  ASP83       0.2293
     46  O        -13.3730  -41.4190    7.7410 O.2    83  ASP83      -0.2864
     47  CB       -15.3900  -39.1300    6.5420 C.3    83  ASP83       0.1436
     48  CG       -16.7450  -38.4950    6.6000 C.2    83  ASP83       0.3671
     49  OD1      -17.6130  -39.0000    7.3690 O.co2  83  ASP83      -0.2456
     50  OD2      -16.9180  -37.5100    5.8520 O.co2  83  ASP83      -0.2456
     51  N        -14.3050  -38.2400   17.7980 N.3   115  ILE115     -0.1245
     52  CA       -14.6010  -39.5300   18.4140 C.3   115  ILE115      0.1561
     53  C        -14.8330  -40.5090   17.2710 C.2   115  ILE115      0.2260
     54  O        -15.6680  -40.2600   16.3830 O.2   115  ILE115     -0.2867
     55  CB       -15.7950  -39.4670   19.4620 C.3   115  ILE115      0.0252
     56  CG1      -17.0570  -38.7980   18.9160 C.3   115  ILE115      0.0019
     57  CG2      -15.3300  -38.8300   20.8160 C.3   115  ILE115      0.0019
     58  CD1      -18.1480  -38.7090   19.9680 C.3   115  ILE115      0.0001
     59  N        -13.9240  -44.6930   15.3220 N.3   117  ASP117     -0.1239
     60  CA       -13.6100  -46.1080   15.3840 C.3   117  ASP117      0.1674
     61  C        -12.4020  -46.4430   14.5180 C.2   117  ASP117      0.2266
     62  O        -11.9260  -45.6010   13.7290 O.2   117  ASP117     -0.2867
     63  CB       -14.8230  -46.9490   14.9950 C.3   117  ASP117      0.1410
     64  CG       -15.0600  -47.0130   13.4890 C.2   117  ASP117      0.3668
     65  OD1      -14.1220  -46.8320   12.6600 O.co2 117  ASP117     -0.2456
     66  OD2      -16.2180  -47.3150   13.1310 O.co2 117  ASP117     -0.2456
     67  N        -11.8300  -47.4720   11.8960 N.3   119  THR119     -0.1203
     68  CA       -11.8590  -47.2180   10.4740 C.3   119  THR119      0.1994
     69  C        -11.4070  -45.7970   10.1500 C.2   119  THR119      0.2617
     70  O        -11.2670  -45.4670    8.9870 O.2   119  THR119     -0.2717
     71  CB       -13.2690  -47.5290    9.8010 C.3   119  THR119      0.1784
     72  OG1      -13.5070  -48.9390    9.8140 O.3   119  THR119     -0.2211
     73  CG2      -13.2650  -47.1390    8.3540 C.3   119  THR119      0.0376
     74  N        -11.2140  -44.9270   11.1340 N.am  120  LYS120     -0.1979
     75  CA       -10.9540  -43.5150   10.6840 C.3   120  LYS120      0.1596
     76  C         -9.5220  -42.9570   10.4300 C.2   120  LYS120      0.2287
     77  O         -9.3460  -41.9730    9.6710 O.2   120  LYS120     -0.2864
     78  CB       -11.9130  -42.5310   11.3490 C.3   120  LYS120      0.0298
     79  CG       -13.3460  -43.0330   11.2950 C.3   120  LYS120      0.0038
     80  CD       -13.8380  -42.9660    9.8600 C.3   120  LYS120      0.0206
     81  CE       -15.2170  -43.5940    9.7180 C.3   120  LYS120      0.1093
     82  NZ       -16.0320  -43.1610   10.9820 N.3   120  LYS120     -0.1314
     83  N        -12.0120  -41.9090    1.1440 N.3   128  PHE128     -0.1241
     84  CA       -13.3830  -41.5270    1.3720 C.3   128  PHE128      0.1605
     85  C        -13.6350  -40.2030    0.6690 C.2   128  PHE128      0.2264
     86  O        -12.8490  -39.2320    0.9440 O.2   128  PHE128     -0.2867
     87  CB       -13.6560  -41.4010    2.8790 C.3   128  PHE128      0.0534
     88  CG       -15.0210  -41.0900    3.1420 C.ar  128  PHE128     -0.0203
     89  CD1      -15.4370  -39.7760    3.1510 C.ar  128  PHE128     -0.0042
     90  CD2      -15.9810  -42.1010    3.1820 C.ar  128  PHE128     -0.0042
     91  CE1      -16.7680  -39.4970    3.2970 C.ar  128  PHE128     -0.0003
     92  CE2      -17.3100  -41.7720    3.3120 C.ar  128  PHE128     -0.0003
     93  CZ       -17.6900  -40.4890    3.3860 C.ar  128  PHE128     -0.0000
@<TRIPOS>BOND
     1    85    86    2
     2    85    84    1
     3    83    84    1
     4    84    87    1
     5    87    88    1
     6    88    89   ar
     7    88    90   ar
     8    89    91   ar
     9    90    92   ar
    10    91    93   ar
    11    92    93   ar
    12    50    48   ar
    13    47    48    1
    14    47    44    1
    15    48    49   ar
    16    46    45    2
    17    45    44    1
    18    44    43    1
    19    73    71    1
    20    43    40   am
    21    70    69    2
    22    77    76    2
    23    81    80    1
    24    81    82    1
    25    71    72    1
    26    71    68    1
    27    80    79    1
    28    40    41    2
    29    40    39    1
    30    69    68    1
    31    69    74   am
    32    76    75    1
    33    68    67    1
    34    75    74    1
    35    75    78    1
    36    39    42    1
    37    39    38    1
    38    79    78    1
    39    38    36   am
    40    65    64   ar
    41    15    14    1
    42    16    14    1
    43    37    36    2
    44    66    64   ar
    45    36    35    1
    46    64    63    1
    47    14    11    1
    48    62    61    2
    49     9     8    1
    50    18    17    1
    51    18    19    1
    52    13    12    2
    53    17    12   am
    54    12    11    1
    55    61    60    1
    56    35    34    1
    57    21    19   am
    58    21    22    1
    59    26    25    1
    60    11    10    1
    61     8     7    1
    62    25    22    1
    63    63    60    1
    64    19    20    2
    65    59    60    1
    66    22    23    1
    67    32    31    1
    68     7     6    1
    69    54    53    2
    70    27    23   am
    71    27    28    1
    72    23    24    2
    73     6     5    1
    74    53    52    1
    75    31    28    1
    76    31    33    1
    77    51    52    1
    78    28    29    1
    79    52    55    1
    80     5     2    1
    81    29    30    2
    82    56    55    1
    83    56    58    1
    84    55    57    1
    85     2     1    1
    86     2     3    1
    87     3     4    2
