@<TRIPOS>MOLECULE
tmp/3enwA00.pdb
 132 125 0 0 0
SMALL
GASTEIGER

@<TRIPOS>ATOM
      1  N        -17.4940  -47.5190   19.5340 N.3     6  LYS6       -0.1245
      2  CA       -18.1490  -46.2130   19.3350 C.3     6  LYS6        0.1561
      3  C        -18.6440  -45.6490   20.6750 C.2     6  LYS6        0.2260
      4  O        -18.3310  -44.5000   21.0150 O.2     6  LYS6       -0.2867
      5  CB       -19.2810  -46.3160   18.2930 C.3     6  LYS6        0.0271
      6  CG       -18.7810  -46.4990   16.8430 C.3     6  LYS6        0.0035
      7  CD       -19.9260  -46.7240   15.8500 C.3     6  LYS6        0.0206
      8  CE       -19.4570  -47.1570   14.4560 C.3     6  LYS6        0.1093
      9  NZ       -18.7240  -46.0840   13.6830 N.3     6  LYS6       -0.1314
     10  N        -22.8210  -35.0530   15.2990 N.3    27  THR27      -0.1203
     11  CA       -23.8170  -36.0240   14.7890 C.3    27  THR27       0.1994
     12  C        -23.1360  -37.3160   14.4780 C.2    27  THR27       0.2618
     13  O        -21.9450  -37.3320   14.1800 O.2    27  THR27      -0.2717
     14  CB       -24.4940  -35.5190   13.4700 C.3    27  THR27       0.1784
     15  OG1      -24.9560  -36.6230   12.6790 O.3    27  THR27      -0.2211
     16  CG2      -23.5370  -34.6470   12.6280 C.3    27  THR27       0.0376
     17  N        -23.8870  -38.4090   14.5710 N.am   28  GLY28      -0.1942
     18  CA       -23.3440  -39.7390   14.2950 C.3    28  GLY28       0.2014
     19  C        -23.5410  -40.7270   15.4400 C.2    28  GLY28       0.2640
     20  O        -23.7920  -40.3230   16.5840 O.2    28  GLY28      -0.2714
     21  N        -23.4140  -42.0190   15.1160 N.am   29  SER29      -0.1935
     22  CA       -23.5650  -43.1170   16.0770 C.3    29  SER29       0.2055
     23  C        -22.6550  -42.9480   17.2880 C.2    29  SER29       0.2644
     24  O        -23.0620  -43.1650   18.4140 O.2    29  SER29      -0.2714
     25  CB       -23.3470  -44.4910   15.4110 C.3    29  SER29       0.2130
     26  OG       -22.0850  -44.5600   14.7710 O.3    29  SER29      -0.2179
     27  N        -21.4210  -42.5300   17.0390 N.am   30  THR30      -0.1936
     28  CA       -20.4710  -42.2860   18.1070 C.3    30  THR30       0.2028
     29  C        -20.8990  -41.0920   18.9440 C.2    30  THR30       0.2642
     30  O        -20.9110  -41.1830   20.1670 O.2    30  THR30      -0.2714
     31  CB       -19.0980  -42.1370   17.5180 C.3    30  THR30       0.1808
     32  OG1      -18.9170  -43.2270   16.6140 O.3    30  THR30      -0.2208
     33  CG2      -18.0170  -42.1410   18.5880 C.3    30  THR30       0.0379
     34  N        -21.3190  -40.0050   18.3040 N.am   31  VAL31      -0.1977
     35  CA       -21.8980  -38.8600   19.0580 C.3    31  VAL31       0.1596
     36  C        -23.2480  -39.1810   19.7000 C.2    31  VAL31       0.2287
     37  O        -23.6430  -38.5380   20.6610 O.2    31  VAL31      -0.2864
     38  CB       -22.0630  -37.5950   18.1850 C.3    31  VAL31       0.0276
     39  CG1      -22.7140  -36.4940   18.9630 C.3    31  VAL31       0.0022
     40  CG2      -20.6960  -37.1190   17.6640 C.3    31  VAL31       0.0022
     41  N        -17.6280  -34.3820   18.1200 N.3    80  ASP80      -0.1225
     42  CA       -18.0460  -34.7930   16.7850 C.3    80  ASP80       0.1805
     43  C        -17.1520  -35.9120   16.2470 C.2    80  ASP80       0.2598
     44  O        -16.0400  -36.1230   16.7390 O.2    80  ASP80      -0.2718
     45  CB       -18.0720  -33.5740   15.8380 C.3    80  ASP80       0.1424
     46  CG       -18.9300  -33.7990   14.5770 C.2    80  ASP80       0.3668
     47  OD1      -19.6550  -34.8470   14.4600 O.co2  80  ASP80      -0.2456
     48  OD2      -18.8760  -32.8960   13.6970 O.co2  80  ASP80      -0.2456
     49  N        -17.6690  -36.6560   15.2630 N.am   81  GLY81      -0.1942
     50  CA       -16.9700  -37.7640   14.6240 C.3    81  GLY81       0.2014
     51  C        -16.2630  -37.2550   13.3870 C.2    81  GLY81       0.2639
     52  O        -16.4280  -36.0890   13.0510 O.2    81  GLY81      -0.2714
     53  N        -15.4680  -38.0970   12.7110 N.am   82  ALA82      -0.1963
     54  CA       -14.8820  -37.7290   11.4110 C.3    82  ALA82       0.1728
     55  C        -15.0500  -38.8320   10.3400 C.2    82  ALA82       0.2616
     56  O        -15.3310  -39.9920   10.6680 O.2    82  ALA82      -0.2715
     57  CB       -13.3690  -37.3150   11.5750 C.3    82  ALA82       0.0334
     58  N        -14.9380  -38.4780    9.0580 N.am   83  ASP83      -0.1971
     59  CA       -14.9950  -39.4680    7.9850 C.3    83  ASP83       0.1709
     60  C        -13.6400  -40.1010    7.8650 C.2    83  ASP83       0.2293
     61  O        -13.4780  -41.3430    7.7050 O.2    83  ASP83      -0.2864
     62  CB       -15.3520  -38.8230    6.6650 C.3    83  ASP83       0.1436
     63  CG       -16.7860  -38.2980    6.6380 C.2    83  ASP83       0.3671
     64  OD1      -17.6520  -38.9070    7.2930 O.co2  83  ASP83      -0.2456
     65  OD2      -17.0400  -37.3070    5.9370 O.co2  83  ASP83      -0.2456
     66  N        -14.7570  -34.3200    6.6060 N.3    93  LYS93      -0.1231
     67  CA       -16.0730  -34.3380    7.2230 C.3    93  LYS93       0.1693
     68  C        -17.2290  -33.9720    6.2620 C.2    93  LYS93       0.2593
     69  O        -17.0280  -33.3770    5.1880 O.2    93  LYS93      -0.2718
     70  CB       -16.0780  -33.4180    8.4280 C.3    93  LYS93       0.0285
     71  CG       -15.2690  -33.9120    9.6260 C.3    93  LYS93       0.0035
     72  CD       -15.4270  -32.9580   10.7940 C.3    93  LYS93       0.0206
     73  CE       -16.8120  -33.1520   11.3800 C.3    93  LYS93       0.1093
     74  NZ       -17.1710  -32.0310   12.2580 N.3    93  LYS93      -0.1314
     75  N        -18.4260  -34.3920    6.6320 N.am   94  GLY94      -0.1942
     76  CA       -19.6040  -33.9900    5.9190 C.3    94  GLY94       0.2014
     77  C        -20.1180  -35.0160    4.9560 C.2    94  GLY94       0.2639
     78  O        -21.0720  -34.7410    4.2510 O.2    94  GLY94      -0.2714
     79  N        -19.4800  -36.1910    4.9100 N.am   95  GLY95      -0.1939
     80  CA       -19.9480  -37.2760    4.0530 C.3    95  GLY95       0.2014
     81  C        -21.3980  -37.6700    4.3030 C.2    95  GLY95       0.2639
     82  O        -22.1880  -37.8290    3.3590 O.2    95  GLY95      -0.2714
     83  N        -21.7450  -37.7920    5.5820 N.am   96  GLY96      -0.1939
     84  CA       -23.0660  -38.2660    5.9810 C.3    96  GLY96       0.2014
     85  C        -23.7510  -37.3350    6.9700 C.2    96  GLY96       0.2638
     86  O        -24.4870  -37.7760    7.8320 O.2    96  GLY96      -0.2714
     87  N        -23.5230  -36.0330    6.8370 N.am   97  ALA97      -0.1977
     88  CA       -23.9980  -35.0820    7.8490 C.3    97  ALA97       0.1597
     89  C        -23.9700  -33.6750    7.2700 C.2    97  ALA97       0.2287
     90  O        -23.5150  -33.4820    6.1420 O.2    97  ALA97      -0.2864
     91  CB       -23.1280  -35.1590    9.1620 C.3    97  ALA97       0.0319
     92  N        -21.6280  -28.2330   10.4890 N.3   102  GLU102     -0.1245
     93  CA       -20.4590  -28.7570   11.2910 C.3   102  GLU102      0.1567
     94  C        -19.2870  -27.7990   11.3000 C.2   102  GLU102      0.2260
     95  O        -18.7280  -27.5030   12.3640 O.2   102  GLU102     -0.2867
     96  CB       -20.0170  -30.1160   10.7950 C.3   102  GLU102      0.0388
     97  CG       -21.1060  -31.1730   11.0180 C.3   102  GLU102      0.1160
     98  CD       -20.5870  -32.5910   10.8330 C.2   102  GLU102      0.3649
     99  OE1      -21.0630  -33.4840   11.5920 O.co2 102  GLU102     -0.2457
    100  OE2      -19.7220  -32.8190    9.9510 O.co2 102  GLU102     -0.2457
    101  N        -14.4090  -37.9630   17.9810 N.3   115  ILE115     -0.1231
    102  CA       -14.7080  -39.2440   18.5540 C.3   115  ILE115      0.1692
    103  C        -14.9840  -40.2440   17.4670 C.2   115  ILE115      0.2592
    104  O        -15.8930  -40.0890   16.6310 O.2   115  ILE115     -0.2718
    105  CB       -15.8150  -39.1640   19.6120 C.3   115  ILE115      0.0266
    106  CG1      -17.1060  -38.5860   18.9980 C.3   115  ILE115      0.0019
    107  CG2      -15.3120  -38.3470   20.8110 C.3   115  ILE115      0.0020
    108  CD1      -18.2550  -38.6310   19.9300 C.3   115  ILE115      0.0001
    109  N        -14.1720  -41.2960   17.4830 N.am  116  VAL116     -0.1966
    110  CA       -14.1200  -42.1870   16.3700 C.3   116  VAL116      0.1727
    111  C        -13.7940  -43.6520   16.7390 C.2   116  VAL116      0.2616
    112  O        -13.1770  -43.9270   17.7470 O.2   116  VAL116     -0.2715
    113  CB       -13.1130  -41.5920   15.4010 C.3   116  VAL116      0.0290
    114  CG1      -11.9990  -42.5610   15.0160 C.3   116  VAL116      0.0023
    115  CG2      -13.8250  -40.8920   14.2090 C.3   116  VAL116      0.0023
    116  N        -14.2010  -44.5710   15.8740 N.am  117  ASP117     -0.1971
    117  CA       -13.7620  -45.9600   15.9250 C.3   117  ASP117      0.1709
    118  C        -12.4430  -46.2310   15.1350 C.2   117  ASP117      0.2293
    119  O        -11.8320  -45.3190   14.5580 O.2   117  ASP117     -0.2864
    120  CB       -14.9350  -46.8610   15.4700 C.3   117  ASP117      0.1436
    121  CG       -15.1180  -46.9240   13.9260 C.2   117  ASP117      0.3671
    122  OD1      -14.2060  -46.5840   13.1410 O.co2 117  ASP117     -0.2456
    123  OD2      -16.2130  -47.3310   13.4840 O.co2 117  ASP117     -0.2456
    124  N        -11.3290  -44.8080   11.0690 N.3   120  LYS120     -0.1245
    125  CA       -11.2150  -43.4210   10.5140 C.3   120  LYS120      0.1561
    126  C         -9.7900  -42.9180   10.2870 C.2   120  LYS120      0.2260
    127  O         -9.5710  -42.0250    9.4400 O.2   120  LYS120     -0.2867
    128  CB       -12.0180  -42.4000   11.3330 C.3   120  LYS120      0.0271
    129  CG       -13.4710  -42.8210   11.6790 C.3   120  LYS120      0.0035
    130  CD       -14.2420  -43.3630   10.4860 C.3   120  LYS120      0.0206
    131  CE       -15.7200  -43.6030   10.8740 C.3   120  LYS120      0.1093
    132  NZ       -16.3490  -42.3350   11.5090 N.3   120  LYS120     -0.1314
@<TRIPOS>BOND
     1    82    81    2
     2    80    81    1
     3    80    79    1
     4    78    77    2
     5    81    83   am
     6    79    77   am
     7    77    76    1
     8    69    68    2
     9    83    84    1
    10    76    75    1
    11    65    63   ar
    12    84    85    1
    13    90    89    2
    14    68    75   am
    15    68    67    1
    16    66    67    1
    17    63    62    1
    18    63    64   ar
    19    62    59    1
    20    87    85   am
    21    87    88    1
    22    85    86    2
    23    67    70    1
    24    89    88    1
    25    61    60    2
    26    88    91    1
    27    60    59    1
    28    59    58    1
    29    70    71    1
    30    58    55   am
    31   127   126    2
    32    71    72    1
    33   100    98   ar
    34   126   125    1
    35    55    56    2
    36    55    54    1
    37   130   131    1
    38   130   129    1
    39    92    93    1
    40   125   124    1
    41   125   128    1
    42    72    73    1
    43    96    97    1
    44    96    93    1
    45    98    97    1
    46    98    99   ar
    47   131   132    1
    48    93    94    1
    49    94    95    2
    50   128   129    1
    51    73    74    1
    52    54    57    1
    53    54    53    1
    54    16    14    1
    55    15    14    1
    56    53    51   am
    57    52    51    2
    58   122   121   ar
    59    51    50    1
    60    14    11    1
    61   123   121   ar
    62     9     8    1
    63    48    46   ar
    64   121   120    1
    65    13    12    2
    66   115   113    1
    67    18    17    1
    68    18    19    1
    69     8     7    1
    70    47    46   ar
    71    12    17   am
    72    12    11    1
    73   119   118    2
    74    46    45    1
    75    50    49    1
    76    26    25    1
    77    11    10    1
    78   114   113    1
    79    21    19   am
    80    21    22    1
    81   118   117    1
    82    49    43   am
    83   113   110    1
    84    25    22    1
    85    19    20    2
    86   120   117    1
    87    45    42    1
    88     7     6    1
    89   116   117    1
    90   116   111   am
    91    22    23    1
    92    43    44    2
    93    43    42    1
    94   110   111    1
    95   110   109    1
    96    32    31    1
    97   104   103    2
    98   111   112    2
    99    42    41    1
   100     6     5    1
   101    27    23   am
   102    27    28    1
   103    23    24    2
   104   103   109   am
   105   103   102    1
   106    31    28    1
   107    31    33    1
   108    40    38    1
   109   101   102    1
   110    28    29    1
   111    38    39    1
   112    38    35    1
   113     5     2    1
   114    34    29   am
   115    34    35    1
   116   102   105    1
   117    29    30    2
   118   106   105    1
   119   106   108    1
   120    35    36    1
   121     2     1    1
   122     2     3    1
   123   105   107    1
   124    36    37    2
   125     3     4    2
