@<TRIPOS>MOLECULE
tmp/3enzC01.pdb
 95 89 0 0 0
SMALL
GASTEIGER

@<TRIPOS>ATOM
      1  N         35.4650   -7.2480   54.9120 N.3    21  GLY21      -0.1225
      2  CA        36.2520   -8.3280   54.2800 C.3    21  GLY21       0.1811
      3  C         36.1400   -9.6640   55.0120 C.2    21  GLY21       0.2280
      4  O         35.9540  -10.7250   54.4020 O.2    21  GLY21      -0.2866
      5  N         35.2500  -11.1040   51.5160 N.3    63  GLY63      -0.1210
      6  CA        36.5280  -11.8310   51.3560 C.3    63  GLY63       0.1956
      7  C         37.6760  -10.8770   51.0900 C.2    63  GLY63       0.2611
      8  O         37.4690   -9.6860   50.9110 O.2    63  GLY63      -0.2717
      9  N         38.8950  -11.4050   51.0630 N.am   64  VAL64      -0.1979
     10  CA        40.0810  -10.6110   50.6900 C.3    64  VAL64       0.1595
     11  C         40.1820  -10.4900   49.1660 C.2    64  VAL64       0.2287
     12  O         40.1470  -11.5100   48.4420 O.2    64  VAL64      -0.2864
     13  CB        41.3840  -11.2870   51.2180 C.3    64  VAL64       0.0276
     14  CG1       42.6380  -10.5000   50.7810 C.3    64  VAL64       0.0022
     15  CG2       41.3410  -11.4260   52.7430 C.3    64  VAL64       0.0022
     16  N         31.5780    0.1060   52.8440 N.3    86  ARG86      -0.1245
     17  CA        32.6260   -0.8000   53.2800 C.3    86  ARG86       0.1563
     18  C         33.2630   -0.3560   54.6190 C.2    86  ARG86       0.2260
     19  O         33.6860    0.8060   54.7580 O.2    86  ARG86      -0.2867
     20  CB        33.6930   -0.9150   52.1750 C.3    86  ARG86       0.0307
     21  CG        34.9440   -1.7630   52.5790 C.3    86  ARG86       0.0489
     22  CD        35.8690   -2.1590   51.3820 C.3    86  ARG86       0.2205
     23  NE        37.2630   -2.1900   51.8480 N.pl3  86  ARG86      -0.0865
     24  CZ        37.7580   -3.0060   52.7870 C.cat  86  ARG86       0.5346
     25  NH1       37.0210   -3.9800   53.3530 N.pl3  86  ARG86       0.1354
     26  NH2       39.0280   -2.8750   53.1350 N.pl3  86  ARG86       0.1354
     27  N         39.8560   -2.7880   57.0980 N.3    89  SER89      -0.1202
     28  CA        41.1290   -2.4340   57.7310 C.3    89  SER89       0.2020
     29  C         42.0890   -1.9270   56.6480 C.2    89  SER89       0.2619
     30  O         41.8360   -2.1090   55.4650 O.2    89  SER89      -0.2717
     31  CB        41.7190   -3.6180   58.5080 C.3    89  SER89       0.2103
     32  OG        41.9460   -4.7510   57.6890 O.3    89  SER89      -0.2182
     33  N         43.1650   -1.2660   57.0460 N.am   90  CYS90      -0.1969
     34  CA        44.0560   -0.6240   56.0730 C.3    90  CYS90       0.1712
     35  C         45.4190   -0.4030   56.6880 C.2    90  CYS90       0.2296
     36  O         45.5910   -0.5430   57.9080 O.2    90  CYS90      -0.2864
     37  CB        43.4680    0.6970   55.5910 C.3    90  CYS90       0.0983
     38  SG        43.4190    1.9970   56.8290 S.3    90  CYS90      -0.0798
     39  N         49.5330   -7.4650   48.2370 N.3   158  TYR158     -0.1241
     40  CA        49.7510   -7.2900   49.6730 C.3   158  TYR158      0.1605
     41  C         51.2300   -7.4990   50.0160 C.2   158  TYR158      0.2264
     42  O         51.8030   -6.7430   50.7970 O.2   158  TYR158     -0.2867
     43  CB        48.8690   -8.2920   50.4560 C.3   158  TYR158      0.0534
     44  CG        48.8750   -8.1450   51.9600 C.ar  158  TYR158     -0.0201
     45  CD1       47.9590   -7.2970   52.6120 C.ar  158  TYR158     -0.0009
     46  CD2       49.7970   -8.8400   52.7390 C.ar  158  TYR158     -0.0009
     47  CE1       47.9530   -7.1700   54.0380 C.ar  158  TYR158      0.0417
     48  CE2       49.8150   -8.7070   54.1360 C.ar  158  TYR158      0.0417
     49  CZ        48.8810   -7.8890   54.7860 C.ar  158  TYR158      0.1957
     50  OH        48.9250   -7.7970   56.1820 O.3   158  TYR158     -0.2866
     51  N         44.4650   -0.3040   51.2220 N.3   180  GLU180     -0.1231
     52  CA        43.7840   -1.5950   51.4630 C.3   180  GLU180      0.1699
     53  C         43.5660   -2.2620   50.0880 C.2   180  GLU180      0.2592
     54  O         44.3330   -2.0040   49.1610 O.2   180  GLU180     -0.2718
     55  CB        42.5080   -1.4030   52.2950 C.3   180  GLU180      0.0402
     56  CG        41.6490   -0.2180   51.9110 C.3   180  GLU180      0.1161
     57  CD        40.8700   -0.4600   50.6350 C.2   180  GLU180      0.3649
     58  OE1       41.2130    0.1850   49.6260 O.co2 180  GLU180     -0.2457
     59  OE2       39.9520   -1.3150   50.6360 O.co2 180  GLU180     -0.2457
     60  N         42.5410   -3.0980   49.9380 N.am  181  MET181     -0.1965
     61  CA        42.5070   -4.0060   48.7890 C.3   181  MET181      0.1736
     62  C         41.1760   -4.0920   48.0230 C.2   181  MET181      0.2616
     63  O         41.1030   -4.8420   47.0500 O.2   181  MET181     -0.2715
     64  CB        42.9540   -5.4110   49.2330 C.3   181  MET181      0.0427
     65  CG        44.4290   -5.4790   49.7310 C.3   181  MET181      0.0599
     66  SD        44.9050   -7.1480   50.1760 S.3   181  MET181     -0.1393
     67  CE        44.9550   -7.9860   48.5830 C.3   181  MET181      0.0692
     68  N         40.1330   -3.3670   48.4580 N.am  182  GLU182     -0.1977
     69  CA        38.7750   -3.5590   47.9030 C.3   182  GLU182      0.1602
     70  C         37.9800   -2.2860   47.5690 C.2   182  GLU182      0.2287
     71  O         36.9860   -2.3530   46.8230 O.2   182  GLU182     -0.2864
     72  CB        37.9010   -4.4720   48.7980 C.3   182  GLU182      0.0415
     73  CG        38.4900   -5.9140   48.9870 C.3   182  GLU182      0.1163
     74  CD        39.3600   -6.0380   50.2310 C.2   182  GLU182      0.3649
     75  OE1       39.3870   -5.0750   51.0640 O.co2 182  GLU182     -0.2457
     76  OE2       40.0190   -7.0960   50.3880 O.co2 182  GLU182     -0.2457
     77  N         45.7870   -0.9150   60.7390 N.3   204  ASP204     -0.1239
     78  CA        46.4160   -2.0280   61.4660 C.3   204  ASP204      0.1674
     79  C         47.9530   -2.0370   61.3830 C.2   204  ASP204      0.2266
     80  O         48.6040   -2.9490   61.9010 O.2   204  ASP204     -0.2867
     81  CB        45.8360   -3.3910   61.0130 C.3   204  ASP204      0.1410
     82  CG        46.3300   -3.8400   59.6070 C.2   204  ASP204      0.3668
     83  OD1       47.1600   -3.1520   58.9480 O.co2 204  ASP204     -0.2456
     84  OD2       45.8690   -4.9120   59.1540 O.co2 204  ASP204     -0.2456
     85  N         52.9270   -3.4670   62.6950 N.3   215  PHE215     -0.1241
     86  CA        51.7990   -4.2890   62.2410 C.3   215  PHE215      0.1605
     87  C         51.2010   -5.1040   63.3860 C.2   215  PHE215      0.2264
     88  O         51.9320   -5.6150   64.2400 O.2   215  PHE215     -0.2867
     89  CB        52.2100   -5.2500   61.0940 C.3   215  PHE215      0.0534
     90  CG        51.0680   -6.0770   60.5850 C.ar  215  PHE215     -0.0203
     91  CD1       50.1390   -5.5270   59.6990 C.ar  215  PHE215     -0.0042
     92  CD2       50.8680   -7.3850   61.0600 C.ar  215  PHE215     -0.0042
     93  CE1       49.0360   -6.2710   59.2650 C.ar  215  PHE215     -0.0003
     94  CE2       49.7690   -8.1370   60.6290 C.ar  215  PHE215     -0.0003
     95  CZ        48.8490   -7.5770   59.7280 C.ar  215  PHE215     -0.0000
@<TRIPOS>BOND
     1    71    70    2
     2    63    62    2
     3    70    69    1
     4    69    68    1
     5    69    72    1
     6    62    68   am
     7    62    61    1
     8    39    40    1
     9    12    11    2
    10    67    66    1
    11    61    64    1
    12    61    60    1
    13    72    73    1
    14    73    74    1
    15    54    53    2
    16    11    10    1
    17    64    65    1
    18    58    57   ar
    19    40    41    1
    20    40    43    1
    21    65    66    1
    22    60    53   am
    23    41    42    2
    24    53    52    1
    25    74    76   ar
    26    74    75   ar
    27    43    44    1
    28    57    59   ar
    29    57    56    1
    30    10     9    1
    31    10    13    1
    32    14    13    1
    33     8     7    2
    34     9     7   am
    35     7     6    1
    36    13    15    1
    37    51    52    1
    38     6     5    1
    39    22    23    1
    40    22    21    1
    41    52    55    1
    42    23    24    2
    43    56    55    1
    44    44    45   ar
    45    44    46   ar
    46    20    21    1
    47    20    17    1
    48    45    47   ar
    49    46    48   ar
    50    24    26    1
    51    24    25    1
    52    16    17    1
    53    17    18    1
    54    47    49   ar
    55    48    49   ar
    56     2     1    1
    57     2     3    1
    58     4     3    2
    59    18    19    2
    60    49    50    1
    61    30    29    2
    62    37    34    1
    63    37    38    1
    64    34    35    1
    65    34    33    1
    66    29    33   am
    67    29    28    1
    68    35    36    2
    69    27    28    1
    70    32    31    1
    71    28    31    1
    72    83    82   ar
    73    84    82   ar
    74    93    91   ar
    75    93    95   ar
    76    82    81    1
    77    91    90   ar
    78    95    94   ar
    79    90    92   ar
    80    90    89    1
    81    94    92   ar
    82    77    78    1
    83    81    78    1
    84    89    86    1
    85    79    78    1
    86    79    80    2
    87    86    85    1
    88    86    87    1
    89    87    88    2
