@<TRIPOS>MOLECULE
tmp/3enzC00.pdb
 118 114 0 0 0
SMALL
GASTEIGER

@<TRIPOS>ATOM
      1  N         39.8560   -2.7880   57.0980 N.3    89  SER89      -0.1202
      2  CA        41.1290   -2.4340   57.7310 C.3    89  SER89       0.2020
      3  C         42.0890   -1.9270   56.6480 C.2    89  SER89       0.2619
      4  O         41.8360   -2.1090   55.4650 O.2    89  SER89      -0.2717
      5  CB        41.7190   -3.6180   58.5080 C.3    89  SER89       0.2103
      6  OG        41.9460   -4.7510   57.6890 O.3    89  SER89      -0.2182
      7  N         43.1650   -1.2660   57.0460 N.am   90  CYS90      -0.1955
      8  CA        44.0560   -0.6240   56.0730 C.3    90  CYS90       0.1843
      9  C         45.4190   -0.4030   56.6880 C.2    90  CYS90       0.2626
     10  O         45.5910   -0.5430   57.9080 O.2    90  CYS90      -0.2714
     11  CB        43.4680    0.6970   55.5910 C.3    90  CYS90       0.0997
     12  SG        43.4190    1.9970   56.8290 S.3    90  CYS90      -0.0797
     13  N         46.3910   -0.0720   55.8490 N.am   91  GLY91      -0.1954
     14  CA        47.7130    0.3240   56.3180 C.3    91  GLY91       0.1869
     15  C         47.8440    1.8400   56.1850 C.2    91  GLY91       0.2309
     16  O         47.2120    2.4320   55.3090 O.2    91  GLY91      -0.2863
     17  N         45.1320   -1.8200   46.3830 N.3   155  SER155     -0.1217
     18  CA        46.0760   -2.6340   45.6260 C.3   155  SER155      0.1889
     19  C         45.8500   -4.1140   45.7280 C.2   155  SER155      0.2288
     20  O         45.7500   -4.6390   46.7820 O.2   155  SER155     -0.2866
     21  CB        47.5640   -2.3300   45.9420 C.3   155  SER155      0.2089
     22  OG        48.4650   -3.2520   45.4250 O.3   155  SER155     -0.2183
     23  N         48.1230   -6.1680   45.3660 N.3   157  MET157     -0.1230
     24  CA        49.3470   -6.7540   45.9250 C.3   157  MET157      0.1702
     25  C         49.5580   -6.4390   47.3930 C.2   157  MET157      0.2592
     26  O         49.7700   -5.2980   47.7560 O.2   157  MET157     -0.2718
     27  CB        50.5930   -6.3520   45.1330 C.3   157  MET157      0.0401
     28  CG        51.9010   -7.1880   45.5060 C.3   157  MET157      0.0596
     29  SD        53.2750   -6.5720   44.4920 S.3   157  MET157     -0.1393
     30  CE        53.4270   -4.8590   45.0480 C.3   157  MET157      0.0692
     31  N         49.5330   -7.4650   48.2370 N.am  158  TYR158     -0.1976
     32  CA        49.7510   -7.2900   49.6730 C.3   158  TYR158      0.1639
     33  C         51.2300   -7.4990   50.0160 C.2   158  TYR158      0.2290
     34  O         51.8030   -6.7430   50.7970 O.2   158  TYR158     -0.2864
     35  CB        48.8690   -8.2920   50.4560 C.3   158  TYR158      0.0560
     36  CG        48.8750   -8.1450   51.9600 C.ar  158  TYR158     -0.0198
     37  CD1       47.9590   -7.2970   52.6120 C.ar  158  TYR158     -0.0009
     38  CD2       49.7970   -8.8400   52.7390 C.ar  158  TYR158     -0.0009
     39  CE1       47.9530   -7.1700   54.0380 C.ar  158  TYR158      0.0417
     40  CE2       49.8150   -8.7070   54.1360 C.ar  158  TYR158      0.0417
     41  CZ        48.8810   -7.8890   54.7860 C.ar  158  TYR158      0.1957
     42  OH        48.9250   -7.7970   56.1820 O.3   158  TYR158     -0.2866
     43  N         53.6600    2.3310   46.1530 N.3   168  LEU168     -0.1245
     44  CA        53.0390    2.7810   47.3920 C.3   168  LEU168      0.1561
     45  C         53.6690    4.0800   47.8840 C.2   168  LEU168      0.2260
     46  O         52.9760    4.9690   48.3800 O.2   168  LEU168     -0.2867
     47  CB        53.1500    1.7020   48.4710 C.3   168  LEU168      0.0270
     48  CG        52.0360    0.6530   48.4970 C.3   168  LEU168      0.0019
     49  CD1       52.0620   -0.1250   49.8040 C.3   168  LEU168      0.0001
     50  CD2       50.6790    1.3050   48.2830 C.3   168  LEU168      0.0001
     51  N         46.2200    2.3890   52.6320 N.3   179  VAL179     -0.1231
     52  CA        46.1880    1.3420   51.6350 C.3   179  VAL179      0.1692
     53  C         45.3290    0.1740   52.1080 C.2   179  VAL179      0.2592
     54  O         45.4590   -0.3070   53.2360 O.2   179  VAL179     -0.2718
     55  CB        47.6210    0.8880   51.2020 C.3   179  VAL179      0.0266
     56  CG1       48.4470    0.4820   52.4170 C.3   179  VAL179      0.0020
     57  CG2       47.5560   -0.2960   50.1970 C.3   179  VAL179      0.0020
     58  N         44.4650   -0.3040   51.2220 N.am  180  GLU180     -0.1966
     59  CA        43.7840   -1.5950   51.4630 C.3   180  GLU180      0.1733
     60  C         43.5660   -2.2620   50.0880 C.2   180  GLU180      0.2616
     61  O         44.3330   -2.0040   49.1610 O.2   180  GLU180     -0.2715
     62  CB        42.5080   -1.4030   52.2950 C.3   180  GLU180      0.0429
     63  CG        41.6490   -0.2180   51.9110 C.3   180  GLU180      0.1163
     64  CD        40.8700   -0.4600   50.6350 C.2   180  GLU180      0.3649
     65  OE1       41.2130    0.1850   49.6260 O.co2 180  GLU180     -0.2457
     66  OE2       39.9520   -1.3150   50.6360 O.co2 180  GLU180     -0.2457
     67  N         42.5410   -3.0980   49.9380 N.am  181  MET181     -0.1977
     68  CA        42.5070   -4.0060   48.7890 C.3   181  MET181      0.1605
     69  C         41.1760   -4.0920   48.0230 C.2   181  MET181      0.2287
     70  O         41.1030   -4.8420   47.0500 O.2   181  MET181     -0.2864
     71  CB        42.9540   -5.4110   49.2330 C.3   181  MET181      0.0413
     72  CG        44.4290   -5.4790   49.7310 C.3   181  MET181      0.0598
     73  SD        44.9050   -7.1480   50.1760 S.3   181  MET181     -0.1393
     74  CE        44.9550   -7.9860   48.5830 C.3   181  MET181      0.0692
     75  N         45.7870   -0.9150   60.7390 N.3   204  ASP204     -0.1225
     76  CA        46.4160   -2.0280   61.4660 C.3   204  ASP204      0.1805
     77  C         47.9530   -2.0370   61.3830 C.2   204  ASP204      0.2598
     78  O         48.6040   -2.9490   61.9010 O.2   204  ASP204     -0.2718
     79  CB        45.8360   -3.3910   61.0130 C.3   204  ASP204      0.1424
     80  CG        46.3300   -3.8400   59.6070 C.2   204  ASP204      0.3668
     81  OD1       47.1600   -3.1520   58.9480 O.co2 204  ASP204     -0.2456
     82  OD2       45.8690   -4.9120   59.1540 O.co2 204  ASP204     -0.2456
     83  N         48.5350   -1.0360   60.7410 N.am  205  GLY205     -0.1957
     84  CA        49.9930   -1.0310   60.5770 C.3   205  GLY205      0.1869
     85  C         50.4150   -0.0380   59.5170 C.2   205  GLY205      0.2309
     86  O         49.5730    0.6840   58.9710 O.2   205  GLY205     -0.2863
     87  N         52.8020   -0.4280   56.0660 N.3   207  PRO207     -0.2116
     88  CA        53.5080   -1.3070   55.1220 C.3   207  PRO207      0.1372
     89  C         54.9580   -0.9060   54.8400 C.2   207  PRO207      0.2244
     90  O         55.7660   -1.7560   54.4270 O.2   207  PRO207     -0.2868
     91  CB        52.6610   -1.1890   53.8330 C.3   207  PRO207      0.0268
     92  CG        51.8550    0.0450   54.0300 C.3   207  PRO207      0.0207
     93  CD        51.5740    0.1230   55.4740 C.3   207  PRO207      0.0892
     94  N         56.7740   -2.6010   58.1200 N.3   210  TRP210     -0.1241
     95  CA        56.5350   -4.0050   58.4630 C.3   210  TRP210      0.1605
     96  C         57.8010   -4.7250   58.9280 C.2   210  TRP210      0.2264
     97  O         57.7430   -5.5660   59.8310 O.2   210  TRP210     -0.2867
     98  CB        55.9200   -4.7690   57.2890 C.3   210  TRP210      0.0550
     99  CG        54.4430   -4.5260   57.0490 C.ar  210  TRP210      0.0003
    100  CD1       53.5610   -3.8200   57.8400 C.ar  210  TRP210      0.0946
    101  CD2       53.6800   -5.0210   55.9440 C.ar  210  TRP210      0.0152
    102  NE1       52.3020   -3.8430   57.2800 N.ar  210  TRP210     -0.2442
    103  CE2       52.3490   -4.5750   56.1170 C.ar  210  TRP210      0.0810
    104  CE3       53.9930   -5.7970   54.8160 C.ar  210  TRP210      0.0012
    105  CZ2       51.3380   -4.8760   55.2030 C.ar  210  TRP210      0.0191
    106  CZ3       52.9730   -6.1100   53.9140 C.ar  210  TRP210      0.0001
    107  CH2       51.6660   -5.6420   54.1160 C.ar  210  TRP210      0.0015
    108  N         52.9270   -3.4670   62.6950 N.3   215  PHE215     -0.1241
    109  CA        51.7990   -4.2890   62.2410 C.3   215  PHE215      0.1605
    110  C         51.2010   -5.1040   63.3860 C.2   215  PHE215      0.2264
    111  O         51.9320   -5.6150   64.2400 O.2   215  PHE215     -0.2867
    112  CB        52.2100   -5.2500   61.0940 C.3   215  PHE215      0.0534
    113  CG        51.0680   -6.0770   60.5850 C.ar  215  PHE215     -0.0203
    114  CD1       50.1390   -5.5270   59.6990 C.ar  215  PHE215     -0.0042
    115  CD2       50.8680   -7.3850   61.0600 C.ar  215  PHE215     -0.0042
    116  CE1       49.0360   -6.2710   59.2650 C.ar  215  PHE215     -0.0003
    117  CE2       49.7690   -8.1370   60.6290 C.ar  215  PHE215     -0.0003
    118  CZ        48.8490   -7.5770   59.7280 C.ar  215  PHE215     -0.0000
@<TRIPOS>BOND
     1    29    30    1
     2    29    28    1
     3    27    28    1
     4    27    24    1
     5    23    24    1
     6    22    21    1
     7    18    19    1
     8    18    21    1
     9    18    17    1
    10    19    20    2
    11    24    25    1
    12    43    44    1
    13    70    69    2
    14    44    45    1
    15    44    47    1
    16    25    26    2
    17    25    31   am
    18    45    46    2
    19    69    68    1
    20    31    32    1
    21    50    48    1
    22    47    48    1
    23    48    49    1
    24    74    73    1
    25    68    71    1
    26    68    67    1
    27    61    60    2
    28    71    72    1
    29    65    64   ar
    30    32    33    1
    31    32    35    1
    32    72    73    1
    33    67    60   am
    34    33    34    2
    35    60    59    1
    36    57    55    1
    37    35    36    1
    38    64    66   ar
    39    64    63    1
    40    55    52    1
    41    55    56    1
    42    58    59    1
    43    58    53   am
    44    59    62    1
    45    52    53    1
    46    52    51    1
    47    63    62    1
    48    36    37   ar
    49    36    38   ar
    50    53    54    2
    51    37    39   ar
    52    38    40   ar
    53    91    92    1
    54    91    88    1
    55   106   107   ar
    56   106   104   ar
    57    92    93    1
    58    39    41   ar
    59   107   105   ar
    60    40    41   ar
    61    90    89    2
    62    41    42    1
    63   104   101   ar
    64    89    88    1
    65    88    87    1
    66   105   103   ar
    67    16    15    2
    68     4     3    2
    69    93    87    1
    70    11     8    1
    71    11    12    1
    72    13    14    1
    73    13     9   am
    74   101   103   ar
    75   101    99   ar
    76     8     9    1
    77     8     7    1
    78   103   102   ar
    79    15    14    1
    80     3     7   am
    81     3     2    1
    82     9    10    2
    83    99    98    1
    84    99   100   ar
    85     1     2    1
    86   102   100   ar
    87    98    95    1
    88     6     5    1
    89     2     5    1
    90    94    95    1
    91    95    96    1
    92    96    97    2
    93    81    80   ar
    94    86    85    2
    95    82    80   ar
    96   116   114   ar
    97   116   118   ar
    98    85    84    1
    99    80    79    1
   100   114   113   ar
   101   118   117   ar
   102    84    83    1
   103   113   115   ar
   104   113   112    1
   105   117   115   ar
   106    75    76    1
   107    83    77   am
   108    79    76    1
   109   112   109    1
   110    77    76    1
   111    77    78    2
   112   109   108    1
   113   109   110    1
   114   110   111    2
