@<TRIPOS>MOLECULE
tmp/3eo4D00.pdb
 146 143 0 0 0
SMALL
GASTEIGER

@<TRIPOS>ATOM
      1  N         -0.7630   55.6550   34.7360 N.3    33  ILE33      -0.1245
      2  CA        -1.3300   55.1790   33.4800 C.3    33  ILE33       0.1561
      3  C         -2.0340   53.8070   33.6630 C.2    33  ILE33       0.2260
      4  O         -3.1900   53.6190   33.2160 O.2    33  ILE33      -0.2867
      5  CB        -0.2500   55.1120   32.3730 C.3    33  ILE33       0.0252
      6  CG1        0.4630   56.4680   32.2200 C.3    33  ILE33       0.0019
      7  CG2       -0.8450   54.6520   31.0340 C.3    33  ILE33       0.0019
      8  CD1        1.0450   56.6900   30.8230 C.3    33  ILE33       0.0001
      9  N         -5.5550   52.5210   34.4980 N.3    36  PHE36      -0.1227
     10  CA        -6.5770   52.3780   33.4380 C.3    36  PHE36       0.1736
     11  C         -6.4900   51.0480   32.6820 C.2    36  PHE36       0.2595
     12  O         -7.3050   50.7650   31.8250 O.2    36  PHE36      -0.2718
     13  CB        -6.6050   53.6200   32.5200 C.3    36  PHE36       0.0547
     14  CG        -6.7070   54.8960   33.3030 C.ar   36  PHE36      -0.0202
     15  CD1       -7.8230   55.1370   34.0880 C.ar   36  PHE36      -0.0042
     16  CD2       -5.6420   55.7960   33.3570 C.ar   36  PHE36      -0.0042
     17  CE1       -7.9130   56.2670   34.8650 C.ar   36  PHE36      -0.0003
     18  CE2       -5.7300   56.9470   34.1280 C.ar   36  PHE36      -0.0003
     19  CZ        -6.8670   57.1770   34.8890 C.ar   36  PHE36      -0.0000
     20  N         -5.5080   50.2300   33.0410 N.am   37  PHE37      -0.1976
     21  CA        -5.3340   48.9160   32.4220 C.3    37  PHE37       0.1639
     22  C         -5.9480   47.8080   33.2520 C.2    37  PHE37       0.2290
     23  O         -5.6690   47.6590   34.4530 O.2    37  PHE37      -0.2864
     24  CB        -3.8640   48.5910   32.1740 C.3    37  PHE37       0.0560
     25  CG        -3.1620   49.5670   31.2690 C.ar   37  PHE37      -0.0200
     26  CD1       -1.7680   49.6080   31.2390 C.ar   37  PHE37      -0.0042
     27  CD2       -3.8830   50.4320   30.4270 C.ar   37  PHE37      -0.0042
     28  CE1       -1.0930   50.4960   30.3950 C.ar   37  PHE37      -0.0003
     29  CE2       -3.2200   51.3320   29.6080 C.ar   37  PHE37      -0.0003
     30  CZ        -1.8250   51.3610   29.5840 C.ar   37  PHE37      -0.0000
     31  N         -4.8950   53.3790   22.6810 N.3    91  ILE91      -0.1231
     32  CA        -4.2390   54.6920   22.7260 C.3    91  ILE91       0.1692
     33  C         -3.5040   54.9610   24.0400 C.2    91  ILE91       0.2592
     34  O         -4.0160   54.6600   25.1210 O.2    91  ILE91      -0.2718
     35  CB        -5.2340   55.8700   22.3890 C.3    91  ILE91       0.0266
     36  CG1       -4.5230   57.2450   22.4010 C.3    91  ILE91       0.0019
     37  CG2       -6.4590   55.8630   23.3370 C.3    91  ILE91       0.0020
     38  CD1       -3.5560   57.4740   21.2410 C.3    91  ILE91       0.0001
     39  N         -2.3060   55.5420   23.9390 N.am   92  LEU92      -0.1966
     40  CA        -1.5530   55.8930   25.1390 C.3    92  LEU92       0.1728
     41  C         -0.7260   57.1660   24.9840 C.2    92  LEU92       0.2616
     42  O          0.1440   57.2420   24.1130 O.2    92  LEU92      -0.2715
     43  CB        -0.6380   54.7320   25.5190 C.3    92  LEU92       0.0311
     44  CG         0.1270   54.7690   26.8330 C.3    92  LEU92       0.0022
     45  CD1        0.2990   53.3280   27.3140 C.3    92  LEU92       0.0001
     46  CD2        1.4730   55.3990   26.6140 C.3    92  LEU92       0.0001
     47  N         -0.9750   58.1500   25.8420 N.am   93  ILE93      -0.1977
     48  CA        -0.1900   59.3610   25.8440 C.3    93  ILE93       0.1596
     49  C          0.7000   59.3350   27.0950 C.2    93  ILE93       0.2287
     50  O          0.2260   59.4220   28.2190 O.2    93  ILE93      -0.2864
     51  CB        -1.0700   60.6430   25.7220 C.3    93  ILE93       0.0276
     52  CG1       -2.0460   60.5590   24.5220 C.3    93  ILE93       0.0022
     53  CG2       -0.2120   61.9100   25.6290 C.3    93  ILE93       0.0022
     54  CD1       -1.3900   60.6800   23.1200 C.3    93  ILE93       0.0001
     55  N          0.2320   66.6750   28.6940 N.3    98  LEU98      -0.1231
     56  CA        -0.3280   66.8150   27.3610 C.3    98  LEU98       0.1693
     57  C         -1.7680   66.3590   27.3600 C.2    98  LEU98       0.2592
     58  O         -2.5130   66.7050   26.4410 O.2    98  LEU98      -0.2718
     59  CB         0.4460   65.9810   26.3380 C.3    98  LEU98       0.0284
     60  CG         1.8660   66.3750   25.9190 C.3    98  LEU98       0.0019
     61  CD1        2.3480   65.4550   24.7910 C.3    98  LEU98       0.0001
     62  CD2        1.9650   67.8210   25.5060 C.3    98  LEU98       0.0001
     63  N         -2.1590   65.5770   28.3700 N.am   99  TRP99      -0.1962
     64  CA        -3.5330   65.0590   28.4530 C.3    99  TRP99       0.1771
     65  C         -4.4890   66.2410   28.4090 C.2    99  TRP99       0.2620
     66  O         -4.3050   67.2190   29.1320 O.2    99  TRP99      -0.2715
     67  CB        -3.7800   64.2420   29.7350 C.3    99  TRP99       0.0590
     68  CG        -3.0730   62.9110   29.8240 C.ar   99  TRP99       0.0006
     69  CD1       -2.0960   62.4300   28.9850 C.ar   99  TRP99       0.0946
     70  CD2       -3.2410   61.9130   30.8540 C.ar   99  TRP99       0.0152
     71  NE1       -1.6740   61.1920   29.4140 N.ar   99  TRP99      -0.2442
     72  CE2       -2.3460   60.8560   30.5610 C.ar   99  TRP99       0.0810
     73  CE3       -4.0510   61.8190   32.0000 C.ar   99  TRP99       0.0012
     74  CZ2       -2.2470   59.7040   31.3640 C.ar   99  TRP99       0.0191
     75  CZ3       -3.9530   60.6840   32.8040 C.ar   99  TRP99       0.0001
     76  CH2       -3.0490   59.6350   32.4780 C.ar   99  TRP99       0.0015
     77  N         -5.4950   66.1600   27.5480 N.am  100  GLY100     -0.1954
     78  CA        -6.4690   67.2330   27.4270 C.3   100  GLY100      0.1869
     79  C         -6.2060   68.1470   26.2530 C.2   100  GLY100      0.2309
     80  O         -6.9700   69.0730   26.0180 O.2   100  GLY100     -0.2863
     81  N         -5.9900   67.1300   23.0400 N.3   102  HIS102     -0.1226
     82  CA        -6.4990   66.4490   21.8420 C.3   102  HIS102      0.1752
     83  C         -5.4900   65.6800   20.9750 C.2   102  HIS102      0.2596
     84  O         -5.8150   65.3060   19.8470 O.2   102  HIS102     -0.2718
     85  CB        -7.3540   67.3890   20.9800 C.3   102  HIS102      0.0759
     86  CG        -8.5220   67.9630   21.7130 C.ar  102  HIS102      0.0818
     87  ND1       -8.6000   69.2950   22.0590 N.ar  102  HIS102     -0.2268
     88  CD2       -9.6410   67.3780   22.2030 C.ar  102  HIS102      0.1154
     89  CE1       -9.7270   69.5090   22.7140 C.ar  102  HIS102      0.1986
     90  NE2      -10.3750   68.3630   22.8170 N.ar  102  HIS102     -0.2212
     91  N         -4.2910   65.4350   21.4900 N.am  103  ILE103     -0.1966
     92  CA        -3.3100   64.6310   20.7690 C.3   103  ILE103      0.1727
     93  C         -3.8110   63.2030   20.6320 C.2   103  ILE103      0.2617
     94  O         -3.7130   62.6060   19.5590 O.2   103  ILE103     -0.2715
     95  CB        -1.9270   64.6160   21.4740 C.3   103  ILE103      0.0290
     96  CG1       -1.3010   66.0060   21.4460 C.3   103  ILE103      0.0022
     97  CG2       -0.9740   63.6300   20.7920 C.3   103  ILE103      0.0023
     98  CD1       -0.1890   66.1890   22.4760 C.3   103  ILE103      0.0001
     99  N         -4.3510   62.6590   21.7180 N.am  104  GLY104     -0.1940
    100  CA        -4.9140   61.3150   21.6840 C.3   104  GLY104      0.2014
    101  C         -5.9710   61.1740   20.5980 C.2   104  GLY104      0.2638
    102  O         -5.8890   60.2930   19.7420 O.2   104  GLY104     -0.2714
    103  N         -6.9420   62.0740   20.6250 N.am  105  ARG105     -0.1977
    104  CA        -8.0250   62.1160   19.6480 C.3   105  ARG105      0.1597
    105  C         -7.5380   62.1510   18.1910 C.2   105  ARG105      0.2287
    106  O         -8.0450   61.4220   17.3360 O.2   105  ARG105     -0.2864
    107  CB        -8.9050   63.3250   19.9420 C.3   105  ARG105      0.0334
    108  CG       -10.1070   63.4730   19.0510 C.3   105  ARG105      0.0492
    109  CD       -10.7080   64.8680   19.2110 C.3   105  ARG105      0.2205
    110  NE       -11.3120   65.3400   17.9590 N.pl3 105  ARG105     -0.0865
    111  CZ       -12.5890   65.1740   17.6470 C.cat 105  ARG105      0.5346
    112  NH1      -13.3840   64.5580   18.4980 N.pl3 105  ARG105      0.1354
    113  NH2      -13.0780   65.6270   16.5010 N.pl3 105  ARG105      0.1354
    114  N        -11.8630   55.3330   33.4270 N.3   131  ASN131     -0.1240
    115  CA       -11.0030   56.0620   32.4900 C.3   131  ASN131      0.1653
    116  C        -11.7820   57.1200   31.7240 C.2   131  ASN131      0.2266
    117  O        -12.0660   56.9660   30.5210 O.2   131  ASN131     -0.2867
    118  CB       -10.2980   55.1010   31.5200 C.3   131  ASN131      0.1155
    119  CG        -9.1860   55.7810   30.7370 C.2   131  ASN131      0.2627
    120  OD1       -9.0690   57.0060   30.7540 O.2   131  ASN131     -0.2716
    121  ND2       -8.3590   54.9900   30.0500 N.am  131  ASN131     -0.0877
    122  N        -11.1560   60.2560   30.7000 N.3   133  ARG133     -0.1231
    123  CA       -10.4810   60.8940   29.5640 C.3   133  ARG133      0.1694
    124  C        -10.6190   60.0440   28.3050 C.2   133  ARG133      0.2592
    125  O        -10.9880   60.5450   27.2250 O.2   133  ARG133     -0.2718
    126  CB        -8.9950   61.1350   29.8590 C.3   133  ARG133      0.0321
    127  CG        -8.7420   62.2220   30.8620 C.3   133  ARG133      0.0489
    128  CD        -7.3150   62.7050   30.7680 C.3   133  ARG133      0.2205
    129  NE        -7.2700   64.1670   30.7140 N.pl3 133  ARG133     -0.0865
    130  CZ        -7.1350   64.9570   31.7740 C.cat 133  ARG133      0.5346
    131  NH1       -7.0190   64.4300   32.9890 N.pl3 133  ARG133      0.1354
    132  NH2       -7.0990   66.2740   31.6160 N.pl3 133  ARG133      0.1354
    133  N        -10.3460   58.7510   28.4370 N.am  134  SER134     -0.1952
    134  CA       -10.4720   57.8920   27.2780 C.3   134  SER134      0.1924
    135  C        -11.9180   57.7570   26.8040 C.2   134  SER134      0.2314
    136  O        -12.1630   57.6930   25.5900 O.2   134  SER134     -0.2863
    137  CB        -9.8570   56.5230   27.5080 C.3   134  SER134      0.2116
    138  OG        -9.9340   55.8000   26.2860 O.3   134  SER134     -0.2180
    139  N        -12.5940   60.7910   24.8790 N.3   137  LEU137     -0.1245
    140  CA       -11.8230   60.7330   23.6460 C.3   137  LEU137      0.1561
    141  C        -12.5990   60.0080   22.5610 C.2   137  LEU137      0.2260
    142  O        -12.8960   60.5730   21.4950 O.2   137  LEU137     -0.2867
    143  CB       -10.4650   60.0330   23.8770 C.3   137  LEU137      0.0270
    144  CG        -9.4910   60.0130   22.6890 C.3   137  LEU137      0.0019
    145  CD1       -8.0970   59.6600   23.1360 C.3   137  LEU137      0.0001
    146  CD2       -9.9290   59.0710   21.5730 C.3   137  LEU137      0.0001
@<TRIPOS>BOND
     1   113   111    1
     2   106   105    2
     3   111   110    2
     4   111   112    1
     5   110   109    1
     6   105   104    1
     7   108   109    1
     8   108   107    1
     9    94    93    2
    10   104   107    1
    11   104   103    1
    12   102   101    2
    13    84    83    2
    14   101   103   am
    15   101   100    1
    16    93    92    1
    17    93    99   am
    18    92    95    1
    19    92    91    1
    20    97    95    1
    21    83    91   am
    22    83    82    1
    23    85    86    1
    24    85    82    1
    25    38    36    1
    26    96    95    1
    27    96    98    1
    28   142   141    2
    29   146   144    1
    30   100    99    1
    31    86    87   ar
    32    86    88   ar
    33    82    81    1
    34    87    89   ar
    35    88    90   ar
    36    35    36    1
    37    35    32    1
    38    35    37    1
    39   141   140    1
    40    31    32    1
    41   144   145    1
    42   144   143    1
    43    89    90   ar
    44    32    33    1
    45    54    52    1
    46   140   143    1
    47   140   139    1
    48    39    33   am
    49    39    40    1
    50    33    34    2
    51    42    41    2
    52    52    51    1
    53    61    60    1
    54    41    40    1
    55    41    47   am
    56    40    43    1
    57    62    60    1
    58    43    44    1
    59   136   135    2
    60    53    51    1
    61    51    48    1
    62    47    48    1
    63    48    49    1
    64    60    59    1
    65    80    79    2
    66    79    78    1
    67   138   137    1
    68    59    56    1
    69    58    57    2
    70    46    44    1
    71   135   134    1
    72    44    45    1
    73    49    50    2
    74   125   124    2
    75   134   137    1
    76   134   133    1
    77    57    56    1
    78    57    63   am
    79    56    55    1
    80    78    77    1
    81    77    65   am
    82   124   133   am
    83   124   123    1
    84    63    64    1
    85    65    64    1
    86    65    66    2
    87    64    67    1
    88    69    71   ar
    89    69    68   ar
    90    71    72   ar
    91   123   126    1
    92   123   122    1
    93    30    29   ar
    94    30    28   ar
    95    29    27   ar
    96    67    68    1
    97    68    70   ar
    98   126   127    1
    99   121   119   am
   100    28    26   ar
   101    27    25   ar
   102   117   116    2
   103    72    70   ar
   104    72    74   ar
   105   129   128    1
   106   129   130    2
   107   119   120    2
   108   119   118    1
   109   128   127    1
   110     8     6    1
   111    70    73   ar
   112     7     5    1
   113    26    25   ar
   114    25    24    1
   115    74    76   ar
   116   118   115    1
   117   132   130    1
   118   116   115    1
   119   130   131    1
   120    12    11    2
   121    73    75   ar
   122    24    21    1
   123     6     5    1
   124     5     2    1
   125    21    20    1
   126    21    22    1
   127    76    75   ar
   128   115   114    1
   129    13    14    1
   130    13    10    1
   131    11    20   am
   132    11    10    1
   133     4     3    2
   134    22    23    2
   135    14    16   ar
   136    14    15   ar
   137    16    18   ar
   138    10     9    1
   139     2     3    1
   140     2     1    1
   141    15    17   ar
   142    18    19   ar
   143    17    19   ar
