@<TRIPOS>MOLECULE
tmp/3eo4D01.pdb
 137 130 0 0 0
SMALL
GASTEIGER

@<TRIPOS>ATOM
      1  N          8.1540   52.4940   25.7380 N.3    25  LEU25      -0.1245
      2  CA         6.8170   51.9830   25.8020 C.3    25  LEU25       0.1561
      3  C          6.5860   51.2670   27.1260 C.2    25  LEU25       0.2260
      4  O          5.5090   51.3790   27.7250 O.2    25  LEU25      -0.2867
      5  CB         6.5820   51.0240   24.6440 C.3    25  LEU25       0.0270
      6  CG         5.1390   50.5270   24.5410 C.3    25  LEU25       0.0019
      7  CD1        4.1280   51.6860   24.6600 C.3    25  LEU25       0.0001
      8  CD2        4.9400   49.7720   23.2140 C.3    25  LEU25       0.0001
      9  N          4.0020   52.2640   30.1870 N.3    28  ARG28      -0.1245
     10  CA         3.0640   51.2200   30.6520 C.3    28  ARG28       0.1563
     11  C          3.3940   50.7180   32.0600 C.2    28  ARG28       0.2260
     12  O          2.5710   50.0440   32.6800 O.2    28  ARG28      -0.2867
     13  CB         2.9730   50.0490   29.6390 C.3    28  ARG28       0.0307
     14  CG         2.4040   50.4830   28.2780 C.3    28  ARG28       0.0489
     15  CD         2.2200   49.3140   27.3060 C.3    28  ARG28       0.2205
     16  NE         0.8100   48.9370   27.2320 N.pl3  28  ARG28      -0.0865
     17  CZ         0.1660   48.1490   28.1030 C.cat  28  ARG28       0.5346
     18  NH1        0.7990   47.6070   29.1520 N.pl3  28  ARG28       0.1354
     19  NH2       -1.1300   47.9000   27.9210 N.pl3  28  ARG28       0.1354
     20  N         -5.5550   52.5210   34.4980 N.3    36  PHE36      -0.1227
     21  CA        -6.5770   52.3780   33.4380 C.3    36  PHE36       0.1736
     22  C         -6.4900   51.0480   32.6820 C.2    36  PHE36       0.2595
     23  O         -7.3050   50.7650   31.8250 O.2    36  PHE36      -0.2718
     24  CB        -6.6050   53.6200   32.5200 C.3    36  PHE36       0.0547
     25  CG        -6.7070   54.8960   33.3030 C.ar   36  PHE36      -0.0202
     26  CD1       -7.8230   55.1370   34.0880 C.ar   36  PHE36      -0.0042
     27  CD2       -5.6420   55.7960   33.3570 C.ar   36  PHE36      -0.0042
     28  CE1       -7.9130   56.2670   34.8650 C.ar   36  PHE36      -0.0003
     29  CE2       -5.7300   56.9470   34.1280 C.ar   36  PHE36      -0.0003
     30  CZ        -6.8670   57.1770   34.8890 C.ar   36  PHE36      -0.0000
     31  N         -5.5080   50.2300   33.0410 N.am   37  PHE37      -0.1976
     32  CA        -5.3340   48.9160   32.4220 C.3    37  PHE37       0.1639
     33  C         -5.9480   47.8080   33.2520 C.2    37  PHE37       0.2290
     34  O         -5.6690   47.6590   34.4530 O.2    37  PHE37      -0.2864
     35  CB        -3.8640   48.5910   32.1740 C.3    37  PHE37       0.0560
     36  CG        -3.1620   49.5670   31.2690 C.ar   37  PHE37      -0.0200
     37  CD1       -1.7680   49.6080   31.2390 C.ar   37  PHE37      -0.0042
     38  CD2       -3.8830   50.4320   30.4270 C.ar   37  PHE37      -0.0042
     39  CE1       -1.0930   50.4960   30.3950 C.ar   37  PHE37      -0.0003
     40  CE2       -3.2200   51.3320   29.6080 C.ar   37  PHE37      -0.0003
     41  CZ        -1.8250   51.3610   29.5840 C.ar   37  PHE37      -0.0000
     42  N         -1.7810   42.9440   14.1940 N.3    58  ARG58      -0.1245
     43  CA        -1.7720   44.2730   14.7810 C.3    58  ARG58       0.1563
     44  C         -0.7540   45.2130   14.1650 C.2    58  ARG58       0.2260
     45  O          0.1490   44.7920   13.4280 O.2    58  ARG58      -0.2867
     46  CB        -1.6590   44.2140   16.3080 C.3    58  ARG58       0.0307
     47  CG        -0.3740   43.6650   16.8660 C.3    58  ARG58       0.0489
     48  CD        -0.4740   43.6130   18.3960 C.3    58  ARG58       0.2205
     49  NE        -0.4180   44.9360   19.0230 N.pl3  58  ARG58      -0.0865
     50  CZ        -1.0320   45.2690   20.1600 C.cat  58  ARG58       0.5346
     51  NH1       -1.7800   44.3860   20.8040 N.pl3  58  ARG58       0.1354
     52  NH2       -0.9030   46.4900   20.6580 N.pl3  58  ARG58       0.1354
     53  N         -2.3520   52.0970   18.5970 N.3    78  ASN78      -0.1240
     54  CA        -2.3170   50.8010   17.9490 C.3    78  ASN78       0.1653
     55  C         -3.6750   50.2760   17.5880 C.2    78  ASN78       0.2266
     56  O         -4.7020   50.6850   18.1480 O.2    78  ASN78      -0.2867
     57  CB        -1.6250   49.7540   18.8120 C.3    78  ASN78       0.1155
     58  CG        -2.3190   49.5400   20.1440 C.2    78  ASN78       0.2627
     59  OD1       -3.4310   49.0240   20.2000 O.2    78  ASN78      -0.2716
     60  ND2       -1.6460   49.9170   21.2280 N.am   78  ASN78      -0.0877
     61  N         -8.9500   49.4190   18.7040 N.3    89  ILE89      -0.1231
     62  CA        -8.0610   50.5720   18.7730 C.3    89  ILE89       0.1692
     63  C         -7.5500   50.7970   20.1960 C.2    89  ILE89       0.2593
     64  O         -8.3080   50.7460   21.1600 O.2    89  ILE89      -0.2718
     65  CB        -8.7560   51.8510   18.2270 C.3    89  ILE89       0.0266
     66  CG1       -9.1370   51.6410   16.7620 C.3    89  ILE89       0.0019
     67  CG2       -7.8710   53.1050   18.3990 C.3    89  ILE89       0.0020
     68  CD1       -9.4550   52.9260   15.9820 C.3    89  ILE89       0.0001
     69  N         -6.2510   51.0180   20.3150 N.am   90  GLY90      -0.1942
     70  CA        -5.6200   51.3160   21.6150 C.3    90  GLY90       0.2014
     71  C         -4.8480   52.6240   21.5890 C.2    90  GLY90       0.2639
     72  O         -4.2110   52.9400   20.6100 O.2    90  GLY90      -0.2714
     73  N         -4.8950   53.3790   22.6810 N.am   91  ILE91      -0.1963
     74  CA        -4.2390   54.6920   22.7260 C.3    91  ILE91       0.1727
     75  C         -3.5040   54.9610   24.0400 C.2    91  ILE91       0.2616
     76  O         -4.0160   54.6600   25.1210 O.2    91  ILE91      -0.2715
     77  CB        -5.2340   55.8700   22.3890 C.3    91  ILE91       0.0290
     78  CG1       -4.5230   57.2450   22.4010 C.3    91  ILE91       0.0022
     79  CG2       -6.4590   55.8630   23.3370 C.3    91  ILE91       0.0023
     80  CD1       -3.5560   57.4740   21.2410 C.3    91  ILE91       0.0001
     81  N         -2.3060   55.5420   23.9390 N.am   92  LEU92      -0.1977
     82  CA        -1.5530   55.8930   25.1390 C.3    92  LEU92       0.1596
     83  C         -0.7260   57.1660   24.9840 C.2    92  LEU92       0.2287
     84  O          0.1440   57.2420   24.1130 O.2    92  LEU92      -0.2864
     85  CB        -0.6380   54.7320   25.5190 C.3    92  LEU92       0.0297
     86  CG         0.1270   54.7690   26.8330 C.3    92  LEU92       0.0022
     87  CD1        0.2990   53.3280   27.3140 C.3    92  LEU92       0.0001
     88  CD2        1.4730   55.3990   26.6140 C.3    92  LEU92       0.0001
     89  N        -13.2090   50.1280   20.8320 N.3   125  ALA125     -0.1231
     90  CA       -12.2300   50.2810   21.9120 C.3   125  ALA125      0.1694
     91  C        -12.7800   49.6480   23.1740 C.2   125  ALA125      0.2592
     92  O        -13.9990   49.6440   23.4030 O.2   125  ALA125     -0.2718
     93  CB       -11.9400   51.7290   22.1600 C.3   125  ALA125      0.0304
     94  N        -11.8920   49.0980   23.9890 N.am  126  ARG126     -0.1966
     95  CA       -12.2970   48.6440   25.3000 C.3   126  ARG126      0.1729
     96  C        -11.6630   49.4990   26.3620 C.2   126  ARG126      0.2616
     97  O        -10.4440   49.6900   26.3750 O.2   126  ARG126     -0.2715
     98  CB       -12.0440   47.1530   25.5170 C.3   126  ARG126      0.0348
     99  CG       -10.7800   46.6010   24.9470 C.3   126  ARG126      0.0492
    100  CD       -10.9590   45.1190   24.5820 C.3   126  ARG126      0.2205
    101  NE       -11.6170   44.3730   25.6280 N.pl3 126  ARG126     -0.0865
    102  CZ       -12.4060   43.3250   25.4300 C.cat 126  ARG126      0.5346
    103  NH1      -12.9540   42.7400   26.4820 N.pl3 126  ARG126      0.1354
    104  NH2      -12.6590   42.8720   24.1980 N.pl3 126  ARG126      0.1354
    105  N        -12.5260   50.0640   27.2040 N.am  127  ILE127     -0.1977
    106  CA       -12.1360   51.1000   28.1430 C.3   127  ILE127      0.1596
    107  C        -12.6400   50.7290   29.5250 C.2   127  ILE127      0.2287
    108  O        -13.8190   50.3720   29.6870 O.2   127  ILE127     -0.2864
    109  CB       -12.7120   52.5050   27.7720 C.3   127  ILE127      0.0276
    110  CG1      -12.8190   52.7120   26.2420 C.3   127  ILE127      0.0022
    111  CG2      -11.8700   53.6100   28.4020 C.3   127  ILE127      0.0022
    112  CD1      -13.4150   54.0690   25.8190 C.3   127  ILE127      0.0001
    113  N        -11.8630   55.3330   33.4270 N.3   131  ASN131     -0.1240
    114  CA       -11.0030   56.0620   32.4900 C.3   131  ASN131      0.1653
    115  C        -11.7820   57.1200   31.7240 C.2   131  ASN131      0.2266
    116  O        -12.0660   56.9660   30.5210 O.2   131  ASN131     -0.2867
    117  CB       -10.2980   55.1010   31.5200 C.3   131  ASN131      0.1155
    118  CG        -9.1860   55.7810   30.7370 C.2   131  ASN131      0.2627
    119  OD1       -9.0690   57.0060   30.7540 O.2   131  ASN131     -0.2716
    120  ND2       -8.3590   54.9900   30.0500 N.am  131  ASN131     -0.0877
    121  N        -10.3460   58.7510   28.4370 N.3   134  SER134     -0.1217
    122  CA       -10.4720   57.8920   27.2780 C.3   134  SER134      0.1889
    123  C        -11.9180   57.7570   26.8040 C.2   134  SER134      0.2288
    124  O        -12.1630   57.6930   25.5900 O.2   134  SER134     -0.2866
    125  CB        -9.8570   56.5230   27.5080 C.3   134  SER134      0.2089
    126  OG        -9.9340   55.8000   26.2860 O.3   134  SER134     -0.2183
    127  N        -12.9430   58.7570   22.8410 N.3   138  PHE138     -0.1241
    128  CA       -13.5900   57.9410   21.8330 C.3   138  PHE138      0.1605
    129  C        -14.9850   58.4370   21.5300 C.2   138  PHE138      0.2264
    130  O        -15.4270   58.4110   20.3580 O.2   138  PHE138     -0.2867
    131  CB       -13.5420   56.4640   22.2020 C.3   138  PHE138      0.0534
    132  CG       -12.1770   55.8680   22.0530 C.ar  138  PHE138     -0.0203
    133  CD1      -11.7030   55.4980   20.7870 C.ar  138  PHE138     -0.0042
    134  CD2      -11.3480   55.6940   23.1790 C.ar  138  PHE138     -0.0042
    135  CE1      -10.4350   54.9500   20.6410 C.ar  138  PHE138     -0.0003
    136  CE2      -10.0600   55.1540   23.0530 C.ar  138  PHE138     -0.0003
    137  CZ        -9.5990   54.7760   21.7750 C.ar  138  PHE138     -0.0000
@<TRIPOS>BOND
     1    45    44    2
     2    44    43    1
     3    42    43    1
     4    43    46    1
     5    68    66    1
     6    46    47    1
     7    66    65    1
     8    47    48    1
     9    55    54    1
    10    55    56    2
    11    54    53    1
    12    54    57    1
    13    65    67    1
    14    65    62    1
    15    48    49    1
    16    61    62    1
    17    62    63    1
    18    57    58    1
    19    49    50    2
    20    58    59    2
    21    58    60   am
    22    50    52    1
    23    50    51    1
    24    63    69   am
    25    63    64    2
    26    69    70    1
    27   130   129    2
    28    72    71    2
    29   135   133   ar
    30   135   137   ar
    31   133   132   ar
    32    89    90    1
    33    80    78    1
    34   129   128    1
    35    71    70    1
    36    71    73   am
    37   137   136   ar
    38   128   131    1
    39   128   127    1
    40    90    93    1
    41    90    91    1
    42   132   131    1
    43   132   134   ar
    44    77    78    1
    45    77    74    1
    46    77    79    1
    47    73    74    1
    48    74    75    1
    49   136   134   ar
    50    91    92    2
    51    91    94   am
    52     8     6    1
    53    81    75   am
    54    81    82    1
    55    94    95    1
    56    75    76    2
    57    84    83    2
    58   104   102    1
    59     6     5    1
    60     6     7    1
    61   100    99    1
    62   100   101    1
    63     5     2    1
    64    99    98    1
    65    83    82    1
    66    82    85    1
    67    95    98    1
    68    95    96    1
    69   102   101    2
    70   102   103    1
    71    85    86    1
    72   124   123    2
    73     1     2    1
    74     2     3    1
    75   112   110    1
    76   110   109    1
    77   126   125    1
    78    96    97    2
    79    96   105   am
    80    88    86    1
    81   123   122    1
    82    86    87    1
    83     3     4    2
    84   105   106    1
    85    16    15    1
    86    16    17    2
    87   122   125    1
    88   122   121    1
    89    15    14    1
    90   109   106    1
    91   109   111    1
    92    19    17    1
    93    17    18    1
    94   106   107    1
    95    14    13    1
    96   107   108    2
    97    41    40   ar
    98    41    39   ar
    99    40    38   ar
   100    13    10    1
   101   120   118   am
   102     9    10    1
   103    39    37   ar
   104    38    36   ar
   105   116   115    2
   106    10    11    1
   107   118   119    2
   108   118   117    1
   109    37    36   ar
   110    36    35    1
   111   117   114    1
   112   115   114    1
   113    23    22    2
   114    11    12    2
   115    35    32    1
   116    32    31    1
   117    32    33    1
   118   114   113    1
   119    24    25    1
   120    24    21    1
   121    22    31   am
   122    22    21    1
   123    33    34    2
   124    25    27   ar
   125    25    26   ar
   126    27    29   ar
   127    21    20    1
   128    26    28   ar
   129    29    30   ar
   130    28    30   ar
