@<TRIPOS>MOLECULE
tmp/3eo7A00.pdb
 207 200 0 0 0
SMALL
GASTEIGER

@<TRIPOS>ATOM
      1  N         37.4070   32.7600  -10.0760 N.3    83  LEU83      -0.1231
      2  CA        38.3800   33.3600   -9.2130 C.3    83  LEU83       0.1693
      3  C         37.7740   33.5010   -7.8270 C.2    83  LEU83       0.2591
      4  O         36.5480   33.5580   -7.6530 O.2    83  LEU83      -0.2718
      5  CB        38.8200   34.7190   -9.7510 C.3    83  LEU83       0.0284
      6  CG        39.2970   34.7520  -11.2070 C.3    83  LEU83       0.0019
      7  CD1       39.7490   36.1780  -11.5320 C.3    83  LEU83       0.0001
      8  CD2       40.4120   33.7610  -11.5100 C.3    83  LEU83       0.0001
      9  N         38.6590   33.5370   -6.8530 N.am   84  ARG84      -0.1980
     10  CA        38.2640   33.4640   -5.4610 C.3    84  ARG84       0.1597
     11  C         38.7920   34.5750   -4.5940 C.2    84  ARG84       0.2287
     12  O         39.6150   35.4030   -5.0020 O.2    84  ARG84      -0.2864
     13  CB        38.7380   32.1080   -4.8810 C.3    84  ARG84       0.0334
     14  CG        38.4410   30.9000   -5.7710 C.3    84  ARG84       0.0492
     15  CD        38.6340   29.5600   -5.0730 C.3    84  ARG84       0.2205
     16  NE        38.5060   28.5010   -6.0800 N.pl3  84  ARG84      -0.0865
     17  CZ        38.5660   27.2070   -5.8410 C.cat  84  ARG84       0.5346
     18  NH1       38.6760   26.7520   -4.6150 N.pl3  84  ARG84       0.1354
     19  NH2       38.4820   26.3580   -6.8600 N.pl3  84  ARG84       0.1354
     20  N         44.0000   34.6650   -3.7770 N.3    87  PRO87      -0.2102
     21  CA        44.7320   34.5010   -5.0390 C.3    87  PRO87       0.1504
     22  C         45.3870   33.1230   -5.0320 C.2    87  PRO87       0.2576
     23  O         45.4580   32.4750   -3.9930 O.2    87  PRO87      -0.2718
     24  CB        45.7820   35.6100   -5.0010 C.3    87  PRO87       0.0282
     25  CG        46.0270   35.8130   -3.5060 C.3    87  PRO87       0.0208
     26  CD        44.6740   35.6280   -2.8710 C.3    87  PRO87       0.0893
     27  N         45.8290   32.6650   -6.1900 N.am   88  SER88      -0.1938
     28  CA        46.5010   31.3630   -6.2970 C.3    88  SER88       0.2055
     29  C         47.3840   31.3640   -7.5220 C.2    88  SER88       0.2643
     30  O         46.9420   31.8040   -8.6050 O.2    88  SER88      -0.2714
     31  CB        45.4850   30.2230   -6.4470 C.3    88  SER88       0.2130
     32  OG        46.0820   29.0010   -6.8750 O.3    88  SER88      -0.2179
     33  N         48.6190   30.9010   -7.3440 N.am   89  ALA89      -0.1963
     34  CA        49.5750   30.7930   -8.4740 C.3    89  ALA89       0.1728
     35  C         48.9160   29.9780   -9.5760 C.2    89  ALA89       0.2617
     36  O         48.4310   28.8570   -9.3690 O.2    89  ALA89      -0.2715
     37  CB        50.8630   30.1370   -8.0030 C.3    89  ALA89       0.0334
     38  N         48.8720   30.5620  -10.7760 N.am   90  GLY90      -0.1940
     39  CA        48.2660   29.9220  -11.9260 C.3    90  GLY90       0.2014
     40  C         46.7580   29.7990  -11.9060 C.2    90  GLY90       0.2639
     41  O         46.1730   29.1630  -12.8260 O.2    90  GLY90      -0.2714
     42  N         46.0930   30.3620  -10.8960 N.am   91  GLY91      -0.1954
     43  CA        44.6500   30.1840  -10.7500 C.3    91  GLY91       0.1869
     44  C         44.3210   28.6990  -10.6070 C.2    91  GLY91       0.2309
     45  O         43.3490   28.2190  -11.1640 O.2    91  GLY91      -0.2863
     46  N         44.2670   26.8280   -7.3700 N.3    93  TYR93      -0.1241
     47  CA        43.5180   26.5390   -6.1440 C.3    93  TYR93       0.1605
     48  C         43.7980   25.1970   -5.4790 C.2    93  TYR93       0.2264
     49  O         42.8760   24.4060   -5.2450 O.2    93  TYR93      -0.2867
     50  CB        41.9890   26.7510   -6.3610 C.3    93  TYR93       0.0534
     51  CG        41.7910   28.0880   -6.9710 C.ar   93  TYR93      -0.0201
     52  CD1       42.0280   29.2400   -6.2320 C.ar   93  TYR93      -0.0009
     53  CD2       41.4870   28.2210   -8.3240 C.ar   93  TYR93      -0.0009
     54  CE1       41.9180   30.5110   -6.8150 C.ar   93  TYR93       0.0417
     55  CE2       41.3850   29.4750   -8.9020 C.ar   93  TYR93       0.0417
     56  CZ        41.6090   30.6170   -8.1510 C.ar   93  TYR93       0.1957
     57  OH        41.5540   31.8590   -8.7570 O.3    93  TYR93      -0.2866
     58  N         53.1510   23.2510  -12.2680 N.3   163  TYR163     -0.1241
     59  CA        54.4860   23.5890  -11.7290 C.3   163  TYR163      0.1605
     60  C         55.3900   22.4050  -11.4020 C.2   163  TYR163      0.2264
     61  O         56.5560   22.5820  -11.0250 O.2   163  TYR163     -0.2867
     62  CB        54.3150   24.4610  -10.4880 C.3   163  TYR163      0.0534
     63  CG        53.6230   25.7860  -10.7920 C.ar  163  TYR163     -0.0201
     64  CD1       54.2860   26.7930  -11.4880 C.ar  163  TYR163     -0.0009
     65  CD2       52.3320   26.0370  -10.3540 C.ar  163  TYR163     -0.0009
     66  CE1       53.6540   27.9870  -11.7820 C.ar  163  TYR163      0.0417
     67  CE2       51.7110   27.2260  -10.6420 C.ar  163  TYR163      0.0417
     68  CZ        52.3700   28.1960  -11.3420 C.ar  163  TYR163      0.1957
     69  OH        51.7020   29.3690  -11.6010 O.3   163  TYR163     -0.2866
     70  N         54.5060   27.0330   -4.3940 N.3   170  ARG170     -0.1245
     71  CA        53.2750   27.7360   -4.7610 C.3   170  ARG170      0.1563
     72  C         52.0870   27.3200   -3.8780 C.2   170  ARG170      0.2260
     73  O         51.2890   28.1650   -3.4610 O.2   170  ARG170     -0.2867
     74  CB        52.9140   27.5410   -6.2520 C.3   170  ARG170      0.0307
     75  CG        54.0520   27.8010   -7.2290 C.3   170  ARG170      0.0489
     76  CD        54.6080   29.2070   -7.1890 C.3   170  ARG170      0.2205
     77  NE        55.4440   29.3850   -8.3750 N.pl3 170  ARG170     -0.0865
     78  CZ        56.6970   28.9610   -8.5030 C.cat 170  ARG170      0.5346
     79  NH1       57.3850   28.4730   -7.4830 N.pl3 170  ARG170      0.1354
     80  NH2       57.2990   29.0930   -9.6740 N.pl3 170  ARG170      0.1354
     81  N         52.4980   29.0490   -0.4760 N.3   173  LEU173     -0.1231
     82  CA        52.2000   30.4940   -0.6510 C.3   173  LEU173      0.1693
     83  C         50.7010   30.7080   -0.7880 C.2   173  LEU173      0.2592
     84  O         50.1390   31.5820   -0.1180 O.2   173  LEU173     -0.2718
     85  CB        52.9320   31.0570   -1.8740 C.3   173  LEU173      0.0284
     86  CG        54.4560   31.0880   -1.6790 C.3   173  LEU173      0.0019
     87  CD1       55.1510   31.2950   -3.0430 C.3   173  LEU173      0.0001
     88  CD2       54.8160   32.1750   -0.6770 C.3   173  LEU173      0.0001
     89  N         50.0710   29.9640   -1.7020 N.am  174  ASP174     -0.1974
     90  CA        48.6140   30.0460   -1.9260 C.3   174  ASP174      0.1709
     91  C         47.8610   29.8570   -0.5930 C.2   174  ASP174      0.2293
     92  O         46.9080   30.5770   -0.2780 O.2   174  ASP174     -0.2864
     93  CB        48.1170   28.9590   -2.8790 C.3   174  ASP174      0.1436
     94  CG        48.4900   29.1880   -4.3330 C.2   174  ASP174      0.3671
     95  OD1       49.2040   30.1660   -4.6690 O.co2 174  ASP174     -0.2456
     96  OD2       48.0610   28.3330   -5.1470 O.co2 174  ASP174     -0.2456
     97  N         48.0910   32.8340    1.7270 N.3   177  HIS177     -0.1241
     98  CA        47.1500   33.8900    1.3430 C.3   177  HIS177      0.1621
     99  C         45.7700   33.6000    1.9400 C.2   177  HIS177      0.2264
    100  O         45.1080   34.5090    2.4910 O.2   177  HIS177     -0.2867
    101  CB        47.0430   34.0630   -0.1880 C.3   177  HIS177      0.0745
    102  CG        48.1320   34.9010   -0.7980 C.ar  177  HIS177      0.0817
    103  ND1       48.0320   36.2670   -0.9170 N.ar  177  HIS177     -0.2268
    104  CD2       49.3530   34.5690   -1.2900 C.ar  177  HIS177      0.1154
    105  CE1       49.1420   36.7380   -1.4900 C.ar  177  HIS177      0.1986
    106  NE2       49.9530   35.7300   -1.7360 N.ar  177  HIS177     -0.2212
    107  N         38.8740   42.2880   -4.5390 N.3   307  ARG307     -0.1231
    108  CA        40.3120   42.1270   -4.7160 C.3   307  ARG307      0.1694
    109  C         40.6340   41.2370   -5.8930 C.2   307  ARG307      0.2592
    110  O         40.1460   40.1120   -5.9770 O.2   307  ARG307     -0.2718
    111  CB        40.9180   41.4980   -3.4650 C.3   307  ARG307      0.0321
    112  CG        42.4450   41.2580   -3.5920 C.3   307  ARG307      0.0489
    113  CD        42.9080   39.9820   -2.9180 C.3   307  ARG307      0.2205
    114  NE        42.2530   38.7820   -3.4740 N.pl3 307  ARG307     -0.0865
    115  CZ        42.5440   38.2100   -4.6260 C.cat 307  ARG307      0.5346
    116  NH1       43.5200   38.6670   -5.3870 N.pl3 307  ARG307      0.1354
    117  NH2       41.8680   37.1350   -4.9860 N.pl3 307  ARG307      0.1354
    118  N         41.4640   41.7460   -6.7960 N.am  308  ARG308     -0.1966
    119  CA        41.9990   40.9770   -7.9190 C.3   308  ARG308      0.1729
    120  C         43.4970   41.2570   -8.0150 C.2   308  ARG308      0.2617
    121  O         43.9560   42.3390   -7.6190 O.2   308  ARG308     -0.2715
    122  CB        41.3620   41.4380   -9.2260 C.3   308  ARG308      0.0348
    123  CG        39.8540   41.2330   -9.3350 C.3   308  ARG308      0.0492
    124  CD        39.4740   39.8790   -9.8910 C.3   308  ARG308      0.2205
    125  NE        39.7910   38.7440   -9.0180 N.pl3 308  ARG308     -0.0865
    126  CZ        38.9680   38.2610   -8.0940 C.cat 308  ARG308      0.5346
    127  NH1       37.7720   38.7900   -7.8990 N.pl3 308  ARG308      0.1354
    128  NH2       39.3180   37.1890   -7.3890 N.pl3 308  ARG308      0.1354
    129  N         44.2430   40.3010   -8.5760 N.am  309  SER309     -0.1936
    130  CA        45.6500   40.4860   -8.8790 C.3   309  SER309      0.2055
    131  C         45.6910   41.3340  -10.1570 C.2   309  SER309      0.2644
    132  O         45.1220   40.9610  -11.1840 O.2   309  SER309     -0.2714
    133  CB        46.3360   39.1520   -9.1090 C.3   309  SER309      0.2130
    134  OG        46.4020   38.4250   -7.8980 O.3   309  SER309     -0.2179
    135  N         46.3900   42.4530  -10.1020 N.am  310  THR310     -0.1936
    136  CA        46.4950   43.3610  -11.2390 C.3   310  THR310      0.2028
    137  C         47.2960   42.7600  -12.4030 C.2   310  THR310      0.2642
    138  O         48.3840   42.2400  -12.2290 O.2   310  THR310     -0.2714
    139  CB        47.1340   44.6570  -10.7720 C.3   310  THR310      0.1808
    140  OG1       46.4540   45.0910   -9.5860 O.3   310  THR310     -0.2208
    141  CG2       47.0850   45.7410  -11.8630 C.3   310  THR310      0.0379
    142  N         46.7190   42.8400  -13.5970 N.am  311  ARG311     -0.1977
    143  CA        47.3250   42.2890  -14.7950 C.3   311  ARG311      0.1597
    144  C         48.5390   43.0740  -15.2520 C.2   311  ARG311      0.2287
    145  O         49.5230   42.4820  -15.6870 O.2   311  ARG311     -0.2864
    146  CB        46.3030   42.2440  -15.9380 C.3   311  ARG311      0.0334
    147  CG        46.8700   41.7000  -17.2700 C.3   311  ARG311      0.0492
    148  CD        45.9220   41.8780  -18.4910 C.3   311  ARG311      0.2205
    149  NE        46.3830   41.0710  -19.6310 N.pl3 311  ARG311     -0.0865
    150  CZ        46.2070   39.7490  -19.7470 C.cat 311  ARG311      0.5346
    151  NH1       45.5890   39.0570  -18.7890 N.pl3 311  ARG311      0.1354
    152  NH2       46.6630   39.1040  -20.8250 N.pl3 311  ARG311      0.1354
    153  N         58.4980   39.3010  -16.6470 N.3   398  GLN398     -0.1245
    154  CA        57.1760   39.9120  -16.5210 C.3   398  GLN398      0.1566
    155  C         57.2440   41.4260  -16.3980 C.2   398  GLN398      0.2260
    156  O         58.0040   41.9460  -15.5720 O.2   398  GLN398     -0.2867
    157  CB        56.4310   39.3450  -15.3330 C.3   398  GLN398      0.0367
    158  CG        56.1410   37.8540  -15.5060 C.3   398  GLN398      0.0905
    159  CD        55.3140   37.3020  -14.3800 C.2   398  GLN398      0.2608
    160  OE1       54.1120   37.5670  -14.3060 O.2   398  GLN398     -0.2717
    161  NE2       55.9440   36.5570  -13.4820 N.am  398  GLN398     -0.0878
    162  N         55.1660   43.2180  -15.0220 N.3   400  LEU400     -0.1245
    163  CA        54.8190   43.6010  -13.6480 C.3   400  LEU400      0.1561
    164  C         56.0570   44.0160  -12.8660 C.2   400  LEU400      0.2260
    165  O         56.0000   44.9630  -12.1020 O.2   400  LEU400     -0.2867
    166  CB        54.1050   42.4680  -12.9070 C.3   400  LEU400      0.0270
    167  CG        52.6710   42.1670  -13.3470 C.3   400  LEU400      0.0019
    168  CD1       52.2070   40.7800  -12.7640 C.3   400  LEU400      0.0001
    169  CD2       51.6620   43.2670  -12.9670 C.3   400  LEU400      0.0001
    170  N         50.3570   42.4320   -7.3460 N.3   451  SER451     -0.1202
    171  CA        50.3770   41.0510   -7.7450 C.3   451  SER451      0.2020
    172  C         51.5630   40.3180   -7.1560 C.2   451  SER451      0.2619
    173  O         52.6900   40.7910   -7.2320 O.2   451  SER451     -0.2717
    174  CB        50.4190   40.8950   -9.2720 C.3   451  SER451      0.2103
    175  OG        50.3630   39.5070   -9.6420 O.3   451  SER451     -0.2182
    176  N         51.3130   39.1260   -6.6320 N.am  452  GLY452     -0.1942
    177  CA        52.3780   38.2490   -6.2470 C.3   452  GLY452      0.2014
    178  C         53.0610   37.7520   -7.5130 C.2   452  GLY452      0.2639
    179  O         52.4890   37.8090   -8.6250 O.2   452  GLY452     -0.2714
    180  N         54.2840   37.2700   -7.3320 N.am  453  ILE453     -0.1963
    181  CA        55.1140   36.6560   -8.3640 C.3   453  ILE453      0.1727
    182  C         55.7380   35.4130   -7.7190 C.2   453  ILE453      0.2617
    183  O         56.5630   35.5330   -6.8130 O.2   453  ILE453     -0.2715
    184  CB        56.2630   37.5970   -8.8070 C.3   453  ILE453      0.0290
    185  CG1       55.7230   38.9270   -9.3490 C.3   453  ILE453      0.0022
    186  CG2       57.1810   36.8860   -9.8110 C.3   453  ILE453      0.0023
    187  CD1       55.0590   38.8780  -10.6520 C.3   453  ILE453      0.0001
    188  N         55.3500   34.2290   -8.1770 N.am  454  GLY454     -0.1940
    189  CA        55.8340   32.9940   -7.5530 C.3   454  GLY454      0.2014
    190  C         57.1410   32.4590   -8.0830 C.2   454  GLY454      0.2639
    191  O         57.8920   31.8020   -7.3580 O.2   454  GLY454     -0.2714
    192  N         57.3950   32.7360   -9.3480 N.am  455  GLY455     -0.1954
    193  CA        58.5740   32.2650  -10.0640 C.3   455  GLY455      0.1869
    194  C         59.5310   33.4000  -10.3750 C.2   455  GLY455      0.2309
    195  O         59.1450   34.4550  -10.8720 O.2   455  GLY455     -0.2863
    196  N         59.3840   34.8010   -1.7050 N.3   475  TYR475     -0.1241
    197  CA        58.2210   35.3300   -2.4000 C.3   475  TYR475      0.1605
    198  C         58.4710   36.7650   -2.7980 C.2   475  TYR475      0.2264
    199  O         59.2910   37.4410   -2.1790 O.2   475  TYR475     -0.2867
    200  CB        57.0010   35.2120   -1.4730 C.3   475  TYR475      0.0534
    201  CG        55.6290   35.4630   -2.0550 C.ar  475  TYR475     -0.0201
    202  CD1       55.2990   35.0590   -3.3490 C.ar  475  TYR475     -0.0009
    203  CD2       54.6360   36.0460   -1.2760 C.ar  475  TYR475     -0.0009
    204  CE1       54.0480   35.2790   -3.8810 C.ar  475  TYR475      0.0417
    205  CE2       53.3490   36.2550   -1.7800 C.ar  475  TYR475      0.0417
    206  CZ        53.0550   35.8480   -3.0720 C.ar  475  TYR475      0.1957
    207  OH        51.8410   36.0160   -3.6070 O.3   475  TYR475     -0.2866
@<TRIPOS>BOND
     1   152   150    1
     2   150   149    2
     3   150   151    1
     4   149   148    1
     5   148   147    1
     6   147   146    1
     7   153   154    1
     8   154   155    1
     9   154   157    1
    10   155   156    2
    11   146   143    1
    12   145   144    2
    13   158   157    1
    14   158   159    1
    15   144   143    1
    16   162   163    1
    17   143   142    1
    18   159   160    2
    19   159   161   am
    20   163   166    1
    21   163   164    1
    22   142   137   am
    23   167   169    1
    24   167   166    1
    25   167   168    1
    26   164   165    2
    27    41    40    2
    28   137   138    2
    29   137   136    1
    30    58    59    1
    31    39    40    1
    32    39    38    1
    33    40    42   am
    34   141   139    1
    35    66    64   ar
    36    66    68   ar
    37    59    60    1
    38    59    62    1
    39    69    68    1
    40     7     6    1
    41     8     6    1
    42    64    63   ar
    43    60    61    2
    44    68    67   ar
    45   136   139    1
    46   136   135    1
    47     6     5    1
    48   132   131    2
    49    45    44    2
    50    42    43    1
    51   195   194    2
    52    63    62    1
    53    63    65   ar
    54    38    35   am
    55   139   140    1
    56    43    44    1
    57   187   185    1
    58    67    65   ar
    59   194   193    1
    60   131   135   am
    61   131   130    1
    62     1     2    1
    63   193   192    1
    64   124   123    1
    65   124   125    1
    66   186   184    1
    67     5     2    1
    68    80    78    1
    69   175   174    1
    70    35    36    2
    71    35    34    1
    72   185   184    1
    73   192   190   am
    74   123   122    1
    75   174   171    1
    76   122   119    1
    77     2     3    1
    78   133   130    1
    79   133   134    1
    80   125   126    2
    81    55    53   ar
    82    55    56   ar
    83   130   129    1
    84   184   181    1
    85    57    56    1
    86   179   178    2
    87    30    29    2
    88   129   120   am
    89    78    77    2
    90    78    79    1
    91    34    37    1
    92    34    33    1
    93    77    76    1
    94   181   182    1
    95   181   180    1
    96    53    51   ar
    97   188   182   am
    98   188   189    1
    99    56    54   ar
   100   126   127    1
   101   126   128    1
   102   190   189    1
   103   190   191    2
   104   120   119    1
   105   120   121    2
   106   119   118    1
   107     3     4    2
   108     3     9   am
   109   171   170    1
   110   171   172    1
   111   182   183    2
   112    29    33   am
   113    29    28    1
   114   178   180   am
   115   178   177    1
   116    46    47    1
   117   173   172    2
   118    75    76    1
   119    75    74    1
   120   172   176   am
   121    51    50    1
   122    51    52   ar
   123    32    31    1
   124    19    17    1
   125     9    10    1
   126    54    52   ar
   127   118   109   am
   128   176   177    1
   129    31    28    1
   130    50    47    1
   131    28    27    1
   132    74    71    1
   133    27    22   am
   134    47    48    1
   135    16    17    2
   136    16    15    1
   137   110   109    2
   138   109   108    1
   139    17    18    1
   140    14    15    1
   141    14    13    1
   142    48    49    2
   143    10    13    1
   144    10    11    1
   145   116   115    1
   146    96    94   ar
   147    21    22    1
   148    21    24    1
   149    21    20    1
   150    22    23    2
   151    12    11    2
   152    24    25    1
   153   117   115    1
   154    71    70    1
   155    71    72    1
   156   108   107    1
   157   108   111    1
   158    95    94   ar
   159   115   114    2
   160    94    93    1
   161   204   202   ar
   162   204   206   ar
   163    72    73    2
   164    20    26    1
   165   207   206    1
   166   112   111    1
   167   112   113    1
   168    25    26    1
   169   114   113    1
   170   202   201   ar
   171   206   205   ar
   172    87    86    1
   173    93    90    1
   174   198   197    1
   175   198   199    2
   176   197   196    1
   177   197   200    1
   178   201   200    1
   179   201   203   ar
   180    90    89    1
   181    90    91    1
   182    85    86    1
   183    85    82    1
   184   205   203   ar
   185   106   105   ar
   186   106   104   ar
   187    89    83   am
   188    86    88    1
   189   105   103   ar
   190   104   102   ar
   191   103   102   ar
   192   102   101    1
   193    83    82    1
   194    83    84    2
   195    82    81    1
   196    91    92    2
   197   101    98    1
   198    98    97    1
   199    98    99    1
   200    99   100    2
