@<TRIPOS>MOLECULE
tmp/3eo8C01.pdb
 89 86 0 0 0
SMALL
GASTEIGER

@<TRIPOS>ATOM
      1  N         54.0100   90.7710  -22.2180 N.3    34  ALA34      -0.1231
      2  CA        53.6820   92.1120  -21.7340 C.3    34  ALA34       0.1694
      3  C         54.8140   92.7360  -20.9280 C.2    34  ALA34       0.2592
      4  O         54.7050   93.8760  -20.5050 O.2    34  ALA34      -0.2718
      5  CB        52.3950   92.0770  -20.9230 C.3    34  ALA34       0.0304
      6  N         55.9090   92.0030  -20.7140 N.am   35  ALA35      -0.1966
      7  CA        57.0400   92.5140  -19.9740 C.3    35  ALA35       0.1713
      8  C         57.6690   93.7040  -20.6900 C.2    35  ALA35       0.2458
      9  O         57.5870   93.8060  -21.9230 O.2    35  ALA35      -0.2730
     10  CB        58.1030   91.4390  -19.8030 C.3    35  ALA35       0.0333
     11  N         58.3560   94.5780  -19.9340 N.am   36  PRO36      -0.2716
     12  CA        59.0370   95.6640  -20.6080 C.3    36  PRO36       0.1536
     13  C         60.3150   95.0880  -21.2370 C.2    36  PRO36       0.2599
     14  O         60.7810   94.0150  -20.8430 O.2    36  PRO36      -0.2715
     15  CB        59.3650   96.6320  -19.4730 C.3    36  PRO36       0.0310
     16  CG        59.4930   95.7190  -18.2370 C.3    36  PRO36       0.0237
     17  CD        58.5670   94.5780  -18.4780 C.3    36  PRO36       0.0939
     18  N         60.8340   95.7900  -22.2190 N.am   37  SER37      -0.1936
     19  CA        62.0730   95.4060  -22.8590 C.3    37  SER37       0.2055
     20  C         62.7260   96.5910  -23.5320 C.2    37  SER37       0.2644
     21  O         62.0400   97.4870  -24.0630 O.2    37  SER37      -0.2714
     22  CB        61.8130   94.2820  -23.8760 C.3    37  SER37       0.2130
     23  OG        61.0040   94.6820  -24.9630 O.3    37  SER37      -0.2179
     24  N         64.0480   96.5410  -23.5840 N.am   38  GLY38      -0.1939
     25  CA        64.8310   97.6050  -24.1710 C.3    38  GLY38       0.2014
     26  C         64.3940   97.9070  -25.5830 C.2    38  GLY38       0.2639
     27  O         64.3240   97.0020  -26.4360 O.2    38  GLY38      -0.2714
     28  N         64.0590   99.1700  -25.8140 N.am   39  LYS39      -0.1963
     29  CA        63.5650   99.6290  -27.1130 C.3    39  LYS39       0.1728
     30  C         62.4500   98.7390  -27.6660 C.2    39  LYS39       0.2616
     31  O         62.2480   98.6240  -28.8660 O.2    39  LYS39      -0.2715
     32  CB        64.7310   99.7860  -28.0930 C.3    39  LYS39       0.0311
     33  CG        65.5550  101.0000  -27.7480 C.3    39  LYS39       0.0038
     34  CD        66.7300  101.1610  -28.6640 C.3    39  LYS39       0.0206
     35  CE        67.5780  102.3990  -28.3030 C.3    39  LYS39       0.1093
     36  NZ        68.5220  102.1830  -27.1600 N.3    39  LYS39      -0.1314
     37  N         61.6740   98.1640  -26.7580 N.am   40  ASN40      -0.1972
     38  CA        60.5640   97.2790  -27.1190 C.3    40  ASN40       0.1688
     39  C         60.9860   96.1030  -27.9920 C.2    40  ASN40       0.2292
     40  O         60.2030   95.5990  -28.8070 O.2    40  ASN40      -0.2864
     41  CB        59.4370   98.0950  -27.7860 C.3    40  ASN40       0.1181
     42  CG        58.1100   97.3470  -27.8500 C.2    40  ASN40       0.2629
     43  OD1       57.7180   96.6520  -26.9030 O.2    40  ASN40      -0.2716
     44  ND2       57.3900   97.5110  -28.9760 N.am   40  ASN40      -0.0877
     45  N         70.4490   92.1570  -27.6320 N.3   107  TYR107     -0.1241
     46  CA        70.0290   93.5490  -27.7010 C.3   107  TYR107      0.1605
     47  C         71.2760   94.4090  -27.5340 C.2   107  TYR107      0.2264
     48  O         72.0080   94.2730  -26.5590 O.2   107  TYR107     -0.2867
     49  CB        69.0240   93.8600  -26.6130 C.3   107  TYR107      0.0534
     50  CG        68.7390   95.3200  -26.4720 C.ar  107  TYR107     -0.0201
     51  CD1       68.1990   96.0400  -27.5160 C.ar  107  TYR107     -0.0009
     52  CD2       68.9770   95.9760  -25.2710 C.ar  107  TYR107     -0.0009
     53  CE1       67.9480   97.3950  -27.3790 C.ar  107  TYR107      0.0417
     54  CE2       68.6950   97.3220  -25.1090 C.ar  107  TYR107      0.0417
     55  CZ        68.1730   98.0230  -26.1620 C.ar  107  TYR107      0.1957
     56  OH        67.9230   99.3650  -25.9970 O.3   107  TYR107     -0.2866
     57  N         71.8450  101.1870  -25.5730 N.3   110  SER110     -0.1217
     58  CA        72.2420  102.5610  -25.7640 C.3   110  SER110      0.1889
     59  C         73.7280  102.7150  -25.4740 C.2   110  SER110      0.2288
     60  O         74.2500  102.2080  -24.4670 O.2   110  SER110     -0.2866
     61  CB        71.4050  103.4590  -24.8790 C.3   110  SER110      0.2089
     62  OG        70.0410  103.2500  -25.1790 O.3   110  SER110     -0.2183
     63  N         71.3950   94.5980  -20.7590 N.3   133  PRO133     -0.2116
     64  CA        70.0020   94.9840  -20.7950 C.3   133  PRO133      0.1372
     65  C         69.0700   94.0320  -21.5420 C.2   133  PRO133      0.2244
     66  O         67.8850   93.9050  -21.1770 O.2   133  PRO133     -0.2868
     67  CB        70.0580   96.3660  -21.4730 C.3   133  PRO133      0.0268
     68  CG        71.3630   96.8850  -21.0940 C.3   133  PRO133      0.0207
     69  CD        72.2410   95.6950  -21.2460 C.3   133  PRO133      0.0892
     70  N         68.3140   91.3710  -19.0120 N.3   135  GLN135     -0.1231
     71  CA        67.3470   91.9600  -18.0630 C.3   135  GLN135      0.1698
     72  C         65.9430   91.8700  -18.5840 C.2   135  GLN135      0.2592
     73  O         65.0180   91.5050  -17.8460 O.2   135  GLN135     -0.2718
     74  CB        67.6600   93.4320  -17.7530 C.3   135  GLN135      0.0381
     75  CG        68.9450   93.6730  -16.9780 C.3   135  GLN135      0.0905
     76  CD        69.0820   95.1070  -16.4760 C.2   135  GLN135      0.2608
     77  OE1       68.1430   95.6800  -15.9520 O.2   135  GLN135     -0.2717
     78  NE2       70.2720   95.6940  -16.6600 N.am  135  GLN135     -0.0878
     79  N         65.7730   92.2790  -19.8410 N.am  136  SER136     -0.1952
     80  CA        64.5000   92.2230  -20.5290 C.3   136  SER136      0.1924
     81  C         63.9630   90.7870  -20.5390 C.2   136  SER136      0.2314
     82  O         62.8130   90.5630  -20.2170 O.2   136  SER136     -0.2863
     83  CB        64.6110   92.7420  -21.9790 C.3   136  SER136      0.2116
     84  OG        65.1540   94.0590  -22.0400 O.3   136  SER136     -0.2180
     85  N         62.6480   89.8200  -17.1580 N.3   139  ALA139     -0.1245
     86  CA        61.3310   90.4030  -16.8720 C.3   139  ALA139      0.1562
     87  C         60.2120   89.5540  -17.4730 C.2   139  ALA139      0.2260
     88  O         59.1750   89.3270  -16.8260 O.2   139  ALA139     -0.2867
     89  CB        61.2940   91.8330  -17.4290 C.3   139  ALA139      0.0290
@<TRIPOS>BOND
     1    44    42   am
     2    31    30    2
     3    40    39    2
     4    34    35    1
     5    34    33    1
     6    35    36    1
     7    32    33    1
     8    32    29    1
     9    39    38    1
    10    42    41    1
    11    42    43    2
    12    41    38    1
    13    46    45    1
    14    46    47    1
    15    46    49    1
    16    30    29    1
    17    30    37   am
    18    47    48    2
    19    51    53   ar
    20    51    50   ar
    21    53    55   ar
    22    38    37    1
    23    29    28    1
    24    49    50    1
    25    50    52   ar
    26    27    26    2
    27    55    56    1
    28    55    54   ar
    29    28    26   am
    30    58    57    1
    31    58    59    1
    32    58    61    1
    33    26    25    1
    34    59    60    2
    35    52    54   ar
    36    62    61    1
    37    23    22    1
    38    25    24    1
    39    21    20    2
    40    22    19    1
    41    24    20   am
    42    20    19    1
    43    19    18    1
    44    18    13   am
    45     1     2    1
    46    84    83    1
    47    83    80    1
    48     9     8    2
    49     2     3    1
    50     2     5    1
    51    65    66    2
    52    65    64    1
    53    67    68    1
    54    67    64    1
    55    69    68    1
    56    69    63    1
    57    13    14    2
    58    13    12    1
    59     3     6   am
    60     3     4    2
    61    64    63    1
    62     6     7    1
    63     8     7    1
    64     8    11   am
    65    12    11    1
    66    12    15    1
    67    81    80    1
    68    81    82    2
    69    80    79    1
    70     7    10    1
    71    11    17    1
    72    79    72   am
    73    15    16    1
    74    70    71    1
    75    72    71    1
    76    72    73    2
    77    17    16    1
    78    71    74    1
    79    74    75    1
    80    87    86    1
    81    87    88    2
    82    89    86    1
    83    85    86    1
    84    75    76    1
    85    78    76   am
    86    76    77    2
