@<TRIPOS>MOLECULE
tmp/3eo8C00.pdb
 142 140 0 0 0
SMALL
GASTEIGER

@<TRIPOS>ATOM
      1  N         56.1290   81.9740   -4.8110 N.3    10  ARG10      -0.1231
      2  CA        57.0880   81.4840   -5.7940 C.3    10  ARG10       0.1694
      3  C         58.2840   80.8070   -5.1460 C.2    10  ARG10       0.2592
      4  O         58.9670   81.3890   -4.3220 O.2    10  ARG10      -0.2718
      5  CB        57.5620   82.6310   -6.6910 C.3    10  ARG10       0.0321
      6  CG        58.3520   82.1770   -7.9310 C.3    10  ARG10       0.0489
      7  CD        59.4340   83.1520   -8.3250 C.3    10  ARG10       0.2205
      8  NE        60.3480   83.3630   -7.1980 N.pl3  10  ARG10      -0.0865
      9  CZ        61.2250   82.4750   -6.7440 C.cat  10  ARG10       0.5346
     10  NH1       61.3780   81.2900   -7.3300 N.pl3  10  ARG10       0.1354
     11  NH2       61.9340   82.7740   -5.6750 N.pl3  10  ARG10       0.1354
     12  N         58.5390   79.5720   -5.5550 N.am   11  GLN11      -0.1966
     13  CA        59.7730   78.8920   -5.2710 C.3    11  GLN11       0.1733
     14  C         60.3200   78.2350   -6.5520 C.2    11  GLN11       0.2617
     15  O         59.6190   78.1420   -7.5610 O.2    11  GLN11      -0.2715
     16  CB        59.5350   77.8060   -4.2100 C.3    11  GLN11       0.0408
     17  CG        58.8720   78.2630   -2.9010 C.3    11  GLN11       0.0908
     18  CD        58.6440   77.0770   -1.9880 C.2    11  GLN11       0.2608
     19  OE1       57.5440   76.5170   -1.9550 O.2    11  GLN11      -0.2717
     20  NE2       59.6840   76.6630   -1.2750 N.am   11  GLN11      -0.0878
     21  N         61.5570   77.7660   -6.5080 N.am   12  SER12      -0.1950
     22  CA        62.0720   76.8890   -7.5610 C.3    12  SER12       0.1924
     23  C         61.5810   75.4700   -7.3460 C.2    12  SER12       0.2314
     24  O         62.0380   74.7690   -6.4280 O.2    12  SER12      -0.2863
     25  CB        63.6130   76.9330   -7.6200 C.3    12  SER12       0.2116
     26  OG        64.0090   78.2100   -8.0270 O.3    12  SER12      -0.2180
     27  N         61.2450   71.6730   -8.0870 N.3    14  ARG14      -0.1245
     28  CA        62.0610   70.5990   -8.6680 C.3    14  ARG14       0.1563
     29  C         61.4420   69.2140   -8.4910 C.2    14  ARG14       0.2260
     30  O         62.0410   68.2130   -8.8670 O.2    14  ARG14      -0.2867
     31  CB        63.4740   70.6530   -8.1000 C.3    14  ARG14       0.0307
     32  CG        64.1600   72.0130   -8.2680 C.3    14  ARG14       0.0489
     33  CD        65.6040   71.9550   -7.9370 C.3    14  ARG14       0.2205
     34  NE        66.2350   73.2500   -8.1120 N.pl3  14  ARG14      -0.0865
     35  CZ        66.2490   74.2330   -7.2100 C.cat  14  ARG14       0.5346
     36  NH1       65.6640   74.0950   -6.0290 N.pl3  14  ARG14       0.1354
     37  NH2       66.8600   75.3970   -7.5050 N.pl3  14  ARG14       0.1354
     38  N         76.3300   67.7250   -9.9360 N.3    85  PHE85      -0.1241
     39  CA        75.6280   68.9790  -10.1250 C.3    85  PHE85       0.1605
     40  C         74.5760   68.9290  -11.2530 C.2    85  PHE85       0.2264
     41  O         73.4320   69.3810  -11.0960 O.2    85  PHE85      -0.2867
     42  CB        76.6440   70.1140  -10.3800 C.3    85  PHE85       0.0534
     43  CG        75.9820   71.3920  -10.8140 C.ar   85  PHE85      -0.0203
     44  CD1       75.3360   72.1860   -9.8780 C.ar   85  PHE85      -0.0042
     45  CD2       75.9220   71.7460  -12.1560 C.ar   85  PHE85      -0.0042
     46  CE1       74.6980   73.3320  -10.2720 C.ar   85  PHE85      -0.0003
     47  CE2       75.2780   72.9010  -12.5590 C.ar   85  PHE85      -0.0003
     48  CZ        74.6530   73.6870  -11.6160 C.ar   85  PHE85      -0.0000
     49  N         70.7170   69.5320  -10.5280 N.3    89  PHE89      -0.1241
     50  CA        70.2870   70.8980  -10.8830 C.3    89  PHE89       0.1605
     51  C         70.0080   71.1630  -12.3550 C.2    89  PHE89       0.2264
     52  O         69.7240   72.2980  -12.7310 O.2    89  PHE89      -0.2867
     53  CB        71.2730   71.9170  -10.3080 C.3    89  PHE89       0.0534
     54  CG        71.2760   71.9200   -8.8280 C.ar   89  PHE89      -0.0203
     55  CD1       70.2060   72.4640   -8.1310 C.ar   89  PHE89      -0.0042
     56  CD2       72.2720   71.2700   -8.1270 C.ar   89  PHE89      -0.0042
     57  CE1       70.1560   72.4180   -6.7510 C.ar   89  PHE89      -0.0003
     58  CE2       72.2330   71.2270   -6.7330 C.ar   89  PHE89      -0.0003
     59  CZ        71.1650   71.8020   -6.0470 C.ar   89  PHE89      -0.0000
     60  N         66.6970   67.1290  -13.5140 N.3    92  PHE92      -0.1241
     61  CA        65.4330   67.0000  -12.7810 C.3    92  PHE92       0.1605
     62  C         64.2240   67.5160  -13.5840 C.2    92  PHE92       0.2264
     63  O         63.0760   67.1900  -13.2440 O.2    92  PHE92      -0.2867
     64  CB        65.5180   67.7500  -11.4480 C.3    92  PHE92       0.0534
     65  CG        65.4030   69.2400  -11.5950 C.ar   92  PHE92      -0.0203
     66  CD1       64.1540   69.8510  -11.6560 C.ar   92  PHE92      -0.0042
     67  CD2       66.5450   70.0310  -11.6680 C.ar   92  PHE92      -0.0042
     68  CE1       64.0470   71.2160  -11.8180 C.ar   92  PHE92      -0.0003
     69  CE2       66.4310   71.3970  -11.8370 C.ar   92  PHE92      -0.0003
     70  CZ        65.1860   71.9900  -11.9050 C.ar   92  PHE92      -0.0000
     71  N         60.6270   75.7350  -12.2260 N.3   156  CYS156     -0.1221
     72  CA        62.0000   76.1060  -11.9970 C.3   156  CYS156      0.1808
     73  C         62.5620   76.7060  -13.2720 C.2   156  CYS156      0.2601
     74  O         62.3330   76.2230  -14.3710 O.2   156  CYS156     -0.2717
     75  CB        62.8680   74.8950  -11.5940 C.3   156  CYS156      0.0970
     76  SG        64.4570   75.3920  -10.8660 S.3   156  CYS156     -0.0800
     77  N         63.3000   77.7840  -13.0820 N.am  157  TRP157     -0.1962
     78  CA        64.0640   78.4800  -14.1260 C.3   157  TRP157      0.1771
     79  C         65.4510   77.8390  -14.2070 C.2   157  TRP157      0.2619
     80  O         66.0530   77.5650  -13.1670 O.2   157  TRP157     -0.2715
     81  CB        64.1650   79.9330  -13.6790 C.3   157  TRP157      0.0590
     82  CG        64.5830   80.9860  -14.6330 C.ar  157  TRP157      0.0006
     83  CD1       65.5210   80.9290  -15.6500 C.ar  157  TRP157      0.0946
     84  CD2       64.1930   82.3520  -14.5310 C.ar  157  TRP157      0.0152
     85  NE1       65.6440   82.1830  -16.2420 N.ar  157  TRP157     -0.2442
     86  CE2       64.8620   83.0720  -15.5500 C.ar  157  TRP157      0.0810
     87  CE3       63.3100   83.0340  -13.6900 C.ar  157  TRP157      0.0012
     88  CZ2       64.6650   84.4350  -15.7330 C.ar  157  TRP157      0.0191
     89  CZ3       63.1210   84.3950  -13.8880 C.ar  157  TRP157      0.0001
     90  CH2       63.7820   85.0680  -14.8950 C.ar  157  TRP157      0.0015
     91  N         65.9110   77.5410  -15.4250 N.am  158  LEU158     -0.1963
     92  CA        67.1890   76.8750  -15.6310 C.3   158  LEU158      0.1728
     93  C         68.0630   77.5980  -16.6360 C.2   158  LEU158      0.2617
     94  O         67.6190   77.9660  -17.7100 O.2   158  LEU158     -0.2715
     95  CB        66.9710   75.4330  -16.0980 C.3   158  LEU158      0.0311
     96  CG        66.2670   74.5130  -15.0800 C.3   158  LEU158      0.0022
     97  CD1       64.8270   74.2990  -15.4000 C.3   158  LEU158      0.0001
     98  CD2       67.0260   73.1510  -15.0200 C.3   158  LEU158      0.0001
     99  N         69.3200   77.7850  -16.2740 N.am  159  THR159     -0.1937
    100  CA        70.3630   78.1810  -17.2230 C.3   159  THR159      0.2028
    101  C         71.5650   77.2710  -17.1000 C.2   159  THR159      0.2642
    102  O         72.5370   77.4010  -17.8560 O.2   159  THR159     -0.2714
    103  CB        70.8160   79.6630  -17.0650 C.3   159  THR159      0.1808
    104  OG1       71.1070   79.9500  -15.6860 O.3   159  THR159     -0.2208
    105  CG2       69.7740   80.6700  -17.6160 C.3   159  THR159      0.0379
    106  N         71.5200   76.2950  -16.1850 N.am  160  SER160     -0.1949
    107  CA        72.6740   75.4400  -16.0000 C.3   160  SER160      0.1924
    108  C         73.0040   74.5880  -17.2450 C.2   160  SER160      0.2314
    109  O         74.1520   74.1590  -17.4240 O.2   160  SER160     -0.2863
    110  CB        72.4780   74.5610  -14.7520 C.3   160  SER160      0.2116
    111  OG        71.3330   73.7220  -14.8690 O.3   160  SER160     -0.2180
    112  N         61.3030   73.2460   -0.4760 N.3   198  LYS198     -0.1231
    113  CA        62.2350   74.0900    0.2580 C.3   198  LYS198      0.1693
    114  C         62.9560   75.1110   -0.6020 C.2   198  LYS198      0.2593
    115  O         63.3520   74.8330   -1.7200 O.2   198  LYS198     -0.2718
    116  CB        63.2920   73.2280    0.9440 C.3   198  LYS198      0.0285
    117  CG        62.7220   72.2080    1.9250 C.3   198  LYS198      0.0035
    118  CD        63.8550   71.5450    2.6750 C.3   198  LYS198      0.0206
    119  CE        63.3560   70.6310    3.7920 C.3   198  LYS198      0.1093
    120  NZ        64.4860   69.8690    4.3790 N.3   198  LYS198     -0.1314
    121  N         63.1890   76.2810   -0.0190 N.am  199  SER199     -0.1939
    122  CA        63.9790   77.3140   -0.6520 C.3   199  SER199      0.2040
    123  C         64.9760   77.8070    0.3730 C.2   199  SER199      0.2485
    124  O         64.6530   77.8100    1.5530 O.2   199  SER199     -0.2729
    125  CB        63.0640   78.4690   -1.0530 C.3   199  SER199      0.2129
    126  OG        62.1710   78.0650   -2.0710 O.3   199  SER199     -0.2179
    127  N         66.1590   78.2510   -0.0640 N.am  200  PRO200     -0.2726
    128  CA        67.1060   78.8110    0.8860 C.3   200  PRO200      0.1402
    129  C         66.6650   80.1290    1.4560 C.2   200  PRO200      0.2269
    130  O         65.8280   80.8260    0.8810 O.2   200  PRO200     -0.2865
    131  CB        68.3360   79.0360    0.0320 C.3   200  PRO200      0.0296
    132  CG        67.7670   79.2890   -1.3310 C.3   200  PRO200      0.0237
    133  CD        66.7070   78.2880   -1.4380 C.3   200  PRO200      0.0939
    134  N         66.7500   84.0870    2.3610 N.3   202  LYS202     -0.1245
    135  CA        67.0620   85.2420    1.5040 C.3   202  LYS202      0.1561
    136  C         67.6230   86.3560    2.3740 C.2   202  LYS202      0.2260
    137  O         67.4110   86.3970    3.5900 O.2   202  LYS202     -0.2867
    138  CB        65.8070   85.7290    0.7690 C.3   202  LYS202      0.0271
    139  CG        65.0610   84.6200   -0.0160 C.3   202  LYS202      0.0035
    140  CD        65.9210   83.9390   -0.9990 C.3   202  LYS202      0.0206
    141  CE        65.1560   82.7750   -1.7070 C.3   202  LYS202      0.1093
    142  NZ        64.1930   83.2920   -2.7280 N.3   202  LYS202     -0.1314
@<TRIPOS>BOND
     1   102   101    2
     2    94    93    2
     3   105   103    1
     4   109   108    2
     5   108   107    1
     6   100   101    1
     7   100   103    1
     8   100    99    1
     9   101   106   am
    10   103   104    1
    11    93    99   am
    12    93    92    1
    13    85    83   ar
    14    85    86   ar
    15   106   107    1
    16    95    92    1
    17    95    96    1
    18   107   110    1
    19    88    86   ar
    20    88    90   ar
    21    83    82   ar
    22    92    91    1
    23    86    84   ar
    24    91    79   am
    25    97    96    1
    26    96    98    1
    27    90    89   ar
    28   111   110    1
    29    82    84   ar
    30    82    81    1
    31    84    87   ar
    32    74    73    2
    33    79    78    1
    34    79    80    2
    35    78    81    1
    36    78    77    1
    37    89    87   ar
    38    62    63    2
    39    62    61    1
    40    60    61    1
    41    73    77   am
    42    73    72    1
    43    61    64    1
    44    52    51    2
    45    47    45   ar
    46    47    48   ar
    47    51    50    1
    48    71    72    1
    49    45    43   ar
    50    72    75    1
    51    70    69   ar
    52    70    68   ar
    53    69    67   ar
    54    68    66   ar
    55    67    65   ar
    56    66    65   ar
    57    48    46   ar
    58    65    64    1
    59    75    76    1
    60    40    41    2
    61    40    39    1
    62    50    49    1
    63    50    53    1
    64    43    42    1
    65    43    44   ar
    66    42    39    1
    67    53    54    1
    68    46    44   ar
    69    39    38    1
    70    30    29    2
    71    54    55   ar
    72    54    56   ar
    73    28    29    1
    74    28    31    1
    75    28    27    1
    76     7     6    1
    77     7     8    1
    78    32    31    1
    79    32    33    1
    80    55    57   ar
    81    56    58   ar
    82    34    33    1
    83    34    35    2
    84    26    25    1
    85     6     5    1
    86    25    22    1
    87    15    14    2
    88    22    23    1
    89    22    21    1
    90    37    35    1
    91    23    24    2
    92    10     9    1
    93    35    36    1
    94     8     9    2
    95    57    59   ar
    96     9    11    1
    97    58    59   ar
    98     5     2    1
    99    14    21   am
   100    14    13    1
   101     2     3    1
   102     2     1    1
   103    12    13    1
   104    12     3   am
   105    13    16    1
   106     3     4    2
   107    16    17    1
   108    17    18    1
   109   142   141    1
   110   126   125    1
   111    18    19    2
   112    18    20   am
   113   115   114    2
   114   141   140    1
   115   133   132    1
   116   133   127    1
   117   132   131    1
   118   125   122    1
   119   140   139    1
   120   122   121    1
   121   122   123    1
   122   114   121   am
   123   114   113    1
   124   112   113    1
   125   127   123   am
   126   127   128    1
   127   139   138    1
   128   131   128    1
   129   113   116    1
   130   123   124    2
   131   138   135    1
   132   130   129    2
   133   128   129    1
   134   116   117    1
   135   135   134    1
   136   135   136    1
   137   117   118    1
   138   136   137    2
   139   118   119    1
   140   119   120    1
