@<TRIPOS>MOLECULE
tmp/3eocA00.pdb
 184 175 0 0 0
SMALL
GASTEIGER

@<TRIPOS>ATOM
      1  N        -11.0200   95.6360   33.0400 N.3     8  GLU8       -0.1245
      2  CA       -10.9690   96.0740   31.6430 C.3     8  GLU8        0.1567
      3  C        -10.0920   95.1520   30.8090 C.2     8  GLU8        0.2260
      4  O         -9.2610   94.4290   31.3520 O.2     8  GLU8       -0.2867
      5  CB       -10.4320   97.5060   31.5480 C.3     8  GLU8        0.0388
      6  CG        -9.0470   97.6950   32.1680 C.3     8  GLU8        0.1160
      7  CD        -8.5630   99.1330   32.1040 C.2     8  GLU8        0.3649
      8  OE1       -9.2580  100.0330   32.6440 O.co2   8  GLU8       -0.2457
      9  OE2       -7.4770   99.3580   31.5160 O.co2   8  GLU8       -0.2457
     10  N         -7.0040   94.5370   28.2480 N.3    10  ILE10      -0.1231
     11  CA        -5.7030   95.1820   28.0580 C.3    10  ILE10       0.1692
     12  C         -4.9050   94.6040   26.8800 C.2    10  ILE10       0.2593
     13  O         -3.6910   94.8060   26.7840 O.2    10  ILE10      -0.2718
     14  CB        -4.8510   95.2210   29.3710 C.3    10  ILE10       0.0266
     15  CG1       -4.7050   93.8290   29.9930 C.3    10  ILE10       0.0019
     16  CG2       -5.4470   96.2080   30.3780 C.3    10  ILE10       0.0020
     17  CD1       -3.6930   93.7660   31.1220 C.3    10  ILE10       0.0001
     18  N         -5.6020   93.9000   25.9860 N.am   11  GLY11      -0.1942
     19  CA        -5.0040   93.3640   24.7570 C.3    11  GLY11       0.2014
     20  C         -5.0780   91.8510   24.6000 C.2    11  GLY11       0.2639
     21  O         -5.1370   91.1140   25.5880 O.2    11  GLY11      -0.2714
     22  N         -5.0880   91.3950   23.3460 N.am   12  GLU12      -0.1963
     23  CA        -4.9890   89.9690   23.0140 C.3    12  GLU12       0.1733
     24  C         -3.5150   89.6010   22.8340 C.2    12  GLU12       0.2616
     25  O         -2.6750   90.4800   22.6130 O.2    12  GLU12      -0.2715
     26  CB        -5.7850   89.6490   21.7400 C.3    12  GLU12       0.0429
     27  CG        -7.3010   89.8210   21.9110 C.3    12  GLU12       0.1163
     28  CD        -7.8200   91.2130   21.5070 C.2    12  GLU12       0.3649
     29  OE1       -7.0340   92.0680   21.0140 O.co2  12  GLU12      -0.2457
     30  OE2       -9.0400   91.4500   21.6820 O.co2  12  GLU12      -0.2457
     31  N         -3.1950   88.3130   22.9380 N.am   13  GLY13      -0.1955
     32  CA        -1.8150   87.8640   22.7460 C.3    13  GLY13       0.1869
     33  C         -1.6130   86.3640   22.8440 C.2    13  GLY13       0.2309
     34  O         -1.6720   85.7910   23.9460 O.2    13  GLY13      -0.2863
     35  N         -6.6320   89.1270   27.3380 N.3    18  VAL18      -0.1245
     36  CA        -6.0880   89.4420   28.6670 C.3    18  VAL18       0.1561
     37  C         -6.8090   90.6400   29.3110 C.2    18  VAL18       0.2260
     38  O         -7.0180   91.6750   28.6740 O.2    18  VAL18      -0.2867
     39  CB        -4.5470   89.6730   28.6290 C.3    18  VAL18       0.0252
     40  CG1       -4.0010   89.9840   30.0090 C.3    18  VAL18       0.0019
     41  CG2       -3.8310   88.4600   28.0680 C.3    18  VAL18       0.0019
     42  N         -7.2440   93.2440   32.8850 N.3    20  LYS20      -0.1245
     43  CA        -6.8260   93.7410   34.1870 C.3    20  LYS20       0.1561
     44  C         -7.9600   93.3960   35.1380 C.2    20  LYS20       0.2260
     45  O         -9.1240   93.6090   34.8090 O.2    20  LYS20      -0.2867
     46  CB        -6.6120   95.2520   34.1510 C.3    20  LYS20       0.0271
     47  CG        -6.1950   95.8520   35.4860 C.3    20  LYS20       0.0035
     48  CD        -6.3190   97.3680   35.4830 C.3    20  LYS20       0.0206
     49  CE        -5.8200   97.9650   36.7960 C.3    20  LYS20       0.1093
     50  NZ        -6.3970   99.3150   37.0720 N.3    20  LYS20      -0.1314
     51  N         -3.3980   90.5230   36.4180 N.3    31  ALA31      -0.1245
     52  CA        -3.7150   90.3630   35.0130 C.3    31  ALA31       0.1562
     53  C         -4.2850   88.9620   34.8190 C.2    31  ALA31       0.2260
     54  O         -3.6100   87.9640   35.1000 O.2    31  ALA31      -0.2867
     55  CB        -2.4800   90.5650   34.1740 C.3    31  ALA31       0.0290
     56  N         -5.6070   86.0340   32.3480 N.3    33  LYS33      -0.1245
     57  CA        -5.4910   85.5280   30.9880 C.3    33  LYS33       0.1561
     58  C         -6.5750   84.4660   30.7930 C.2    33  LYS33       0.2260
     59  O         -6.5100   83.3870   31.3830 O.2    33  LYS33      -0.2867
     60  CB        -4.0990   84.9400   30.7790 C.3    33  LYS33       0.0271
     61  CG        -3.6020   84.9430   29.3550 C.3    33  LYS33       0.0035
     62  CD        -2.0970   84.7620   29.3380 C.3    33  LYS33       0.0206
     63  CE        -1.5090   85.1580   27.9990 C.3    33  LYS33       0.1093
     64  NZ        -0.0190   85.1490   28.0350 N.3    33  LYS33      -0.1314
     65  N          7.7470   87.9450   34.4780 N.3    61  VAL61      -0.1245
     66  CA         6.4250   88.1850   35.0670 C.3    61  VAL61       0.1561
     67  C          5.9270   86.9200   35.7640 C.2    61  VAL61       0.2260
     68  O          5.8900   85.8470   35.1560 O.2    61  VAL61      -0.2867
     69  CB         5.3970   88.6910   34.0230 C.3    61  VAL61       0.0252
     70  CG1        4.0160   88.8370   34.6400 C.3    61  VAL61       0.0019
     71  CG2        5.8330   90.0230   33.4600 C.3    61  VAL61       0.0019
     72  N         -1.8450   86.5000   36.6870 N.3    77  PHE77      -0.1227
     73  CA        -0.4900   87.0330   36.5720 C.3    77  PHE77       0.1736
     74  C         -0.3270   88.2920   37.3900 C.2    77  PHE77       0.2595
     75  O         -1.3050   88.9950   37.6340 O.2    77  PHE77      -0.2718
     76  CB        -0.1850   87.3790   35.1140 C.3    77  PHE77       0.0547
     77  CG         0.1660   86.1940   34.2670 C.ar   77  PHE77      -0.0202
     78  CD1        1.4450   85.6540   34.3050 C.ar   77  PHE77      -0.0042
     79  CD2       -0.7770   85.6260   33.4230 C.ar   77  PHE77      -0.0042
     80  CE1        1.7730   84.5590   33.5260 C.ar   77  PHE77      -0.0003
     81  CE2       -0.4580   84.5280   32.6410 C.ar   77  PHE77      -0.0003
     82  CZ         0.8180   83.9960   32.6900 C.ar   77  PHE77      -0.0000
     83  N          0.9070   88.5970   37.7910 N.am   78  GLU78      -0.1965
     84  CA         1.1940   89.9150   38.3570 C.3    78  GLU78       0.1733
     85  C          0.9400   90.9860   37.3000 C.2    78  GLU78       0.2616
     86  O          1.0670   90.7370   36.1040 O.2    78  GLU78      -0.2715
     87  CB         2.6160   90.0130   38.9300 C.3    78  GLU78       0.0429
     88  CG         3.7490   90.0450   37.9080 C.3    78  GLU78       0.1163
     89  CD         4.9920   90.7720   38.4100 C.2    78  GLU78       0.3649
     90  OE1        4.8720   91.9550   38.8060 O.co2  78  GLU78      -0.2457
     91  OE2        6.0900   90.1660   38.3860 O.co2  78  GLU78      -0.2457
     92  N          0.5550   92.1720   37.7480 N.am   79  PHE79      -0.1960
     93  CA         0.1590   93.2360   36.8390 C.3    79  PHE79       0.1771
     94  C          1.2750   94.2610   36.6620 C.2    79  PHE79       0.2619
     95  O          1.8680   94.7090   37.6400 O.2    79  PHE79      -0.2715
     96  CB        -1.1240   93.9020   37.3510 C.3    79  PHE79       0.0574
     97  CG        -1.5950   95.0480   36.5080 C.ar   79  PHE79      -0.0200
     98  CD1       -2.2450   94.8220   35.3030 C.ar   79  PHE79      -0.0042
     99  CD2       -1.4020   96.3600   36.9290 C.ar   79  PHE79      -0.0042
    100  CE1       -2.6820   95.8870   34.5240 C.ar   79  PHE79      -0.0003
    101  CE2       -1.8390   97.4300   36.1570 C.ar   79  PHE79      -0.0003
    102  CZ        -2.4800   97.1930   34.9530 C.ar   79  PHE79      -0.0000
    103  N          1.5680   94.6130   35.4130 N.am   80  LEU80      -0.1963
    104  CA         2.4550   95.7360   35.1310 C.3    80  LEU80       0.1728
    105  C          1.6980   96.8130   34.3700 C.2    80  LEU80       0.2616
    106  O          0.5630   96.5950   33.9540 O.2    80  LEU80      -0.2715
    107  CB         3.7180   95.2870   34.3980 C.3    80  LEU80       0.0311
    108  CG         4.7600   94.6740   35.3400 C.3    80  LEU80       0.0022
    109  CD1        4.6240   93.1570   35.4130 C.3    80  LEU80       0.0001
    110  CD2        6.1660   95.0540   34.9290 C.3    80  LEU80       0.0001
    111  N          2.3180   97.9730   34.1900 N.am   81  HIS81      -0.1959
    112  CA         1.5740   99.1600   33.7670 C.3    81  HIS81       0.1787
    113  C          1.4090   99.3200   32.2620 C.2    81  HIS81       0.2620
    114  O          0.3490   99.7460   31.8090 O.2    81  HIS81      -0.2715
    115  CB         2.1360  100.4160   34.4360 C.3    81  HIS81       0.0785
    116  CG         2.1760  100.3170   35.9320 C.ar   81  HIS81       0.0821
    117  ND1        3.3490  100.3700   36.6550 N.ar   81  HIS81      -0.2267
    118  CD2        1.1850  100.1210   36.8370 C.ar   81  HIS81       0.1154
    119  CE1        3.0790  100.2310   37.9410 C.ar   81  HIS81       0.1986
    120  NE2        1.7720  100.0800   38.0790 N.ar   81  HIS81      -0.2212
    121  N          2.4420   98.9820   31.4950 N.am   82  GLN82      -0.1963
    122  CA         2.3270   98.9170   30.0340 C.3    82  GLN82       0.1733
    123  C          3.4320   98.0770   29.4010 C.2    82  GLN82       0.2616
    124  O          4.2850   97.5300   30.1030 O.2    82  GLN82      -0.2715
    125  CB         2.2730  100.3150   29.4010 C.3    82  GLN82       0.0408
    126  CG         3.5300  101.1520   29.5380 C.3    82  GLN82       0.0908
    127  CD         3.3150  102.5940   29.0960 C.2    82  GLN82       0.2608
    128  OE1        4.0850  103.1290   28.3000 O.2    82  GLN82      -0.2717
    129  NE2        2.2610  103.2290   29.6110 N.am   82  GLN82      -0.0878
    130  N          3.3960   97.9760   28.0730 N.am   83  ASP83      -0.1971
    131  CA         4.4330   97.2860   27.3070 C.3    83  ASP83       0.1709
    132  C          5.4820   98.2740   26.7990 C.2    83  ASP83       0.2293
    133  O          5.2080   99.4690   26.6820 O.2    83  ASP83      -0.2864
    134  CB         3.8220   96.4990   26.1410 C.3    83  ASP83       0.1436
    135  CG         3.0500   97.3850   25.1770 C.2    83  ASP83       0.3671
    136  OD1        3.6280   97.7860   24.1410 O.co2  83  ASP83      -0.2456
    137  OD2        1.8680   97.6930   25.4620 O.co2  83  ASP83      -0.2456
    138  N          4.6090  100.4570   23.6360 N.3    86  LYS86      -0.1245
    139  CA         3.7990  101.6470   23.8810 C.3    86  LYS86       0.1561
    140  C          4.6130  102.7770   24.5040 C.2    86  LYS86       0.2260
    141  O          4.3620  103.9480   24.2340 O.2    86  LYS86      -0.2867
    142  CB         2.5950  101.3200   24.7630 C.3    86  LYS86       0.0271
    143  CG         1.4540  102.3080   24.6090 C.3    86  LYS86       0.0035
    144  CD         0.5550  102.2930   25.8210 C.3    86  LYS86       0.0206
    145  CE        -0.5670  103.3200   25.6920 C.3    86  LYS86       0.1093
    146  NZ        -1.4800  103.2950   26.8790 N.3    86  LYS86      -0.1314
    147  N          6.4560   94.4630   22.5730 N.3   128  GLN128     -0.1231
    148  CA         5.1080   94.2490   23.1230 C.3   128  GLN128      0.1698
    149  C          5.0040   93.0200   24.0370 C.2   128  GLN128      0.2592
    150  O          3.9450   92.7480   24.6080 O.2   128  GLN128     -0.2718
    151  CB         4.0210   94.2520   22.0330 C.3   128  GLN128      0.0381
    152  CG         4.3090   93.4070   20.7950 C.3   128  GLN128      0.0905
    153  CD         5.1800   94.1150   19.7420 C.2   128  GLN128      0.2608
    154  OE1        5.7520   95.1810   19.9890 O.2   128  GLN128     -0.2717
    155  NE2        5.2820   93.5080   18.5600 N.am  128  GLN128     -0.0878
    156  N          6.1140   92.2960   24.1790 N.am  129  ASN129     -0.1974
    157  CA         6.2270   91.1750   25.1140 C.3   129  ASN129      0.1688
    158  C          7.0090   91.5380   26.3670 C.2   129  ASN129      0.2292
    159  O          7.1320   90.7300   27.2880 O.2   129  ASN129     -0.2864
    160  CB         6.8850   89.9690   24.4390 C.3   129  ASN129      0.1181
    161  CG         5.8840   89.0870   23.7140 C.2   129  ASN129      0.2629
    162  OD1        4.6940   89.0630   24.0460 O.2   129  ASN129     -0.2716
    163  ND2        6.3640   88.3450   22.7220 N.am  129  ASN129     -0.0877
    164  N          7.3810   94.0700   29.6030 N.3   131  LEU131     -0.1245
    165  CA         6.4900   94.8860   30.4230 C.3   131  LEU131      0.1561
    166  C          7.2290   95.7080   31.4680 C.2   131  LEU131      0.2260
    167  O          8.1650   95.2280   32.1020 O.2   131  LEU131     -0.2867
    168  CB         5.4270   94.0100   31.0870 C.3   131  LEU131      0.0270
    169  CG         4.5330   93.1830   30.1580 C.3   131  LEU131      0.0019
    170  CD1        3.6740   92.2580   30.9700 C.3   131  LEU131      0.0001
    171  CD2        3.6630   94.0680   29.2860 C.3   131  LEU131      0.0001
    172  N          7.5320   88.6200   29.3590 N.3   141  ALA141     -0.1231
    173  CA         6.1550   88.1280   29.4020 C.3   141  ALA141      0.1694
    174  C          5.7830   87.3310   28.1510 C.2   141  ALA141      0.2592
    175  O          6.5910   87.1910   27.2340 O.2   141  ALA141     -0.2718
    176  CB         5.1900   89.2820   29.6090 C.3   141  ALA141      0.0304
    177  N          4.5480   86.8290   28.1270 N.am  142  ASP142     -0.1974
    178  CA         4.0480   85.9120   27.0880 C.3   142  ASP142      0.1709
    179  C          5.0160   84.7610   26.7730 C.2   142  ASP142      0.2293
    180  O          5.8590   84.8620   25.8750 O.2   142  ASP142     -0.2864
    181  CB         3.6270   86.6540   25.8040 C.3   142  ASP142      0.1436
    182  CG         2.7520   85.7910   24.8790 C.2   142  ASP142      0.3671
    183  OD1        3.2330   84.7540   24.3730 O.co2 142  ASP142     -0.2456
    184  OD2        1.5760   86.1470   24.6490 O.co2 142  ASP142     -0.2456
@<TRIPOS>BOND
     1   155   153   am
     2   153   154    2
     3   153   152    1
     4   152   151    1
     5    29    28   ar
     6    28    30   ar
     7    28    27    1
     8    26    27    1
     9    26    23    1
    10   151   148    1
    11   147   148    1
    12    25    24    2
    13   163   161   am
    14    32    33    1
    15    32    31    1
    16    24    31   am
    17    24    23    1
    18    33    34    2
    19    23    22    1
    20   148   149    1
    21    22    20   am
    22   138   139    1
    23   161   162    2
    24   161   160    1
    25   139   140    1
    26   139   142    1
    27   149   156   am
    28   149   150    2
    29   136   135   ar
    30   156   157    1
    31   141   140    2
    32   183   182   ar
    33   160   157    1
    34    20    19    1
    35    20    21    2
    36   143   142    1
    37   143   144    1
    38   184   182   ar
    39    19    18    1
    40   182   181    1
    41   157   158    1
    42   135   137   ar
    43   135   134    1
    44   145   144    1
    45   145   146    1
    46   181   178    1
    47   180   179    2
    48    18    12   am
    49   134   131    1
    50   158   159    2
    51   133   132    2
    52   179   178    1
    53    13    12    2
    54   132   131    1
    55    12    11    1
    56   178   177    1
    57   175   174    2
    58   131   130    1
    59    35    36    1
    60    63    64    1
    61    63    62    1
    62    11    10    1
    63    11    14    1
    64    41    39    1
    65   130   123   am
    66   177   174   am
    67   174   173    1
    68   128   127    2
    69    39    36    1
    70    39    40    1
    71    36    37    1
    72    38    37    2
    73   127   126    1
    74   127   129   am
    75   171   169    1
    76    62    61    1
    77    61    60    1
    78   172   173    1
    79    14    15    1
    80    14    16    1
    81   123   122    1
    82   123   124    2
    83   125   126    1
    84   125   122    1
    85   173   176    1
    86   164   165    1
    87    15    17    1
    88   122   121    1
    89   169   170    1
    90   169   168    1
    91   165   168    1
    92   165   166    1
    93    60    57    1
    94    58    57    1
    95    58    59    2
    96     3     4    2
    97     3     2    1
    98    57    56    1
    99   166   167    2
   100   121   113   am
   101     9     7   ar
   102     5     2    1
   103     5     6    1
   104     2     1    1
   105   114   113    2
   106     7     6    1
   107     7     8   ar
   108   113   112    1
   109    81    82   ar
   110    81    79   ar
   111    82    80   ar
   112    42    43    1
   113    79    77   ar
   114    71    69    1
   115    80    78   ar
   116   112   111    1
   117   112   115    1
   118   106   105    2
   119    69    70    1
   120    69    66    1
   121    46    43    1
   122    46    47    1
   123    55    52    1
   124    43    44    1
   125   111   105   am
   126    77    78   ar
   127    77    76    1
   128   105   104    1
   129   107   104    1
   130   107   108    1
   131   115   116    1
   132    65    66    1
   133   100   102   ar
   134   100    98   ar
   135    45    44    2
   136    53    52    1
   137    53    54    2
   138   110   108    1
   139   102   101   ar
   140    52    51    1
   141    66    67    1
   142    76    73    1
   143   104   103    1
   144    68    67    2
   145    98    97   ar
   146   108   109    1
   147   103    94   am
   148    48    47    1
   149    48    49    1
   150   116   117   ar
   151   116   118   ar
   152    86    85    2
   153   101    99   ar
   154    97    99   ar
   155    97    96    1
   156    73    72    1
   157    73    74    1
   158   117   119   ar
   159    94    93    1
   160    94    95    2
   161    49    50    1
   162   118   120   ar
   163    93    96    1
   164    93    92    1
   165    85    92   am
   166    85    84    1
   167    74    75    2
   168    74    83   am
   169    83    84    1
   170    88    89    1
   171    88    87    1
   172   119   120   ar
   173    84    87    1
   174    91    89   ar
   175    89    90   ar
