@<TRIPOS>MOLECULE
tmp/3eofA00.pdb
 143 137 0 0 0
SMALL
GASTEIGER

@<TRIPOS>ATOM
      1  N         18.1930   -2.4640   -1.9610 N.3     7  ARG7       -0.1231
      2  CA        19.1050   -1.3760   -1.7640 C.3     7  ARG7        0.1694
      3  C         20.5630   -1.8230   -1.9390 C.2     7  ARG7        0.2592
      4  O         20.9440   -2.9750   -1.7660 O.2     7  ARG7       -0.2718
      5  CB        18.9200   -0.6960   -0.3820 C.3     7  ARG7        0.0321
      6  CG        19.5050   -1.4920    0.8270 C.3     7  ARG7        0.0489
      7  CD        19.7580   -0.6400    2.0200 C.3     7  ARG7        0.2205
      8  NE        20.6780    0.4150    1.6880 N.pl3   7  ARG7       -0.0865
      9  CZ        22.0070    0.2910    1.6460 C.cat   7  ARG7        0.5346
     10  NH1       22.5930   -0.8500    1.9610 N.pl3   7  ARG7        0.1354
     11  NH2       22.7510    1.3260    1.3060 N.pl3   7  ARG7        0.1354
     12  N         21.3630   -0.8580   -2.3150 N.am    8  ARG8       -0.1966
     13  CA        22.7610   -1.0590   -2.4200 C.3     8  ARG8        0.1729
     14  C         23.3890    0.2980   -2.2340 C.2     8  ARG8        0.2616
     15  O         22.7570    1.3270   -2.4990 O.2     8  ARG8       -0.2715
     16  CB        23.1020   -1.7120   -3.7630 C.3     8  ARG8        0.0348
     17  CG        22.7730   -0.8970   -4.9430 C.3     8  ARG8        0.0492
     18  CD        22.4330   -1.7840   -6.0780 C.3     8  ARG8        0.2205
     19  NE        21.1170   -2.3830   -5.9250 N.pl3   8  ARG8       -0.0865
     20  CZ        20.6870   -3.4250   -6.6330 C.cat   8  ARG8        0.5346
     21  NH1       21.4810   -4.0060   -7.5260 N.pl3   8  ARG8        0.1354
     22  NH2       19.4730   -3.9210   -6.4330 N.pl3   8  ARG8        0.1354
     23  N         24.6330    0.2750   -1.7800 N.am    9  THR9       -0.1951
     24  CA        25.4000    1.4650   -1.5480 C.3     9  THR9        0.1897
     25  C         25.7770    2.0470   -2.9190 C.2     9  THR9        0.2313
     26  O         26.1690    1.3120   -3.8250 O.2     9  THR9       -0.2863
     27  CB        26.7120    1.1590   -0.6970 C.3     9  THR9        0.1794
     28  OG1       26.3600    0.8970    0.6630 O.3     9  THR9       -0.2208
     29  CG2       27.6220    2.3330   -0.6860 C.3     9  THR9        0.0378
     30  N         28.1750    4.9230   -4.7120 N.3    11  ARG11      -0.1245
     31  CA        29.4000    5.6820   -4.5460 C.3    11  ARG11       0.1563
     32  C         29.7300    6.6110   -5.7250 C.2    11  ARG11       0.2260
     33  O         30.7440    7.2970   -5.7020 O.2    11  ARG11      -0.2867
     34  CB        30.5690    4.7020   -4.3820 C.3    11  ARG11       0.0307
     35  CG        30.5010    3.8380   -3.1460 C.3    11  ARG11       0.0489
     36  CD        31.5850    2.7960   -3.1380 C.3    11  ARG11       0.2205
     37  NE        31.5720    2.0340   -1.8940 N.pl3  11  ARG11      -0.0865
     38  CZ        30.8360    0.9460   -1.6470 C.cat  11  ARG11       0.5346
     39  NH1       29.9960    0.4450   -2.5400 N.pl3  11  ARG11       0.1354
     40  NH2       30.9290    0.3520   -0.4710 N.pl3  11  ARG11       0.1354
     41  N         38.6290    9.1130   -0.2060 N.3    61  GLN61      -0.1245
     42  CA        37.6790    8.2650   -0.8970 C.3    61  GLN61       0.1566
     43  C         36.9580    9.2370   -1.7590 C.2    61  GLN61       0.2260
     44  O         36.5830   10.3050   -1.2820 O.2    61  GLN61      -0.2867
     45  CB        36.7320    7.5860    0.0540 C.3    61  GLN61       0.0367
     46  CG        37.4120    6.6460    1.0020 C.3    61  GLN61       0.0905
     47  CD        36.4300    5.9490    1.8820 C.2    61  GLN61       0.2608
     48  OE1       35.7750    5.0200    1.4300 O.2    61  GLN61      -0.2717
     49  NE2       36.3120    6.3870    3.1420 N.am   61  GLN61      -0.0878
     50  N         26.2570    6.4030    0.8180 N.3   122  CYS122     -0.1221
     51  CA        27.3980    5.6030    1.2010 C.3   122  CYS122      0.1808
     52  C         27.8630    6.1300    2.5450 C.2   122  CYS122      0.2601
     53  O         28.0340    7.3360    2.7250 O.2   122  CYS122     -0.2717
     54  CB        28.5330    5.7230    0.1980 C.3   122  CYS122      0.0970
     55  SG        29.9120    4.6580    0.5920 S.3   122  CYS122     -0.0800
     56  N         28.0280    5.2420    3.5120 N.am  123  TYR123     -0.1962
     57  CA        28.5430    5.6370    4.7960 C.3   123  TYR123      0.1771
     58  C         30.0440    5.6280    4.6710 C.2   123  TYR123      0.2619
     59  O         30.5760    4.8210    3.9260 O.2   123  TYR123     -0.2715
     60  CB        28.1560    4.6300    5.8560 C.3   123  TYR123      0.0574
     61  CG        26.7070    4.7130    6.3790 C.ar  123  TYR123     -0.0198
     62  CD1       26.4100    5.4830    7.4830 C.ar  123  TYR123     -0.0009
     63  CD2       25.7000    3.9790    5.8310 C.ar  123  TYR123     -0.0009
     64  CE1       25.1280    5.5260    8.0260 C.ar  123  TYR123      0.0417
     65  CE2       24.3910    4.0310    6.3620 C.ar  123  TYR123      0.0417
     66  CZ        24.1420    4.8270    7.4900 C.ar  123  TYR123      0.1957
     67  OH        22.8940    4.9580    8.0880 O.3   123  TYR123     -0.2866
     68  N         30.7130    6.5240    5.3850 N.am  124  LEU124     -0.1963
     69  CA        32.1660    6.5200    5.4510 C.3   124  LEU124      0.1728
     70  C         32.5090    6.1320    6.9280 C.2   124  LEU124      0.2617
     71  O         32.1510    6.8570    7.9440 O.2   124  LEU124     -0.2715
     72  CB        32.7870    7.8520    5.0210 C.3   124  LEU124      0.0311
     73  CG        32.2420    8.5620    3.7690 C.3   124  LEU124      0.0022
     74  CD1       32.7600   10.0030    3.7350 C.3   124  LEU124      0.0001
     75  CD2       32.5430    7.8010    2.4530 C.3   124  LEU124      0.0001
     76  N         33.1840    4.9750    7.0210 N.am  125  GLY125     -0.1940
     77  CA        33.6450    4.4010    8.2940 C.3   125  GLY125      0.2014
     78  C         34.8940    5.0980    8.7800 C.2   125  GLY125      0.2639
     79  O         35.3270    4.9730    9.9560 O.2   125  GLY125     -0.2714
     80  N         35.4620    5.8790    7.8740 N.am  126  THR126     -0.1950
     81  CA        36.6580    6.6560    8.1660 C.3   126  THR126      0.1897
     82  C         36.4410    7.7570    9.2100 C.2   126  THR126      0.2313
     83  O         37.4040    8.3300    9.7470 O.2   126  THR126     -0.2863
     84  CB        37.1960    7.2180    6.8700 C.3   126  THR126      0.1794
     85  OG1       36.0950    7.7330    6.0920 O.3   126  THR126     -0.2208
     86  CG2       37.8540    6.0970    6.0930 C.3   126  THR126      0.0378
     87  N         29.2490    9.2110   12.2270 N.3   147  THR147     -0.1218
     88  CA        29.4270    8.7210   10.8670 C.3   147  THR147      0.1862
     89  C         29.1510    9.8320    9.8390 C.2   147  THR147      0.2287
     90  O         28.6090   10.8740   10.1790 O.2   147  THR147     -0.2866
     91  CB        28.6200    7.4880   10.5410 C.3   147  THR147      0.1770
     92  OG1       29.1010    6.9480    9.2900 O.3   147  THR147     -0.2211
     93  CG2       27.1610    7.8410   10.4530 C.3   147  THR147      0.0375
     94  N         24.1030   -5.9670   -6.4150 N.3   160  GLN160     -0.1231
     95  CA        23.8630   -5.9540   -4.9870 C.3   160  GLN160      0.1698
     96  C         24.8520   -6.9050   -4.3300 C.2   160  GLN160      0.2592
     97  O         25.2030   -7.9310   -4.9090 O.2   160  GLN160     -0.2718
     98  CB        22.4500   -6.3990   -4.6970 C.3   160  GLN160      0.0381
     99  CG        21.9960   -6.0710   -3.3190 C.3   160  GLN160      0.0905
    100  CD        20.5250   -6.3240   -3.1270 C.2   160  GLN160      0.2608
    101  OE1       20.0080   -7.3420   -3.5460 O.2   160  GLN160     -0.2717
    102  NE2       19.8530   -5.4060   -2.4530 N.am  160  GLN160     -0.0878
    103  N         25.3580   -6.5480   -3.1590 N.am  161  VAL161     -0.1980
    104  CA        26.2720   -7.4570   -2.4920 C.3   161  VAL161      0.1595
    105  C         25.4230   -8.4700   -1.6810 C.2   161  VAL161      0.2287
    106  O         24.2440   -8.2680   -1.4270 O.2   161  VAL161     -0.2864
    107  CB        27.3670   -6.7370   -1.6390 C.3   161  VAL161      0.0276
    108  CG1       27.8320   -5.4520   -2.3200 C.3   161  VAL161      0.0022
    109  CG2       26.8760   -6.4370   -0.3290 C.3   161  VAL161      0.0022
    110  N         24.3440  -11.0630    1.5200 N.3   163  ARG163     -0.1245
    111  CA        24.1490  -11.0870    2.9320 C.3   163  ARG163      0.1563
    112  C         24.1000  -12.5560    3.3490 C.2   163  ARG163      0.2260
    113  O         23.8000  -13.4480    2.5360 O.2   163  ARG163     -0.2867
    114  CB        22.8550  -10.3840    3.3080 C.3   163  ARG163      0.0307
    115  CG        22.9370   -8.8680    3.1460 C.3   163  ARG163      0.0489
    116  CD        23.8780   -8.2510    4.1140 C.3   163  ARG163      0.2205
    117  NE        23.7180   -6.8060    4.0560 N.pl3 163  ARG163     -0.0865
    118  CZ        24.3260   -5.9910    3.2120 C.cat 163  ARG163      0.5346
    119  NH1       25.2210   -6.4200    2.3340 N.pl3 163  ARG163      0.1354
    120  NH2       24.0410   -4.7100    3.2700 N.pl3 163  ARG163      0.1354
    121  N         42.4100   -5.0810    5.5910 N.3   216  ARG216     -0.1231
    122  CA        41.3580   -4.0850    5.8030 C.3   216  ARG216      0.1694
    123  C         41.2210   -3.5810    7.2390 C.2   216  ARG216      0.2592
    124  O         41.2060   -2.3820    7.4800 O.2   216  ARG216     -0.2718
    125  CB        39.9780   -4.6230    5.3620 C.3   216  ARG216      0.0321
    126  CG        39.7760   -4.8880    3.8870 C.3   216  ARG216      0.0489
    127  CD        39.5280   -3.6440    3.0200 C.3   216  ARG216      0.2205
    128  NE        38.3390   -2.8530    3.4070 N.pl3 216  ARG216     -0.0865
    129  CZ        37.0580   -3.1910    3.1960 C.cat 216  ARG216      0.5346
    130  NH1       36.7250   -4.3470    2.6380 N.pl3 216  ARG216      0.1354
    131  NH2       36.0870   -2.3750    3.5750 N.pl3 216  ARG216      0.1354
    132  N         41.0880   -4.5020    8.1870 N.am  217  TYR217     -0.1976
    133  CA        40.7910   -4.1250    9.5460 C.3   217  TYR217      0.1639
    134  C         41.6780   -4.9270   10.4170 C.2   217  TYR217      0.2290
    135  O         41.2430   -5.9080   11.0350 O.2   217  TYR217     -0.2864
    136  CB        39.3220   -4.4150    9.8570 C.3   217  TYR217      0.0560
    137  CG        38.3350   -3.8020    8.8680 C.ar  217  TYR217     -0.0198
    138  CD1       38.1310   -2.4120    8.8050 C.ar  217  TYR217     -0.0009
    139  CD2       37.5910   -4.6090    8.0240 C.ar  217  TYR217     -0.0009
    140  CE1       37.2130   -1.8570    7.9050 C.ar  217  TYR217      0.0417
    141  CE2       36.6820   -4.0690    7.1310 C.ar  217  TYR217      0.0417
    142  CZ        36.5070   -2.7040    7.0640 C.ar  217  TYR217      0.1957
    143  OH        35.5920   -2.2050    6.1630 O.3   217  TYR217     -0.2866
@<TRIPOS>BOND
     1    21    20    1
     2    20    22    1
     3    20    19    2
     4    94    95    1
     5    18    19    1
     6    18    17    1
     7    32    33    2
     8    32    31    1
     9    95    98    1
    10    95    96    1
    11    17    16    1
    12    97    96    2
    13    30    31    1
    14    98    99    1
    15    31    34    1
    16    34    35    1
    17    96   103   am
    18    26    25    2
    19    16    13    1
    20   101   100    2
    21    99   100    1
    22   103   104    1
    23    35    36    1
    24    36    37    1
    25   100   102   am
    26    25    24    1
    27    39    38    1
    28    15    14    2
    29   104   105    1
    30   104   107    1
    31    13    12    1
    32    13    14    1
    33   108   107    1
    34    12     3   am
    35    14    23   am
    36     1     2    1
    37     3     4    2
    38     3     2    1
    39    37    38    2
    40    23    24    1
    41     2     5    1
    42    43    44    2
    43    43    42    1
    44   105   106    2
    45    38    40    1
    46   107   109    1
    47    24    27    1
    48    42    41    1
    49    42    45    1
    50    27    29    1
    51    27    28    1
    52     5     6    1
    53    45    46    1
    54    54    55    1
    55    54    51    1
    56    50    51    1
    57     6     7    1
    58    46    47    1
    59    51    52    1
    60    11     9    1
    61    48    47    2
    62   110   111    1
    63     9     8    2
    64     9    10    1
    65     8     7    1
    66    47    49   am
    67   119   118    1
    68    75    73    1
    69   113   112    2
    70    52    53    2
    71    52    56   am
    72   130   129    1
    73   111   114    1
    74   111   112    1
    75   127   128    1
    76   127   126    1
    77   115   114    1
    78   115   116    1
    79   129   128    2
    80   129   131    1
    81   118   120    1
    82   118   117    2
    83    56    57    1
    84    74    73    1
    85    73    72    1
    86   126   125    1
    87    59    58    2
    88   117   116    1
    89    58    57    1
    90    58    68   am
    91    57    60    1
    92    72    69    1
    93   125   122    1
    94    68    69    1
    95    69    70    1
    96   121   122    1
    97   122   123    1
    98    63    65   ar
    99    63    61   ar
   100    60    61    1
   101    85    84    1
   102    86    84    1
   103   143   142    1
   104    65    66   ar
   105    61    62   ar
   106    84    81    1
   107    70    76   am
   108    70    71    2
   109    76    77    1
   110   142   141   ar
   111   142   140   ar
   112   141   139   ar
   113   123   124    2
   114   123   132   am
   115    62    64   ar
   116    66    64   ar
   117    66    67    1
   118    80    81    1
   119    80    78   am
   120   140   138   ar
   121   139   137   ar
   122    81    82    1
   123   132   133    1
   124    77    78    1
   125    78    79    2
   126   138   137   ar
   127   137   136    1
   128    82    83    2
   129    92    91    1
   130   133   136    1
   131   133   134    1
   132    89    90    2
   133    89    88    1
   134   134   135    2
   135    93    91    1
   136    91    88    1
   137    88    87    1
