@<TRIPOS>MOLECULE
tmp/3eojA06.pdb
 146 144 0 0 0
SMALL
GASTEIGER

@<TRIPOS>ATOM
      1  N         57.3610   46.3010   42.9210 N.3    34  ALA34      -0.1231
      2  CA        58.3180   45.7000   42.0400 C.3    34  ALA34       0.1694
      3  C         58.7850   46.6590   40.9530 C.2    34  ALA34       0.2592
      4  O         59.6600   46.2980   40.1490 O.2    34  ALA34      -0.2718
      5  CB        57.7060   44.4690   41.3540 C.3    34  ALA34       0.0304
      6  N         58.2230   47.8660   40.8870 N.am   35  ILE35      -0.1966
      7  CA        58.6300   48.8090   39.8260 C.3    35  ILE35       0.1712
      8  C         60.1030   49.1380   39.9750 C.2    35  ILE35       0.2458
      9  O         60.5350   49.4890   41.0860 O.2    35  ILE35      -0.2730
     10  CB        57.7820   50.0900   39.8730 C.3    35  ILE35       0.0289
     11  CG1       56.2900   49.8490   40.1540 C.3    35  ILE35       0.0022
     12  CG2       57.9420   50.8860   38.5690 C.3    35  ILE35       0.0023
     13  CD1       55.5970   48.8610   39.2360 C.3    35  ILE35       0.0001
     14  N         60.9060   49.0950   38.9040 N.am   36  PRO36      -0.2727
     15  CA        62.3590   49.3850   39.0260 C.3    36  PRO36       0.1402
     16  C         62.7120   50.8690   39.0830 C.2    36  PRO36       0.2269
     17  O         63.8770   51.2400   39.0920 O.2    36  PRO36      -0.2865
     18  CB        62.9340   48.6310   37.8470 C.3    36  PRO36       0.0296
     19  CG        61.8500   48.7040   36.8110 C.3    36  PRO36       0.0237
     20  CD        60.5950   48.5270   37.5900 C.3    36  PRO36       0.0939
     21  N         54.7380   46.1640   24.1550 N.3   179  PHE179     -0.1227
     22  CA        54.5300   45.5680   25.4650 C.3   179  PHE179      0.1736
     23  C         55.7900   45.6630   26.2920 C.2   179  PHE179      0.2595
     24  O         56.4850   44.7000   26.6300 O.2   179  PHE179     -0.2718
     25  CB        54.0450   44.1110   25.3120 C.3   179  PHE179      0.0547
     26  CG        52.7420   44.1200   24.5090 C.ar  179  PHE179     -0.0202
     27  CD1       51.6120   44.6750   25.0510 C.ar  179  PHE179     -0.0042
     28  CD2       52.6900   43.6200   23.2160 C.ar  179  PHE179     -0.0042
     29  CE1       50.4320   44.7500   24.3410 C.ar  179  PHE179     -0.0003
     30  CE2       51.5020   43.6910   22.5090 C.ar  179  PHE179     -0.0003
     31  CZ        50.3850   44.2780   23.0510 C.ar  179  PHE179     -0.0000
     32  N         56.1100   46.9380   26.6360 N.am  180  ILE180     -0.1966
     33  CA        57.3420   47.2920   27.2920 C.3   180  ILE180      0.1727
     34  C         57.5040   46.6060   28.6350 C.2   180  ILE180      0.2617
     35  O         56.5550   46.3490   29.3910 O.2   180  ILE180     -0.2715
     36  CB        57.4090   48.8360   27.4450 C.3   180  ILE180      0.0290
     37  CG1       58.7810   49.3090   27.8840 C.3   180  ILE180      0.0022
     38  CG2       56.3090   49.3510   28.3520 C.3   180  ILE180      0.0023
     39  CD1       58.9520   50.8110   27.8580 C.3   180  ILE180      0.0001
     40  N         58.7560   46.3100   28.9940 N.am  181  GLY181     -0.1941
     41  CA        59.0750   45.8320   30.3170 C.3   181  GLY181      0.1998
     42  C         58.3840   44.5230   30.5880 C.2   181  GLY181      0.2481
     43  O         58.3540   43.6660   29.6930 O.2   181  GLY181     -0.2729
     44  N         57.7930   44.3210   31.7580 N.am  182  PRO182     -0.2715
     45  CA        57.1540   43.0600   32.1070 C.3   182  PRO182      0.1536
     46  C         55.8330   42.8400   31.3930 C.2   182  PRO182      0.2598
     47  O         55.2380   41.7610   31.5510 O.2   182  PRO182     -0.2715
     48  CB        56.9390   43.1080   33.6140 C.3   182  PRO182      0.0310
     49  CG        56.9900   44.4810   33.9360 C.3   182  PRO182      0.0237
     50  CD        57.7640   45.2680   32.8930 C.3   182  PRO182      0.0939
     51  N         55.3630   43.8130   30.6280 N.am  183  ALA183     -0.1978
     52  CA        54.1200   43.6030   29.9040 C.3   183  ALA183      0.1597
     53  C         54.2120   42.4320   28.9380 C.2   183  ALA183      0.2287
     54  O         53.2720   41.6780   28.7590 O.2   183  ALA183     -0.2864
     55  CB        53.6680   44.8510   29.1900 C.3   183  ALA183      0.0319
     56  N         53.6350   39.0660   30.4760 N.3   186  ALA186     -0.1231
     57  CA        52.2760   38.9360   30.9970 C.3   186  ALA186      0.1694
     58  C         51.3080   38.4250   29.9400 C.2   186  ALA186      0.2591
     59  O         50.2820   37.8120   30.3080 O.2   186  ALA186     -0.2718
     60  CB        51.8150   40.2570   31.5570 C.3   186  ALA186      0.0304
     61  N         51.5660   38.6730   28.6690 N.am  187  ILE187     -0.1980
     62  CA        50.6670   38.2150   27.6150 C.3   187  ILE187      0.1595
     63  C         50.4680   36.7060   27.7340 C.2   187  ILE187      0.2287
     64  O         49.3470   36.1860   27.9070 O.2   187  ILE187     -0.2864
     65  CB        51.2000   38.6150   26.2250 C.3   187  ILE187      0.0276
     66  CG1       51.3980   40.1270   26.0600 C.3   187  ILE187      0.0022
     67  CG2       50.2950   38.0340   25.1350 C.3   187  ILE187      0.0022
     68  CD1       52.2680   40.4880   24.8720 C.3   187  ILE187      0.0001
     69  N         46.9960   34.6500   26.6240 N.3   192  GLN192     -0.1245
     70  CA        46.6710   35.6270   25.6200 C.3   192  GLN192      0.1566
     71  C         47.7220   35.5490   24.5070 C.2   192  GLN192      0.2260
     72  O         48.8540   35.0940   24.7210 O.2   192  GLN192     -0.2867
     73  CB        46.6230   37.0070   26.3040 C.3   192  GLN192      0.0367
     74  CG        45.9990   38.1540   25.5130 C.3   192  GLN192      0.0905
     75  CD        45.6850   39.3500   26.3800 C.2   192  GLN192      0.2608
     76  OE1       46.0340   39.4020   27.5660 O.2   192  GLN192     -0.2717
     77  NE2       45.0260   40.3490   25.8200 N.am  192  GLN192     -0.0878
     78  N         48.9830   38.1480   21.0590 N.3   194  ILE194     -0.1245
     79  CA        48.8930   39.3570   20.2700 C.3   194  ILE194      0.1561
     80  C         49.4120   39.0430   18.8800 C.2   194  ILE194      0.2260
     81  O         50.5690   38.6110   18.7450 O.2   194  ILE194     -0.2867
     82  CB        49.6930   40.5370   20.8570 C.3   194  ILE194      0.0252
     83  CG1       49.4420   40.7700   22.3520 C.3   194  ILE194      0.0019
     84  CG2       49.4750   41.8000   20.0140 C.3   194  ILE194      0.0019
     85  CD1       48.0060   41.1480   22.6700 C.3   194  ILE194      0.0001
     86  N         47.0470   54.9710   43.8020 N.3   251  PHE251     -0.1241
     87  CA        48.0130   54.3060   44.6360 C.3   251  PHE251      0.1605
     88  C         49.2580   55.1810   44.7880 C.2   251  PHE251      0.2264
     89  O         49.5680   56.0280   43.9720 O.2   251  PHE251     -0.2867
     90  CB        48.4080   52.9310   44.0940 C.3   251  PHE251      0.0534
     91  CG        49.1930   52.8990   42.8090 C.ar  251  PHE251     -0.0203
     92  CD1       50.5410   53.1860   42.8080 C.ar  251  PHE251     -0.0042
     93  CD2       48.6260   52.5770   41.6010 C.ar  251  PHE251     -0.0042
     94  CE1       51.2930   53.1150   41.6380 C.ar  251  PHE251     -0.0003
     95  CE2       49.3170   52.4770   40.4450 C.ar  251  PHE251     -0.0003
     96  CZ        50.6540   52.7760   40.4590 C.ar  251  PHE251     -0.0000
     97  N         41.9980   38.0430   34.5470 N.3   286  ILE286     -0.1231
     98  CA        43.2780   38.7200   34.2130 C.3   286  ILE286      0.1678
     99  C         43.7760   39.5320   35.3770 C.2   286  ILE286      0.2434
    100  O         44.9870   39.4870   35.6130 O.2   286  ILE286     -0.2733
    101  CB        43.1220   39.5100   32.9120 C.3   286  ILE286      0.0265
    102  CG1       43.0340   38.5660   31.7010 C.3   286  ILE286      0.0019
    103  CG2       44.2330   40.5330   32.7440 C.3   286  ILE286      0.0020
    104  CD1       44.2970   37.8300   31.3740 C.3   286  ILE286      0.0001
    105  N         42.9920   40.3060   36.1070 N.am  287  PRO287     -0.2729
    106  CA        43.6010   41.0640   37.2310 C.3   287  PRO287      0.1401
    107  C         44.3200   40.1690   38.2090 C.2   287  PRO287      0.2269
    108  O         45.3910   40.4970   38.7270 O.2   287  PRO287     -0.2865
    109  CB        42.3750   41.7450   37.8550 C.3   287  PRO287      0.0296
    110  CG        41.3970   41.9180   36.7190 C.3   287  PRO287      0.0237
    111  CD        41.5730   40.6770   35.8840 C.3   287  PRO287      0.0939
    112  N         47.5450   38.5900   36.3880 N.3   290  HIS290     -0.1226
    113  CA        48.5990   39.5950   36.2090 C.3   290  HIS290      0.1752
    114  C         49.1490   40.1170   37.5340 C.2   290  HIS290      0.2596
    115  O         50.3610   40.2030   37.7020 O.2   290  HIS290     -0.2718
    116  CB        48.0820   40.7420   35.3560 C.3   290  HIS290      0.0759
    117  CG        47.9170   40.4240   33.9040 C.ar  290  HIS290      0.0818
    118  ND1       47.6110   41.4100   32.9840 N.ar  290  HIS290     -0.2268
    119  CD2       48.0130   39.2530   33.2490 C.ar  290  HIS290      0.1154
    120  CE1       47.5490   40.8150   31.8160 C.ar  290  HIS290      0.1986
    121  NE2       47.7920   39.5110   31.9170 N.ar  290  HIS290     -0.2212
    122  N         48.3000   40.4050   38.5090 N.am  291  HIS291     -0.1975
    123  CA        48.7940   40.7770   39.8250 C.3   291  HIS291      0.1656
    124  C         49.5590   39.6100   40.4500 C.2   291  HIS291      0.2291
    125  O         50.4790   39.8000   41.2560 O.2   291  HIS291     -0.2864
    126  CB        47.6560   41.2870   40.7130 C.3   291  HIS291      0.0771
    127  CG        48.1400   41.7310   42.0670 C.ar  291  HIS291      0.0820
    128  ND1       48.3100   40.8820   43.1200 N.ar  291  HIS291     -0.2267
    129  CD2       48.5070   42.9490   42.5270 C.ar  291  HIS291      0.1154
    130  CE1       48.7630   41.5930   44.1670 C.ar  291  HIS291      0.1986
    131  NE2       48.8830   42.8820   43.8600 N.ar  291  HIS291     -0.2212
    132  N         51.7870   38.0180   39.1580 N.3   293  MET293     -0.1230
    133  CA        53.1630   38.1670   38.7710 C.3   293  MET293      0.1702
    134  C         53.9420   39.0860   39.7300 C.2   293  MET293      0.2592
    135  O         55.1750   39.0810   39.6460 O.2   293  MET293     -0.2718
    136  CB        53.2290   38.6960   37.3330 C.3   293  MET293      0.0401
    137  CG        52.5400   37.7920   36.3310 C.3   293  MET293      0.0596
    138  SD        52.5810   38.4150   34.6460 S.3   293  MET293     -0.1393
    139  CE        54.2760   38.0560   34.1740 C.3   293  MET293      0.0692
    140  N         53.2630   39.8110   40.5980 N.am  294  VAL294     -0.1980
    141  CA        53.9350   40.6290   41.6060 C.3   294  VAL294      0.1595
    142  C         53.5800   40.2430   43.0290 C.2   294  VAL294      0.2287
    143  O         54.2620   40.7280   43.9370 O.2   294  VAL294     -0.2864
    144  CB        53.6610   42.1340   41.4030 C.3   294  VAL294      0.0276
    145  CG1       54.2790   42.6040   40.1080 C.3   294  VAL294      0.0022
    146  CG2       52.1960   42.5100   41.5480 C.3   294  VAL294      0.0022
@<TRIPOS>BOND
     1    81    80    2
     2    80    79    1
     3    84    82    1
     4    79    82    1
     5    79    78    1
     6    82    83    1
     7    83    85    1
     8    30    31   ar
     9    30    28   ar
    10    31    29   ar
    11    28    26   ar
    12    21    22    1
    13    29    27   ar
    14    71    72    2
    15    71    70    1
    16    26    27   ar
    17    26    25    1
    18    68    66    1
    19    67    65    1
    20    25    22    1
    21    22    23    1
    22    74    73    1
    23    74    75    1
    24    70    73    1
    25    70    69    1
    26    77    75   am
    27    66    65    1
    28    65    62    1
    29    23    24    2
    30    23    32   am
    31    75    76    2
    32    32    33    1
    33    33    36    1
    34    33    34    1
    35    36    37    1
    36    36    38    1
    37    62    63    1
    38    62    61    1
    39    63    64    2
    40    39    37    1
    41    34    40   am
    42    34    35    2
    43    61    58   am
    44    54    53    2
    45    53    52    1
    46    40    41    1
    47    55    52    1
    48    43    42    2
    49    52    51    1
    50    58    59    2
    51    58    57    1
    52    41    42    1
    53    56    57    1
    54    42    44   am
    55    51    46   am
    56    57    60    1
    57   104   102    1
    58    46    47    2
    59    46    45    1
    60   102   101    1
    61    44    45    1
    62    44    50    1
    63   120   121   ar
    64   120   118   ar
    65   121   119   ar
    66    45    48    1
    67   103   101    1
    68    50    49    1
    69   101    98    1
    70   118   117   ar
    71   119   117   ar
    72    48    49    1
    73   117   116    1
    74   139   138    1
    75    98    97    1
    76    98    99    1
    77   138   137    1
    78   116   113    1
    79    99   100    2
    80    99   105   am
    81   111   105    1
    82   111   110    1
    83   105   106    1
    84   113   112    1
    85   113   114    1
    86   137   136    1
    87   110   109    1
    88    19    20    1
    89    19    18    1
    90   106   109    1
    91   106   107    1
    92   136   133    1
    93   114   115    2
    94   114   122   am
    95    20    14    1
    96    18    15    1
    97   107   108    2
    98   122   123    1
    99    12    10    1
   100   133   132    1
   101   133   134    1
   102    14    15    1
   103    14     8   am
   104    15    16    1
   105    16    17    2
   106    13    11    1
   107   135   134    2
   108   134   140   am
   109   123   124    1
   110   123   126    1
   111     7    10    1
   112     7     8    1
   113     7     6    1
   114    10    11    1
   115     8     9    2
   116   145   144    1
   117     4     3    2
   118    95    96   ar
   119    95    93   ar
   120   124   125    2
   121    96    94   ar
   122   140   141    1
   123   126   127    1
   124     6     3   am
   125     3     2    1
   126     5     2    1
   127   144   146    1
   128   144   141    1
   129    93    91   ar
   130   141   142    1
   131    94    92   ar
   132     2     1    1
   133   127   129   ar
   134   127   128   ar
   135   129   131   ar
   136    92    91   ar
   137    91    90    1
   138   142   143    2
   139   128   130   ar
   140    86    87    1
   141   131   130   ar
   142    89    88    2
   143    90    87    1
   144    87    88    1
