@<TRIPOS>MOLECULE
tmp/3eonC00.pdb
 122 112 0 0 0
SMALL
GASTEIGER

@<TRIPOS>ATOM
      1  N        -21.8430   67.1150   -3.2670 N.3    94  ARG94      -0.1231
      2  CA       -22.4520   67.9260   -2.2240 C.3    94  ARG94       0.1694
      3  C        -21.5940   69.1520   -2.0610 C.2    94  ARG94       0.2592
      4  O        -22.0880   70.2710   -1.8800 O.2    94  ARG94      -0.2718
      5  CB       -22.5690   67.1810   -0.8990 C.3    94  ARG94       0.0321
      6  CG       -23.2620   68.0190    0.1990 C.3    94  ARG94       0.0489
      7  CD       -22.2440   68.8010    1.0030 C.3    94  ARG94       0.2205
      8  NE       -21.1790   67.9030    1.4300 N.pl3  94  ARG94      -0.0865
      9  CZ       -19.9150   68.2490    1.6100 C.cat  94  ARG94       0.5346
     10  NH1      -19.0470   67.3220    1.9790 N.pl3  94  ARG94       0.1354
     11  NH2      -19.5210   69.4970    1.4160 N.pl3  94  ARG94       0.1354
     12  N        -20.2970   68.9250   -2.1590 N.am   95  SER95      -0.1952
     13  CA       -19.3460   69.9830   -2.0600 C.3    95  SER95       0.1924
     14  C        -19.5790   71.0850   -3.1000 C.2    95  SER95       0.2314
     15  O        -19.5710   72.2590   -2.7530 O.2    95  SER95      -0.2863
     16  CB       -17.9540   69.4060   -2.1720 C.3    95  SER95       0.2116
     17  OG       -17.0220   70.4200   -1.9270 O.3    95  SER95      -0.2180
     18  N        -22.3350   72.9890   -1.9180 N.3    98  SER98      -0.1202
     19  CA       -21.9560   73.6530   -0.6460 C.3    98  SER98       0.2020
     20  C        -21.2400   74.9810   -0.9060 C.2    98  SER98       0.2618
     21  O        -21.4950   76.0110   -0.2400 O.2    98  SER98      -0.2717
     22  CB       -20.9600   72.8030    0.1470 C.3    98  SER98       0.2103
     23  OG       -21.5780   71.9290    1.0370 O.3    98  SER98      -0.2182
     24  N        -20.2940   74.9220   -1.8380 N.am   99  VAL99      -0.1979
     25  CA       -19.5320   76.0970   -2.1960 C.3    99  VAL99       0.1595
     26  C        -20.4400   77.1840   -2.7690 C.2    99  VAL99       0.2287
     27  O        -20.3630   78.3360   -2.3590 O.2    99  VAL99      -0.2864
     28  CB       -18.3920   75.7650   -3.1820 C.3    99  VAL99       0.0276
     29  CG1      -17.7210   77.0410   -3.6630 C.3    99  VAL99       0.0022
     30  CG2      -17.4080   74.8480   -2.5150 C.3    99  VAL99       0.0022
     31  N        -20.6750   79.5350    0.4500 N.3   103  LEU103     -0.1245
     32  CA       -19.3980   80.2100    0.3650 C.3   103  LEU103      0.1561
     33  C        -19.3570   81.3130   -0.6960 C.2   103  LEU103      0.2260
     34  O        -18.3770   82.0580   -0.7910 O.2   103  LEU103     -0.2867
     35  CB       -18.2890   79.1910    0.1430 C.3   103  LEU103      0.0270
     36  CG       -18.1650   78.0270    1.1270 C.3   103  LEU103      0.0019
     37  CD1      -16.9870   77.0480    0.7080 C.3   103  LEU103      0.0001
     38  CD2      -18.0090   78.5210    2.5510 C.3   103  LEU103      0.0001
     39  N        -12.6070   74.1690   -4.4680 N.3   162  THR162     -0.1218
     40  CA       -13.5450   73.3990   -5.3090 C.3   162  THR162      0.1862
     41  C        -14.4290   74.3170   -6.2070 C.2   162  THR162      0.2287
     42  O        -14.9270   75.3520   -5.7490 O.2   162  THR162     -0.2866
     43  CB       -14.3370   72.3530   -4.4680 C.3   162  THR162      0.1770
     44  OG1      -15.6970   72.2460   -4.9150 O.3   162  THR162     -0.2211
     45  CG2      -14.3090   72.7220   -2.9990 C.3   162  THR162      0.0375
     46  N        -12.7350   63.0470   -3.2890 N.3   207  LEU207     -0.1245
     47  CA       -13.5150   64.1140   -3.9310 C.3   207  LEU207      0.1561
     48  C        -13.1440   64.2470   -5.4200 C.2   207  LEU207      0.2260
     49  O        -13.1180   65.3360   -5.9740 O.2   207  LEU207     -0.2867
     50  CB       -13.3720   65.4490   -3.1980 C.3   207  LEU207      0.0270
     51  CG       -13.6170   65.5120   -1.6930 C.3   207  LEU207      0.0019
     52  CD1      -13.3630   66.9370   -1.2030 C.3   207  LEU207      0.0001
     53  CD2      -15.0240   65.0180   -1.2770 C.3   207  LEU207      0.0001
     54  N        -17.9360   79.8700    6.4380 N.3   241  LEU241     -0.1245
     55  CA       -17.5650   78.5490    6.9310 C.3   241  LEU241      0.1561
     56  C        -18.6280   77.9650    7.8490 C.2   241  LEU241      0.2260
     57  O        -18.9880   76.7950    7.7210 O.2   241  LEU241     -0.2867
     58  CB       -16.2320   78.6010    7.6720 C.3   241  LEU241      0.0270
     59  CG       -14.9540   78.8550    6.8660 C.3   241  LEU241      0.0019
     60  CD1      -13.7640   78.8810    7.8340 C.3   241  LEU241      0.0001
     61  CD2      -14.7340   77.8260    5.7580 C.3   241  LEU241      0.0001
     62  N        -21.1870   76.5630    5.6620 N.3   244  ALA244     -0.1231
     63  CA       -20.8360   75.3400    4.9240 C.3   244  ALA244      0.1694
     64  C        -20.8000   74.1370    5.8740 C.2   244  ALA244      0.2591
     65  O        -21.3780   73.0680    5.5840 O.2   244  ALA244     -0.2718
     66  CB       -19.5470   75.4910    4.1840 C.3   244  ALA244      0.0304
     67  N        -20.1780   74.3390    7.0330 N.am  245  ARG245     -0.1980
     68  CA       -20.1230   73.3000    8.0520 C.3   245  ARG245      0.1597
     69  C        -21.4900   72.6850    8.4160 C.2   245  ARG245      0.2287
     70  O        -21.6000   71.4510    8.6440 O.2   245  ARG245     -0.2864
     71  CB       -19.3780   73.7880    9.2780 C.3   245  ARG245      0.0334
     72  CG       -17.8990   74.0290    9.0050 C.3   245  ARG245      0.0492
     73  CD       -17.3710   74.7540   10.1870 C.3   245  ARG245      0.2205
     74  NE       -15.9860   75.1850   10.0790 N.pl3 245  ARG245     -0.0865
     75  CZ       -15.4670   76.1910   10.7920 C.cat 245  ARG245      0.5346
     76  NH1      -16.2190   76.8900   11.6340 N.pl3 245  ARG245      0.1354
     77  NH2      -14.1920   76.4930   10.6750 N.pl3 245  ARG245      0.1354
     78  N        -22.3230   70.4430    5.4970 N.3   248  ILE248     -0.1245
     79  CA       -21.4840   69.2470    5.6500 C.3   248  ILE248      0.1561
     80  C        -21.9630   68.2900    6.7720 C.2   248  ILE248      0.2260
     81  O        -21.9680   67.0800    6.5810 O.2   248  ILE248     -0.2867
     82  CB       -20.0210   69.5960    5.7660 C.3   248  ILE248      0.0252
     83  CG1      -19.5760   70.2620    4.4630 C.3   248  ILE248      0.0019
     84  CG2      -19.2420   68.3400    5.8990 C.3   248  ILE248      0.0019
     85  CD1      -18.4170   71.2410    4.5950 C.3   248  ILE248      0.0001
     86  N        -20.6250   69.1900   13.1770 N.3   322  LYS322     -0.1245
     87  CA       -19.7010   68.9340   12.0660 C.3   322  LYS322      0.1561
     88  C        -18.7640   67.8050   12.4480 C.2   322  LYS322      0.2260
     89  O        -18.6380   66.8170   11.7290 O.2   322  LYS322     -0.2867
     90  CB       -18.8810   70.1780   11.6830 C.3   322  LYS322      0.0271
     91  CG       -18.5330   70.2480   10.2160 C.3   322  LYS322      0.0035
     92  CD       -17.5980   69.1640    9.7820 C.3   322  LYS322      0.0206
     93  CE       -16.6860   69.6350    8.6690 C.3   322  LYS322      0.1093
     94  NZ       -15.2980   69.1370    8.9310 N.3   322  LYS322     -0.1314
     95  N        -12.7380   64.8490    3.5860 N.3   359  VAL359     -0.1245
     96  CA       -13.6830   65.7550    4.2720 C.3   359  VAL359      0.1561
     97  C        -13.3290   65.9180    5.7440 C.2   359  VAL359      0.2260
     98  O        -13.4500   67.0080    6.3160 O.2   359  VAL359     -0.2867
     99  CB       -15.1470   65.2260    4.1700 C.3   359  VAL359      0.0252
    100  CG1      -16.0510   65.8700    5.2170 C.3   359  VAL359      0.0019
    101  CG2      -15.7060   65.4200    2.7640 C.3   359  VAL359      0.0019
    102  N        -10.0580   68.0160    5.9480 N.3   362  TYR362     -0.1227
    103  CA       -10.0110   69.2360    5.1660 C.3   362  TYR362      0.1736
    104  C         -9.6660   70.4740    5.9720 C.2   362  TYR362      0.2595
    105  O         -8.9490   71.3480    5.5050 O.2   362  TYR362     -0.2718
    106  CB       -11.3140   69.4490    4.4230 C.3   362  TYR362      0.0548
    107  CG       -11.2450   70.6470    3.5320 C.ar  362  TYR362     -0.0200
    108  CD1      -10.6720   70.5710    2.2550 C.ar  362  TYR362     -0.0009
    109  CD2      -11.7300   71.8840    3.9690 C.ar  362  TYR362     -0.0009
    110  CE1      -10.6110   71.7070    1.4370 C.ar  362  TYR362      0.0417
    111  CE2      -11.6750   73.0020    3.1730 C.ar  362  TYR362      0.0417
    112  CZ       -11.1280   72.9190    1.9160 C.ar  362  TYR362      0.1957
    113  OH       -11.0780   74.0720    1.1530 O.3   362  TYR362     -0.2866
    114  N        -10.1880   70.5490    7.1830 N.am  363  GLU363     -0.1979
    115  CA       -10.0100   71.7310    8.0040 C.3   363  GLU363      0.1602
    116  C         -8.7810   71.5970    8.8930 C.2   363  GLU363      0.2287
    117  O         -8.6550   72.3150    9.8680 O.2   363  GLU363     -0.2864
    118  CB       -11.2590   71.9870    8.8640 C.3   363  GLU363      0.0415
    119  CG       -12.4410   72.5790    8.1140 C.3   363  GLU363      0.1163
    120  CD       -13.6880   72.7430    9.0100 C.2   363  GLU363      0.3649
    121  OE1      -14.1090   73.9030    9.1680 O.co2 363  GLU363     -0.2457
    122  OE2      -14.2350   71.7360    9.5640 O.co2 363  GLU363     -0.2457
@<TRIPOS>BOND
     1    41    42    2
     2    41    40    1
     3    49    48    2
     4    48    47    1
     5    40    43    1
     6    40    39    1
     7    44    43    1
     8    43    45    1
     9    47    46    1
    10    47    50    1
    11    29    28    1
    12     1     2    1
    13    50    51    1
    14    28    30    1
    15    28    25    1
    16    14    15    2
    17    14    13    1
    18    26    27    2
    19    26    25    1
    20     2     3    1
    21     2     5    1
    22    25    24    1
    23    16    13    1
    24    16    17    1
    25    12     3   am
    26    12    13    1
    27     3     4    2
    28    18    19    1
    29    24    20   am
    30    51    53    1
    31    51    52    1
    32    20    19    1
    33    20    21    2
    34     5     6    1
    35    34    33    2
    36    33    32    1
    37    19    22    1
    38    35    32    1
    39    35    36    1
    40    22    23    1
    41     6     7    1
    42    32    31    1
    43    37    36    1
    44     7     8    1
    45    36    38    1
    46   113   112    1
    47    11     9    1
    48     8     9    2
    49   110   112   ar
    50   110   108   ar
    51     9    10    1
    52   112   111   ar
    53   108   107   ar
    54   101    99    1
    55   111   109   ar
    56   107   109   ar
    57   107   106    1
    58    95    96    1
    59    99    96    1
    60    99   100    1
    61    66    63    1
    62    96    97    1
    63   106   103    1
    64    83    85    1
    65    83    82    1
    66    63    62    1
    67    63    64    1
    68   103   102    1
    69   103   104    1
    70    78    79    1
    71   105   104    2
    72    65    64    2
    73    79    82    1
    74    79    80    1
    75    97    98    2
    76    61    59    1
    77    82    84    1
    78    64    67   am
    79   104   114   am
    80    54    55    1
    81    81    80    2
    82    59    58    1
    83    59    60    1
    84    55    58    1
    85    55    56    1
    86    67    68    1
    87   114   115    1
    88    57    56    2
    89   115   118    1
    90   115   116    1
    91    68    69    1
    92    68    71    1
    93   119   118    1
    94   119   120    1
    95    69    70    2
    96    93    94    1
    97    93    92    1
    98   116   117    2
    99    72    71    1
   100    72    73    1
   101   120   121   ar
   102   120   122   ar
   103    92    91    1
   104    74    73    1
   105    74    75    2
   106    91    90    1
   107    77    75    1
   108    75    76    1
   109    90    87    1
   110    89    88    2
   111    87    88    1
   112    87    86    1
