@<TRIPOS>MOLECULE
tmp/3eorA00.pdb
 73 70 0 0 0
SMALL
GASTEIGER

@<TRIPOS>ATOM
      1  N        132.9720  100.8280   51.2420 N.3   101  ALA101     -0.1231
      2  CA       132.6850  102.2080   50.9530 C.3   101  ALA101      0.1694
      3  C        133.2140  102.4950   49.5490 C.2   101  ALA101      0.2591
      4  O        134.2640  101.9660   49.1390 O.2   101  ALA101     -0.2718
      5  CB       133.3720  103.0840   51.9350 C.3   101  ALA101      0.0304
      6  N        132.4780  103.3210   48.8050 N.am  102  GLN102     -0.1979
      7  CA       132.9190  103.7520   47.4740 C.3   102  GLN102      0.1601
      8  C        133.9950  104.8530   47.6140 C.2   102  GLN102      0.2287
      9  O        134.9830  104.8310   46.9080 O.2   102  GLN102     -0.2864
     10  CB       131.7160  104.2730   46.6600 C.3   102  GLN102      0.0394
     11  CG       131.9740  104.4120   45.1970 C.3   102  GLN102      0.0908
     12  CD       132.1420  103.0450   44.4880 C.2   102  GLN102      0.2608
     13  OE1      131.5020  102.0320   44.8230 O.2   102  GLN102     -0.2717
     14  NE2      133.0300  103.0190   43.4940 N.am  102  GLN102     -0.0878
     15  N        135.4360  107.7420   51.1330 N.3   104  PRO104     -0.2102
     16  CA       136.7250  108.0640   50.4990 C.3   104  PRO104      0.1504
     17  C        137.6940  106.9050   50.4890 C.2   104  PRO104      0.2576
     18  O        137.3610  105.8130   50.9590 O.2   104  PRO104     -0.2718
     19  CB       137.2830  109.1490   51.4100 C.3   104  PRO104      0.0282
     20  CG       136.5960  108.9460   52.7420 C.3   104  PRO104      0.0208
     21  CD       135.2690  108.3570   52.4690 C.3   104  PRO104      0.0893
     22  N        138.9110  107.1480   50.0240 N.am  105  LYS105     -0.1966
     23  CA       139.9530  106.1180   50.0080 C.3   105  LYS105      0.1728
     24  C        140.4430  105.8610   51.4290 C.2   105  LYS105      0.2616
     25  O        140.9410  106.7660   52.0640 O.2   105  LYS105     -0.2715
     26  CB       141.1110  106.5390   49.0890 C.3   105  LYS105      0.0311
     27  CG       142.0860  105.4090   48.8180 C.3   105  LYS105      0.0038
     28  CD       142.7240  105.5490   47.4680 C.3   105  LYS105      0.0206
     29  CE       144.0200  106.4160   47.5240 C.3   105  LYS105      0.1093
     30  NZ       145.2000  105.5380   47.8800 N.3   105  LYS105     -0.1314
     31  N        140.3170  104.6350   51.9210 N.am  106  MET106     -0.1963
     32  CA       140.6830  104.3140   53.2740 C.3   106  MET106      0.1736
     33  C        142.1390  103.9200   53.3920 C.2   106  MET106      0.2616
     34  O        142.7480  104.0010   54.4620 O.2   106  MET106     -0.2715
     35  CB       139.8100  103.1810   53.7970 C.3   106  MET106      0.0427
     36  CG       138.3130  103.3840   53.6750 C.3   106  MET106      0.0599
     37  SD       137.6970  104.6690   54.7760 S.3   106  MET106     -0.1393
     38  CE       136.0720  105.0970   54.1020 C.3   106  MET106      0.0692
     39  N        142.7250  103.5040   52.2880 N.am  107  LEU107     -0.1977
     40  CA       143.9420  102.7240   52.3270 C.3   107  LEU107      0.1596
     41  C        145.0740  103.4180   53.0690 C.2   107  LEU107      0.2287
     42  O        145.7600  102.8060   53.9010 O.2   107  LEU107     -0.2864
     43  CB       144.4080  102.3680   50.9060 C.3   107  LEU107      0.0297
     44  CG       145.6720  101.5190   50.7710 C.3   107  LEU107      0.0022
     45  CD1      145.4860  100.2010   51.5480 C.3   107  LEU107      0.0001
     46  CD2      146.0180  101.2860   49.3410 C.3   107  LEU107      0.0001
     47  N        145.1740  103.4220   56.9310 N.3   110  ILE110     -0.1245
     48  CA       144.8290  102.1220   57.4430 C.3   110  ILE110      0.1561
     49  C        145.8600  101.6470   58.4690 C.2   110  ILE110      0.2260
     50  O        145.5310  100.8360   59.3430 O.2   110  ILE110     -0.2867
     51  CB       144.6930  101.0550   56.3320 C.3   110  ILE110      0.0252
     52  CG1      143.2290  100.9390   55.9190 C.3   110  ILE110      0.0019
     53  CG2      145.1820   99.6940   56.8420 C.3   110  ILE110      0.0019
     54  CD1      142.9100   99.8060   54.9530 C.3   110  ILE110      0.0001
     55  N        139.5940   97.8260   53.2960 N.3   132  ALA132     -0.1231
     56  CA       138.3980   98.4450   52.7430 C.3   132  ALA132      0.1694
     57  C        138.1910   97.9410   51.3340 C.2   132  ALA132      0.2593
     58  O        139.1390   97.6450   50.6410 O.2   132  ALA132     -0.2718
     59  CB       138.5140   99.9470   52.7520 C.3   132  ALA132      0.0304
     60  N        136.9400   97.8620   50.9040 N.am  133  THR133     -0.1939
     61  CA       136.6090   97.3220   49.6130 C.3   133  THR133      0.2028
     62  C        135.4430   98.1060   49.0070 C.2   133  THR133      0.2642
     63  O        134.7000   98.7020   49.7840 O.2   133  THR133     -0.2714
     64  CB       136.3270   95.7820   49.6500 C.3   133  THR133      0.1808
     65  OG1      136.1470   95.4080   48.2940 O.3   133  THR133     -0.2208
     66  CG2      135.0290   95.4400   50.3250 C.3   133  THR133      0.0379
     67  N        135.2960   98.1930   47.6590 N.am  134  THR134     -0.1950
     68  CA       134.0960   98.8880   47.1250 C.3   134  THR134      0.1897
     69  C        133.0910   97.8520   46.6980 C.2   134  THR134      0.2313
     70  O        133.4720   96.7130   46.5580 O.2   134  THR134     -0.2863
     71  CB       134.3060   99.8020   45.9090 C.3   134  THR134      0.1794
     72  OG1      134.5840   98.9900   44.7770 O.3   134  THR134     -0.2208
     73  CG2      135.4450  100.7110   46.1070 C.3   134  THR134      0.0378
@<TRIPOS>BOND
     1    14    12   am
     2    12    13    2
     3    12    11    1
     4    72    71    1
     5    11    10    1
     6    71    73    1
     7    71    68    1
     8    70    69    2
     9    10     7    1
    10    69    68    1
    11     9     8    2
    12    68    67    1
    13    28    29    1
    14    28    27    1
    15     7     8    1
    16     7     6    1
    17    29    30    1
    18    67    62   am
    19    65    64    1
    20     6     3   am
    21    27    26    1
    22    62    61    1
    23    62    63    2
    24    26    23    1
    25     4     3    2
    26    46    44    1
    27     3     2    1
    28    61    64    1
    29    61    60    1
    30    64    66    1
    31    23    22    1
    32    23    24    1
    33    22    17   am
    34    17    16    1
    35    17    18    2
    36    16    15    1
    37    16    19    1
    38    58    57    2
    39    44    43    1
    40    44    45    1
    41    60    57   am
    42    43    40    1
    43     2     1    1
    44     2     5    1
    45    15    21    1
    46    57    56    1
    47    19    20    1
    48    24    31   am
    49    24    25    2
    50    31    32    1
    51    39    40    1
    52    39    33   am
    53    40    41    1
    54    21    20    1
    55    56    59    1
    56    56    55    1
    57    41    42    2
    58    32    33    1
    59    32    35    1
    60    33    34    2
    61    36    35    1
    62    36    37    1
    63    38    37    1
    64    54    52    1
    65    52    51    1
    66    51    53    1
    67    51    48    1
    68    47    48    1
    69    48    49    1
    70    49    50    2
