@<TRIPOS>MOLECULE
tmp/3eosA00.pdb
 173 163 0 0 0
SMALL
GASTEIGER

@<TRIPOS>ATOM
      1  N         10.6020    9.5300   11.9080 N.3    35  VAL35      -0.1231
      2  CA         9.8740   10.4980   12.7060 C.3    35  VAL35       0.1692
      3  C          8.5240   10.8890   12.1100 C.2    35  VAL35       0.2592
      4  O          8.3640   11.1110   10.9140 O.2    35  VAL35      -0.2718
      5  CB        10.7370   11.7620   12.9190 C.3    35  VAL35       0.0266
      6  CG1       10.1830   12.6270   14.0250 C.3    35  VAL35       0.0020
      7  CG2       12.1660   11.3570   13.2690 C.3    35  VAL35       0.0020
      8  N          7.5440   10.9810   13.0100 N.am   36  GLY36      -0.1957
      9  CA         6.1870   11.3540   12.7020 C.3    36  GLY36       0.1869
     10  C          5.9720   12.8470   12.6850 C.2    36  GLY36       0.2309
     11  O          6.7470   13.5890   13.2890 O.2    36  GLY36      -0.2863
     12  N          9.1230    7.5080   15.8460 N.3    58  LEU58      -0.1231
     13  CA         9.0580    8.5360   16.8650 C.3    58  LEU58       0.1693
     14  C          7.7070    9.2500   16.7830 C.2    58  LEU58       0.2593
     15  O          7.3190    9.6280   15.6830 O.2    58  LEU58      -0.2718
     16  CB        10.1490    9.5940   16.7380 C.3    58  LEU58       0.0284
     17  CG        11.3580    9.3920   17.6440 C.3    58  LEU58       0.0019
     18  CD1       12.2080    8.2650   17.0960 C.3    58  LEU58       0.0001
     19  CD2       12.1680   10.6690   17.7610 C.3    58  LEU58       0.0001
     20  N          7.0860    9.3710   17.9300 N.am   59  GLY59      -0.1942
     21  CA         5.9240   10.2010   18.1610 C.3    59  GLY59       0.2014
     22  C          6.3490   11.6510   18.3510 C.2    59  GLY59       0.2639
     23  O          7.4590   11.9060   18.8070 O.2    59  GLY59      -0.2714
     24  N          5.4760   12.6000   18.0390 N.am   60  ASN60      -0.1958
     25  CA         5.7600   14.0290   18.0760 C.3    60  ASN60       0.1819
     26  C          4.9890   14.6900   19.2080 C.2    60  ASN60       0.2621
     27  O          3.9640   15.3490   19.0350 O.2    60  ASN60      -0.2715
     28  CB         5.4080   14.6570   16.7260 C.3    60  ASN60       0.1195
     29  CG         5.9410   16.0600   16.5450 C.2    60  ASN60       0.2630
     30  OD1        6.1300   16.7870   17.5260 O.2    60  ASN60      -0.2716
     31  ND2        6.1780   16.4170   15.2820 N.am   60  ASN60      -0.0877
     32  N          5.5320   14.4600   20.3980 N.am   61  THR61      -0.1951
     33  CA         4.9860   14.9850   21.6380 C.3    61  THR61       0.1897
     34  C          4.5390   16.4470   21.5390 C.2    61  THR61       0.2313
     35  O          3.3940   16.7820   21.8430 O.2    61  THR61      -0.2863
     36  CB         6.0570   14.8620   22.7360 C.3    61  THR61       0.1794
     37  OG1        6.3710   13.4840   22.9980 O.3    61  THR61      -0.2208
     38  CG2        5.5710   15.4430   24.0510 C.3    61  THR61       0.0378
     39  N          9.9160   12.0640   22.0580 N.3    92  ASP92      -0.1225
     40  CA        10.8270   13.0070   22.7170 C.3    92  ASP92       0.1805
     41  C         10.0380   13.7130   23.8190 C.2    92  ASP92       0.2598
     42  O          8.8200   13.5270   23.9050 O.2    92  ASP92      -0.2718
     43  CB        11.4480   13.9400   21.6940 C.3    92  ASP92       0.1424
     44  CG        12.6590   14.7330   22.1190 C.2    92  ASP92       0.3668
     45  OD1       13.1560   15.5440   21.2980 O.co2  92  ASP92      -0.2456
     46  OD2       13.1340   14.5850   23.2470 O.co2  92  ASP92      -0.2456
     47  N         10.7020   14.5030   24.6550 N.am   93  SER93      -0.1952
     48  CA        10.0710   15.0920   25.8350 C.3    93  SER93       0.1924
     49  C          9.4420   16.4630   25.6310 C.2    93  SER93       0.2314
     50  O          8.7600   16.9700   26.5390 O.2    93  SER93      -0.2863
     51  CB        11.1230   15.1630   26.9470 C.3    93  SER93       0.2116
     52  OG        12.3200   15.7290   26.4560 O.3    93  SER93      -0.2180
     53  N         12.8870   20.4550   23.3130 N.3    96  TYR96      -0.1227
     54  CA        13.6600   20.7260   22.1040 C.3    96  TYR96       0.1736
     55  C         12.7910   21.5210   21.1290 C.2    96  TYR96       0.2595
     56  O         13.1710   22.5880   20.6440 O.2    96  TYR96      -0.2718
     57  CB        14.2200   19.4650   21.4070 C.3    96  TYR96       0.0548
     58  CG        14.8820   19.7890   20.0840 C.ar   96  TYR96      -0.0200
     59  CD1       14.2350   19.6520   18.8610 C.ar   96  TYR96      -0.0009
     60  CD2       16.1840   20.2640   20.0580 C.ar   96  TYR96      -0.0009
     61  CE1       14.8490   19.9640   17.6620 C.ar   96  TYR96       0.0417
     62  CE2       16.8180   20.5830   18.8620 C.ar   96  TYR96       0.0417
     63  CZ        16.1450   20.4290   17.6730 C.ar   96  TYR96       0.1957
     64  OH        16.7610   20.7390   16.4870 O.3    96  TYR96      -0.2866
     65  N         11.6350   20.9480   20.8140 N.am   97  GLN97      -0.1979
     66  CA        10.7300   21.5760   19.8620 C.3    97  GLN97       0.1601
     67  C         10.1120   22.8570   20.3940 C.2    97  GLN97       0.2287
     68  O          9.7690   23.7460   19.6100 O.2    97  GLN97      -0.2864
     69  CB         9.6090   20.5990   19.4770 C.3    97  GLN97       0.0394
     70  CG        10.2010   19.3110   18.9110 C.3    97  GLN97       0.0908
     71  CD         9.4000   18.8490   17.7040 C.2    97  GLN97       0.2608
     72  OE1        9.4860   19.4690   16.6440 O.2    97  GLN97      -0.2717
     73  NE2        8.6490   17.7810   17.9400 N.am   97  GLN97      -0.0878
     74  N         14.5200   17.5650   29.2770 N.3   134  ASP134     -0.1239
     75  CA        15.7810   18.2580   29.2940 C.3   134  ASP134      0.1674
     76  C         15.7060   19.6820   28.7340 C.2   134  ASP134      0.2266
     77  O         14.6760   20.0830   28.1870 O.2   134  ASP134     -0.2867
     78  CB        16.8350   17.4590   28.5050 C.3   134  ASP134      0.1410
     79  CG        16.5870   17.3290   27.0200 C.2   134  ASP134      0.3668
     80  OD1       15.4040   17.3110   26.6050 O.co2 134  ASP134     -0.2456
     81  OD2       17.5520   17.2400   26.2190 O.co2 134  ASP134     -0.2456
     82  N         17.8540   21.4920   25.7810 N.3   136  CYS136     -0.1235
     83  CA        18.8600   21.3680   24.7220 C.3   136  CYS136      0.1677
     84  C         19.6250   22.6900   24.6600 C.2   136  CYS136      0.2270
     85  O         19.0500   23.6870   24.2420 O.2   136  CYS136     -0.2867
     86  CB        18.2580   21.0330   23.3600 C.3   136  CYS136      0.0956
     87  SG        19.4330   21.0140   21.9720 S.3   136  CYS136     -0.0801
     88  N         19.0650   12.0270   29.0860 N.3   179  ILE179     -0.1245
     89  CA        19.7370   12.7050   27.9840 C.3   179  ILE179      0.1561
     90  C         20.9290   13.4970   28.5030 C.2   179  ILE179      0.2260
     91  O         20.7550   14.3800   29.3260 O.2   179  ILE179     -0.2867
     92  CB        18.7920   13.6600   27.2420 C.3   179  ILE179      0.0252
     93  CG1       17.5130   12.9650   26.7400 C.3   179  ILE179      0.0019
     94  CG2       19.5610   14.3560   26.1320 C.3   179  ILE179      0.0019
     95  CD1       16.3980   13.8980   26.3400 C.3   179  ILE179      0.0001
     96  N         23.8310   16.2980   28.1460 N.3   181  GLN181     -0.1245
     97  CA        24.0180   17.6800   27.8090 C.3   181  GLN181      0.1566
     98  C         25.4410   18.0740   28.1690 C.2   181  GLN181      0.2260
     99  O         26.2370   17.1880   28.4750 O.2   181  GLN181     -0.2867
    100  CB        22.9770   18.5390   28.5200 C.3   181  GLN181      0.0367
    101  CG        21.5650   18.2640   28.0720 C.3   181  GLN181      0.0905
    102  CD        21.3230   18.5130   26.5930 C.2   181  GLN181      0.2608
    103  OE1       22.1350   19.1220   25.8850 O.2   181  GLN181     -0.2717
    104  NE2       20.1850   18.0500   26.0890 N.am  181  GLN181     -0.0878
    105  N         22.3800   14.3850   23.9190 N.3   207  GLY207     -0.1210
    106  CA        21.6270   15.5690   23.5400 C.3   207  GLY207      0.1956
    107  C         22.5840   16.7120   23.2090 C.2   207  GLY207      0.2612
    108  O         23.8090   16.5920   23.3430 O.2   207  GLY207     -0.2717
    109  N         21.9980   17.8130   22.7720 N.am  208  GLY208     -0.1942
    110  CA        22.6870   19.0250   22.4360 C.3   208  GLY208      0.2014
    111  C         23.6390   18.9720   21.2720 C.2   208  GLY208      0.2639
    112  O         24.5290   19.8370   21.1820 O.2   208  GLY208     -0.2714
    113  N         23.5170   17.9910   20.3680 N.am  209  LEU209     -0.1963
    114  CA        24.3600   18.0090   19.1800 C.3   209  LEU209      0.1728
    115  C         23.4940   18.1590   17.9370 C.2   209  LEU209      0.2616
    116  O         22.2770   18.1710   18.0440 O.2   209  LEU209     -0.2715
    117  CB        25.2600   16.7870   19.0730 C.3   209  LEU209      0.0311
    118  CG        26.3800   16.7300   20.1240 C.3   209  LEU209      0.0022
    119  CD1       27.1110   15.4040   20.0090 C.3   209  LEU209      0.0001
    120  CD2       27.3420   17.8810   19.9800 C.3   209  LEU209      0.0001
    121  N         24.1160   18.2760   16.7730 N.am  210  ALA210     -0.1963
    122  CA        23.2780   18.4560   15.5840 C.3   210  ALA210      0.1728
    123  C         22.4850   19.7480   15.7010 C.2   210  ALA210      0.2616
    124  O         21.3260   19.8730   15.2960 O.2   210  ALA210     -0.2715
    125  CB        22.3650   17.2560   15.3920 C.3   210  ALA210      0.0334
    126  N         23.1480   20.7460   16.2930 N.am  211  VAL211     -0.1977
    127  CA        22.4670   22.0280   16.4930 C.3   211  VAL211      0.1596
    128  C         23.2790   23.1930   15.9330 C.2   211  VAL211      0.2287
    129  O         23.1440   24.3240   16.4130 O.2   211  VAL211     -0.2864
    130  CB        22.1490   22.2900   17.9800 C.3   211  VAL211      0.0276
    131  CG1       21.0180   21.3400   18.4060 C.3   211  VAL211      0.0022
    132  CG2       23.3360   22.1460   18.9020 C.3   211  VAL211      0.0022
    133  N         20.4190   12.0620   19.3000 N.3   238  MET238     -0.1230
    134  CA        19.1580   12.7340   18.9560 C.3   238  MET238      0.1702
    135  C         19.3340   13.6630   17.7620 C.2   238  MET238      0.2592
    136  O         20.2370   14.5140   17.7430 O.2   238  MET238     -0.2718
    137  CB        18.6710   13.4820   20.2010 C.3   238  MET238      0.0401
    138  CG        18.6160   12.6200   21.4530 C.3   238  MET238      0.0596
    139  SD        17.6130   13.4020   22.7250 S.3   238  MET238     -0.1393
    140  CE        15.9640   13.0620   22.0900 C.3   238  MET238      0.0692
    141  N         18.4820   13.5110   16.7710 N.am  239  GLY239     -0.1957
    142  CA        18.4150   14.3810   15.6170 C.3   239  GLY239      0.1869
    143  C         19.3790   14.0840   14.4980 C.2   239  GLY239      0.2309
    144  O         19.4180   14.8180   13.5090 O.2   239  GLY239     -0.2863
    145  N         17.4290    9.2870   15.1100 N.3   258  ASP258     -0.1225
    146  CA        16.2140    9.7990   14.4970 C.3   258  ASP258      0.1805
    147  C         16.5440   11.0430   13.6770 C.2   258  ASP258      0.2598
    148  O         17.4240   11.8150   14.0710 O.2   258  ASP258     -0.2718
    149  CB        15.1410   10.1680   15.5240 C.3   258  ASP258      0.1424
    150  CG        15.3480   11.5320   16.1570 C.2   258  ASP258      0.3668
    151  OD1       16.1720   11.6700   17.0900 O.co2 258  ASP258     -0.2456
    152  OD2       14.6850   12.5200   15.7500 O.co2 258  ASP258     -0.2456
    153  N         15.8610   11.2970   12.5620 N.am  259  CYS259     -0.1956
    154  CA        16.1260   12.4850   11.7660 C.3   259  CYS259      0.1843
    155  C         14.8820   12.8670   10.9850 C.2   259  CYS259      0.2625
    156  O         14.1810   11.9730   10.5480 O.2   259  CYS259     -0.2714
    157  CB        17.2680   12.2200   10.7870 C.3   259  CYS259      0.0997
    158  SG        18.0330   13.6990   10.0910 S.3   259  CYS259     -0.0797
    159  N         14.6550   14.1580   10.7650 N.am  260  VAL260     -0.1963
    160  CA        13.4720   14.4440    9.9460 C.3   260  VAL260      0.1727
    161  C         13.9070   14.4030    8.4860 C.2   260  VAL260      0.2616
    162  O         13.0510   14.4140    7.6210 O.2   260  VAL260     -0.2715
    163  CB        12.8070   15.7750   10.2960 C.3   260  VAL260      0.0290
    164  CG1       11.5740   15.9780    9.4120 C.3   260  VAL260      0.0023
    165  CG2       12.4100   15.8260   11.7650 C.3   260  VAL260      0.0023
    166  N         15.2210   14.3220    8.2860 N.am  261  LEU261     -0.1977
    167  CA        15.8300   14.3540    6.9590 C.3   261  LEU261      0.1596
    168  C         15.0910   13.4520    5.9740 C.2   261  LEU261      0.2287
    169  O         14.5110   13.9890    5.0120 O.2   261  LEU261     -0.2864
    170  CB        17.3200   14.0160    6.9960 C.3   261  LEU261      0.0297
    171  CG        18.3200   15.1150    7.3890 C.3   261  LEU261      0.0022
    172  CD1       17.7070   16.1080    8.3670 C.3   261  LEU261      0.0001
    173  CD2       19.5830   14.4960    7.9620 C.3   261  LEU261      0.0001
@<TRIPOS>BOND
     1   169   168    2
     2   168   167    1
     3   167   170    1
     4   167   166    1
     5   170   171    1
     6   171   173    1
     7   171   172    1
     8   162   161    2
     9   166   161   am
    10   161   160    1
    11   164   163    1
    12   160   163    1
    13   160   159    1
    14   158   157    1
    15   163   165    1
    16   156   155    2
    17   159   155   am
    18   157   154    1
    19     4     3    2
    20   155   154    1
    21   154   153    1
    22     1     2    1
    23     3     2    1
    24     3     8   am
    25   153   147   am
    26    10     9    1
    27    10    11    2
    28     9     8    1
    29     2     5    1
    30     5     7    1
    31     5     6    1
    32   144   143    2
    33   147   148    2
    34   147   146    1
    35   146   145    1
    36   146   149    1
    37   143   142    1
    38    31    29   am
    39   124   123    2
    40   125   122    1
    41   149   150    1
    42   122   123    1
    43   122   121    1
    44   142   141    1
    45    15    14    2
    46   123   126   am
    47   152   150   ar
    48    12    13    1
    49   128   129    2
    50   128   127    1
    51   150   151   ar
    52   126   127    1
    53    64    63    1
    54   127   130    1
    55    29    28    1
    56    29    30    2
    57    72    71    2
    58    28    25    1
    59    16    13    1
    60    16    17    1
    61   141   135   am
    62   121   115   am
    63    14    13    1
    64    14    20   am
    65    18    17    1
    66    17    19    1
    67    61    63   ar
    68    61    59   ar
    69    63    62   ar
    70    71    73   am
    71    71    70    1
    72   136   135    2
    73   135   134    1
    74    20    21    1
    75   115   116    2
    76   115   114    1
    77   130   131    1
    78   130   132    1
    79    24    25    1
    80    24    22   am
    81    25    26    1
    82    21    22    1
    83    22    23    2
    84    59    58   ar
    85    62    60   ar
    86    70    69    1
    87   134   133    1
    88   134   137    1
    89    27    26    2
    90   117   114    1
    91   117   118    1
    92   114   113    1
    93    26    32   am
    94    69    66    1
    95    68    67    2
    96    66    67    1
    97    66    65    1
    98   120   118    1
    99   119   118    1
   100    60    58   ar
   101    58    57    1
   102   137   138    1
   103   113   111   am
   104    32    33    1
   105    56    55    2
   106    65    55   am
   107    55    54    1
   108   112   111    2
   109   111   110    1
   110    45    44   ar
   111    57    54    1
   112   138   139    1
   113    34    33    1
   114    34    35    2
   115    33    36    1
   116    43    44    1
   117    43    40    1
   118    87    86    1
   119    39    40    1
   120   140   139    1
   121    54    53    1
   122    44    46   ar
   123   110   109    1
   124    40    41    1
   125    36    37    1
   126    36    38    1
   127   109   107   am
   128   107   108    2
   129   107   106    1
   130    86    83    1
   131   106   105    1
   132    41    42    2
   133    41    47   am
   134    85    84    2
   135    47    48    1
   136    84    83    1
   137    83    82    1
   138    49    48    1
   139    49    50    2
   140    48    51    1
   141   103   102    2
   142   104   102   am
   143    94    92    1
   144    81    79   ar
   145    95    93    1
   146    52    51    1
   147   102   101    1
   148    80    79   ar
   149    93    92    1
   150    79    78    1
   151    92    89    1
   152    97    96    1
   153    97    98    1
   154    97   100    1
   155    89    90    1
   156    89    88    1
   157   101   100    1
   158    98    99    2
   159    77    76    2
   160    90    91    2
   161    78    75    1
   162    76    75    1
   163    74    75    1
