@<TRIPOS>MOLECULE
tmp/3eouA00.pdb
 149 138 0 0 0
SMALL
GASTEIGER

@<TRIPOS>ATOM
      1  N          9.3880    7.2220   15.8550 N.3    58  LEU58      -0.1245
      2  CA         9.4360    8.2160   16.9370 C.3    58  LEU58       0.1561
      3  C          8.1480    9.0290   16.9210 C.2    58  LEU58       0.2260
      4  O          7.6960    9.4630   15.8650 O.2    58  LEU58      -0.2867
      5  CB        10.7000    9.0600   16.7910 C.3    58  LEU58       0.0270
      6  CG        10.9290   10.0780   17.9170 C.3    58  LEU58       0.0019
      7  CD1       12.4050   10.1440   18.2630 C.3    58  LEU58       0.0001
      8  CD2       10.3620   11.4290   17.5120 C.3    58  LEU58       0.0001
      9  N          6.1670   12.4650   17.9490 N.3    60  ASN60      -0.1240
     10  CA         6.4490   13.8670   18.2290 C.3    60  ASN60       0.1653
     11  C          5.4560   14.4630   19.2280 C.2    60  ASN60       0.2266
     12  O          4.4440   15.0350   18.8060 O.2    60  ASN60      -0.2867
     13  CB         6.4060   14.6780   16.9350 C.3    60  ASN60       0.1155
     14  CG         7.7110   14.8830   16.2060 C.2    60  ASN60       0.2627
     15  OD1        8.8180   14.6480   16.6940 O.2    60  ASN60      -0.2716
     16  ND2        7.5950   15.3540   14.9580 N.am   60  ASN60      -0.0877
     17  N          9.6260   11.8880   22.1480 N.3    92  ASP92      -0.1225
     18  CA        10.5560   12.8640   22.7500 C.3    92  ASP92       0.1805
     19  C          9.7660   13.5780   23.8450 C.2    92  ASP92       0.2598
     20  O          8.5550   13.3620   23.9410 O.2    92  ASP92      -0.2718
     21  CB        11.1760   13.8110   21.7390 C.3    92  ASP92       0.1424
     22  CG        12.3870   14.5970   22.2180 C.2    92  ASP92       0.3668
     23  OD1       12.9940   15.3130   21.3830 O.co2  92  ASP92      -0.2456
     24  OD2       12.7970   14.5600   23.4050 O.co2  92  ASP92      -0.2456
     25  N         10.4140   14.3800   24.6690 N.am   93  SER93      -0.1952
     26  CA         9.7700   14.8960   25.8710 C.3    93  SER93       0.1924
     27  C          9.0820   16.2360   25.6330 C.2    93  SER93       0.2314
     28  O          8.3540   16.6840   26.5220 O.2    93  SER93      -0.2863
     29  CB        10.8050   15.0610   26.9830 C.3    93  SER93       0.2116
     30  OG        12.0210   15.5410   26.4300 O.3    93  SER93      -0.2180
     31  N         12.5490   20.3480   23.4460 N.3    96  TYR96      -0.1227
     32  CA        13.2710   20.6710   22.2330 C.3    96  TYR96       0.1736
     33  C         12.4170   21.3900   21.2000 C.2    96  TYR96       0.2595
     34  O         12.7820   22.4310   20.6560 O.2    96  TYR96      -0.2718
     35  CB        13.8260   19.4030   21.5520 C.3    96  TYR96       0.0548
     36  CG        14.7020   19.7140   20.3580 C.ar   96  TYR96      -0.0200
     37  CD1       16.0370   20.0600   20.5480 C.ar   96  TYR96      -0.0009
     38  CD2       14.2260   19.6700   19.0530 C.ar   96  TYR96      -0.0009
     39  CE1       16.8680   20.3510   19.4830 C.ar   96  TYR96       0.0417
     40  CE2       15.0530   19.9610   17.9810 C.ar   96  TYR96       0.0417
     41  CZ        16.3720   20.3020   18.2010 C.ar   96  TYR96       0.1957
     42  OH        17.2030   20.5910   17.1450 O.3    96  TYR96      -0.2866
     43  N         11.2650   20.7760   20.9220 N.am   97  GLN97      -0.1979
     44  CA        10.3650   21.4170   19.9710 C.3    97  GLN97       0.1601
     45  C          9.7490   22.6700   20.5730 C.2    97  GLN97       0.2287
     46  O          9.4770   23.6000   19.8090 O.2    97  GLN97      -0.2864
     47  CB         9.2940   20.4340   19.4930 C.3    97  GLN97       0.0394
     48  CG         9.4550   20.1190   18.0100 C.3    97  GLN97       0.0908
     49  CD         9.7430   18.6610   17.7240 C.2    97  GLN97       0.2608
     50  OE1       10.8930   18.2730   17.4920 O.2    97  GLN97      -0.2717
     51  NE2        8.6840   17.8510   17.7280 N.am   97  GLN97      -0.0878
     52  N         14.2540   17.4980   29.2760 N.3   129  ASP129     -0.1239
     53  CA        15.5310   18.1940   29.3870 C.3   129  ASP129      0.1674
     54  C         15.4050   19.6310   28.8790 C.2   129  ASP129      0.2266
     55  O         14.3450   19.9960   28.3660 O.2   129  ASP129     -0.2867
     56  CB        16.6430   17.4490   28.6400 C.3   129  ASP129      0.1410
     57  CG        16.4410   17.3500   27.1410 C.2   129  ASP129      0.3668
     58  OD1       15.2850   17.4820   26.6770 O.co2 129  ASP129     -0.2456
     59  OD2       17.4230   17.1250   26.3950 O.co2 129  ASP129     -0.2456
     60  N         17.5200   21.7010   26.2290 N.3   131  CYS131     -0.1235
     61  CA        18.6000   21.6420   25.2370 C.3   131  CYS131      0.1677
     62  C         19.4020   22.9410   25.2980 C.2   131  CYS131      0.2270
     63  O         18.8450   24.0290   25.4580 O.2   131  CYS131     -0.2867
     64  CB        18.0580   21.3840   23.8360 C.3   131  CYS131      0.0956
     65  SG        19.3290   21.0750   22.5860 S.3   131  CYS131     -0.0801
     66  N         19.0290   11.8620   29.2200 N.3   174  ILE174     -0.1245
     67  CA        19.7050   12.5660   28.1310 C.3   174  ILE174      0.1561
     68  C         20.9340   13.3440   28.5760 C.2   174  ILE174      0.2260
     69  O         20.8700   14.2670   29.3780 O.2   174  ILE174     -0.2867
     70  CB        18.7420   13.5290   27.4150 C.3   174  ILE174      0.0252
     71  CG1       17.4410   12.8550   26.9530 C.3   174  ILE174      0.0019
     72  CG2       19.4380   14.2020   26.2380 C.3   174  ILE174      0.0019
     73  CD1       16.4650   13.8840   26.4010 C.3   174  ILE174      0.0001
     74  N         23.7630   16.0300   28.5740 N.3   176  GLN176     -0.1245
     75  CA        23.9710   17.3770   28.0330 C.3   176  GLN176      0.1566
     76  C         25.3910   17.8450   28.3170 C.2   176  GLN176      0.2260
     77  O         26.2390   17.0620   28.7500 O.2   176  GLN176     -0.2867
     78  CB        22.9320   18.3500   28.5940 C.3   176  GLN176      0.0367
     79  CG        21.5020   18.0610   28.1640 C.3   176  GLN176      0.0905
     80  CD        21.2600   18.3290   26.6880 C.2   176  GLN176      0.2608
     81  OE1       22.0300   19.0070   26.0070 O.2   176  GLN176     -0.2717
     82  NE2       20.1620   17.7810   26.1700 N.am  176  GLN176     -0.0878
     83  N         22.4080   14.2470   23.9180 N.3   202  GLY202     -0.1210
     84  CA        21.6020   15.3800   23.4400 C.3   202  GLY202      0.1956
     85  C         22.5210   16.5630   23.1450 C.2   202  GLY202      0.2612
     86  O         23.7310   16.4870   23.3910 O.2   202  GLY202     -0.2717
     87  N         21.9540   17.6460   22.6380 N.am  203  GLY203     -0.1942
     88  CA        22.6780   18.8830   22.3850 C.3   203  GLY203      0.2014
     89  C         23.6210   18.8920   21.2000 C.2   203  GLY203      0.2639
     90  O         24.4950   19.7750   21.1420 O.2   203  GLY203     -0.2714
     91  N         23.5090   17.9690   20.2500 N.am  204  LEU204     -0.1963
     92  CA        24.3780   17.9270   19.0740 C.3   204  LEU204      0.1728
     93  C         23.5100   17.9810   17.8350 C.2   204  LEU204      0.2616
     94  O         22.2820   17.9320   17.9380 O.2   204  LEU204     -0.2715
     95  CB        25.2890   16.6950   19.0380 C.3   204  LEU204      0.0311
     96  CG        26.3020   16.5840   20.1820 C.3   204  LEU204      0.0022
     97  CD1       26.9610   15.2120   20.2000 C.3   204  LEU204      0.0001
     98  CD2       27.3420   17.6860   20.0760 C.3   204  LEU204      0.0001
     99  N         24.1150   18.0880   16.6600 N.am  205  ALA205     -0.1963
    100  CA        23.2470   18.3370   15.5060 C.3   205  ALA205      0.1728
    101  C         22.4410   19.6210   15.7140 C.2   205  ALA205      0.2616
    102  O         21.2570   19.6730   15.3590 O.2   205  ALA205     -0.2715
    103  CB        22.3090   17.1740   15.2480 C.3   205  ALA205      0.0334
    104  N         23.0810   20.6380   16.2740 N.am  206  VAL206     -0.1977
    105  CA        22.4670   21.9410   16.5200 C.3   206  VAL206      0.1596
    106  C         23.3090   23.0740   15.9190 C.2   206  VAL206      0.2287
    107  O         23.3320   24.1710   16.4800 O.2   206  VAL206     -0.2864
    108  CB        22.2780   22.2280   18.0210 C.3   206  VAL206      0.0276
    109  CG1       21.1440   21.3860   18.5970 C.3   206  VAL206      0.0022
    110  CG2       23.5710   21.9620   18.7720 C.3   206  VAL206      0.0022
    111  N         21.6070    6.6600   22.2610 N.3   231  TYR231     -0.1241
    112  CA        20.7900    7.2660   21.2040 C.3   231  TYR231      0.1605
    113  C         21.3050    8.6640   20.8820 C.2   231  TYR231      0.2264
    114  O         21.4010    9.5230   21.7550 O.2   231  TYR231     -0.2867
    115  CB        19.3350    7.2540   21.6500 C.3   231  TYR231      0.0534
    116  CG        18.2880    8.0820   20.9580 C.ar  231  TYR231     -0.0201
    117  CD1       18.2920    8.4270   19.6180 C.ar  231  TYR231     -0.0009
    118  CD2       17.2010    8.5500   21.7130 C.ar  231  TYR231     -0.0009
    119  CE1       17.2920    9.1960   19.0520 C.ar  231  TYR231      0.0417
    120  CE2       16.1910    9.3200   21.1740 C.ar  231  TYR231      0.0417
    121  CZ        16.2430    9.6370   19.8330 C.ar  231  TYR231      0.1957
    122  OH        15.2590   10.3970   19.2490 O.3   231  TYR231     -0.2866
    123  N         20.2250   11.8850   19.2910 N.3   233  MET233     -0.1230
    124  CA        18.9780   12.5500   18.9220 C.3   233  MET233      0.1702
    125  C         19.1560   13.4950   17.7360 C.2   233  MET233      0.2592
    126  O         20.0170   14.3680   17.7100 O.2   233  MET233     -0.2718
    127  CB        18.4040   13.3120   20.1190 C.3   233  MET233      0.0401
    128  CG        18.5300   12.6100   21.4600 C.3   233  MET233      0.0596
    129  SD        17.5740   13.3870   22.7890 S.3   233  MET233     -0.1393
    130  CE        15.9050   12.9860   22.2660 C.3   233  MET233      0.0692
    131  N         18.3130   13.3300   16.7210 N.am  234  GLY234     -0.1957
    132  CA        18.3070   14.2640   15.6140 C.3   234  GLY234      0.1869
    133  C         19.2770   13.9410   14.5000 C.2   234  GLY234      0.2309
    134  O         19.3470   14.6470   13.4940 O.2   234  GLY234     -0.2863
    135  N         17.2530    8.9760   14.7880 N.3   253  ASP253     -0.1239
    136  CA        16.0460    9.5230   14.1870 C.3   253  ASP253      0.1674
    137  C         16.3940   10.7200   13.3070 C.2   253  ASP253      0.2266
    138  O         17.3330   11.4730   13.6030 O.2   253  ASP253     -0.2867
    139  CB        15.0520    9.9380   15.2750 C.3   253  ASP253      0.1410
    140  CG        15.3320   11.2960   15.8780 C.2   253  ASP253      0.3668
    141  OD1       16.0280   11.3850   16.9130 O.co2 253  ASP253     -0.2456
    142  OD2       14.8520   12.3020   15.3080 O.co2 253  ASP253     -0.2456
    143  N         14.3200   13.7010   10.4890 N.3   255  VAL255     -0.1245
    144  CA        13.2210   14.2190    9.7060 C.3   255  VAL255      0.1561
    145  C         13.7270   14.6810    8.3340 C.2   255  VAL255      0.2260
    146  O         14.7490   15.3470    8.2500 O.2   255  VAL255     -0.2867
    147  CB        12.5170   15.3860   10.3790 C.3   255  VAL255      0.0252
    148  CG1       11.3690   15.9210    9.5300 C.3   255  VAL255      0.0019
    149  CG2       11.9430   14.9060   11.7140 C.3   255  VAL255      0.0019
@<TRIPOS>BOND
     1   146   145    2
     2   145   144    1
     3   148   147    1
     4   144   147    1
     5   144   143    1
     6   147   149    1
     7   137   138    2
     8   137   136    1
     9   134   133    2
    10   136   135    1
    11   136   139    1
    12   133   132    1
    13    16    14   am
    14   103   100    1
    15   139   140    1
    16   142   140   ar
    17   102   101    2
    18   100   101    1
    19   100    99    1
    20   132   131    1
    21   101   104   am
    22     1     2    1
    23     4     3    2
    24   140   141   ar
    25   106   107    2
    26   106   105    1
    27    14    15    2
    28    14    13    1
    29   104   105    1
    30   105   108    1
    31    99    93   am
    32   131   125   am
    33     5     2    1
    34     5     6    1
    35     3     2    1
    36    13    10    1
    37    42    41    1
    38    50    49    2
    39     8     6    1
    40   126   125    2
    41    49    51   am
    42    49    48    1
    43   125   124    1
    44    93    94    2
    45    93    92    1
    46     6     7    1
    47     9    10    1
    48    40    41   ar
    49    40    38   ar
    50    48    47    1
    51   108   109    1
    52   108   110    1
    53    41    39   ar
    54    10    11    1
    55    12    11    2
    56   124   123    1
    57   124   127    1
    58    95    92    1
    59    95    96    1
    60   119   117   ar
    61   119   121   ar
    62    38    36   ar
    63    92    91    1
    64   122   121    1
    65    39    37   ar
    66    47    44    1
    67   117   116   ar
    68    46    45    2
    69   121   120   ar
    70    44    45    1
    71    44    43    1
    72    98    96    1
    73   127   128    1
    74    96    97    1
    75    91    89   am
    76    36    37   ar
    77    36    35    1
    78    34    33    2
    79   113   112    1
    80   113   114    2
    81    43    33   am
    82   116   115    1
    83   116   118   ar
    84    90    89    2
    85   120   118   ar
    86    33    32    1
    87    89    88    1
    88   112   115    1
    89   112   111    1
    90    23    22   ar
    91   128   129    1
    92    35    32    1
    93    21    22    1
    94    21    18    1
    95    17    18    1
    96    22    24   ar
    97    32    31    1
    98   130   129    1
    99    88    87    1
   100    65    64    1
   101    87    85   am
   102    18    19    1
   103    85    86    2
   104    85    84    1
   105    84    83    1
   106    64    61    1
   107    19    20    2
   108    19    25   am
   109    25    26    1
   110    61    62    1
   111    61    60    1
   112    62    63    2
   113    27    26    1
   114    27    28    2
   115    26    29    1
   116    81    80    2
   117    82    80   am
   118    72    70    1
   119    59    57   ar
   120    73    71    1
   121    30    29    1
   122    58    57   ar
   123    80    79    1
   124    71    70    1
   125    57    56    1
   126    70    67    1
   127    75    76    1
   128    75    74    1
   129    75    78    1
   130    67    68    1
   131    67    66    1
   132    79    78    1
   133    76    77    2
   134    55    54    2
   135    68    69    2
   136    56    53    1
   137    54    53    1
   138    52    53    1
