@<TRIPOS>MOLECULE
tmp/3eovA00.pdb
 155 149 0 0 0
SMALL
GASTEIGER

@<TRIPOS>ATOM
      1  N         10.9880   -1.2230   16.2450 N.3    57  ARG57      -0.1245
      2  CA         9.9190   -0.2620   16.4950 C.3    57  ARG57       0.1563
      3  C          8.8140   -0.3660   15.4470 C.2    57  ARG57       0.2260
      4  O          9.0260   -0.1040   14.2660 O.2    57  ARG57      -0.2867
      5  CB        10.4900    1.1540   16.5380 C.3    57  ARG57       0.0307
      6  CG         9.5340    2.2030   17.0500 C.3    57  ARG57       0.0489
      7  CD        10.3160    3.3940   17.5630 C.3    57  ARG57       0.2205
      8  NE         9.4580    4.5500   17.7800 N.pl3  57  ARG57      -0.0865
      9  CZ         9.2230    5.4870   16.8700 C.cat  57  ARG57       0.5346
     10  NH1        9.7900    5.4160   15.6730 N.pl3  57  ARG57       0.1354
     11  NH2        8.4060    6.4910   17.1570 N.pl3  57  ARG57       0.1354
     12  N          4.6990    0.7090   14.8800 N.3    59  ILE59      -0.1245
     13  CA         3.5860    1.5120   15.3810 C.3    59  ILE59       0.1561
     14  C          2.4190    1.4300   14.4040 C.2    59  ILE59       0.2260
     15  O          2.5360    1.8490   13.2540 O.2    59  ILE59      -0.2867
     16  CB         4.0080    2.9780   15.5550 C.3    59  ILE59       0.0252
     17  CG1        5.0250    3.0930   16.6900 C.3    59  ILE59       0.0019
     18  CG2        2.8170    3.8370   15.8160 C.3    59  ILE59       0.0019
     19  CD1        5.3470    4.5030   17.0870 C.3    59  ILE59       0.0001
     20  N         -0.6900    2.0900   12.1070 N.3    61  ASN61      -0.1225
     21  CA        -1.1030    3.2970   11.3820 C.3    61  ASN61       0.1785
     22  C         -0.0110    4.3350   11.2370 C.2    61  ASN61       0.2597
     23  O         -0.2890    5.5330   11.2040 O.2    61  ASN61      -0.2718
     24  CB        -2.2890    3.9670   12.0720 C.3    61  ASN61       0.1169
     25  CG        -3.5010    3.0940   12.1080 C.2    61  ASN61       0.2627
     26  OD1       -4.0130    2.6830   11.0690 O.2    61  ASN61      -0.2716
     27  ND2       -3.9760    2.8000   13.3120 N.am   61  ASN61      -0.0877
     28  N          1.2290    3.8860   11.1530 N.am   62  PHE62      -0.1962
     29  CA         2.3290    4.8060   11.0130 C.3    62  PHE62       0.1771
     30  C          3.4550    4.1470   10.2330 C.2    62  PHE62       0.2619
     31  O          3.6110    4.4110    9.0440 O.2    62  PHE62      -0.2715
     32  CB         2.7760    5.2780   12.4100 C.3    62  PHE62       0.0574
     33  CG         3.9450    6.2230   12.4010 C.ar   62  PHE62      -0.0200
     34  CD1        4.1010    7.1590   11.3870 C.ar   62  PHE62      -0.0042
     35  CD2        4.8960    6.1710   13.4160 C.ar   62  PHE62      -0.0042
     36  CE1        5.1840    8.0220   11.3810 C.ar   62  PHE62      -0.0003
     37  CE2        5.9810    7.0310   13.4220 C.ar   62  PHE62      -0.0003
     38  CZ         6.1270    7.9590   12.3990 C.ar   62  PHE62      -0.0000
     39  N          4.2150    3.2630   10.8710 N.am   63  MET63      -0.1977
     40  CA         5.3320    2.6260   10.1820 C.3    63  MET63       0.1605
     41  C          5.9860    1.5090   10.9680 C.2    63  MET63       0.2287
     42  O          5.6450    1.2580   12.1150 O.2    63  MET63      -0.2864
     43  CB         6.4010    3.6770    9.8330 C.3    63  MET63       0.0413
     44  CG         7.0440    4.4220   11.0200 C.3    63  MET63       0.0598
     45  SD         8.3320    3.5370   11.9560 S.3    63  MET63      -0.1393
     46  CE         7.6100    3.4370   13.5620 C.3    63  MET63       0.0692
     47  N          9.9400    0.0810   11.7800 N.3    65  GLN65      -0.1245
     48  CA        11.3400    0.5090   11.7060 C.3    65  GLN65       0.1566
     49  C         12.3360   -0.6220   11.9130 C.2    65  GLN65       0.2260
     50  O         12.0710   -1.5550   12.6650 O.2    65  GLN65      -0.2867
     51  CB        11.5680    1.5820   12.7750 C.3    65  GLN65       0.0367
     52  CG        12.8900    2.2950   12.7540 C.3    65  GLN65       0.0905
     53  CD        12.9280    3.4060   13.8060 C.2    65  GLN65       0.2608
     54  OE1       11.8800    3.8340   14.2980 O.2    65  GLN65      -0.2717
     55  NE2       14.1340    3.8840   14.1450 N.am   65  GLN65      -0.0878
     56  N         18.3800   -1.8460   19.2280 N.3    73  ASP73      -0.1225
     57  CA        17.4510   -1.0850   20.0480 C.3    73  ASP73       0.1805
     58  C         17.0570    0.2210   19.3760 C.2    73  ASP73       0.2598
     59  O         16.1070    0.8690   19.7950 O.2    73  ASP73      -0.2718
     60  CB        18.0400   -0.8180   21.4420 C.3    73  ASP73       0.1424
     61  CG        19.3590   -0.0390   21.4040 C.2    73  ASP73       0.3668
     62  OD1       19.7790    0.4460   22.4790 O.co2  73  ASP73      -0.2456
     63  OD2       19.9790    0.0830   20.3270 O.co2  73  ASP73      -0.2456
     64  N         17.7790    0.5850   18.3180 N.am   74  GLY74      -0.1942
     65  CA        17.4860    1.8140   17.5980 C.3    74  GLY74       0.2014
     66  C         18.5500    2.8830   17.7820 C.2    74  GLY74       0.2639
     67  O         18.4580    3.9750   17.2230 O.2    74  GLY74      -0.2714
     68  N         19.5800    2.5620   18.5530 N.am   75  THR75      -0.1950
     69  CA        20.6500    3.5090   18.8130 C.3    75  THR75       0.1897
     70  C         21.8610    3.2730   17.9170 C.2    75  THR75       0.2313
     71  O         22.7760    4.1000   17.8790 O.2    75  THR75      -0.2863
     72  CB        21.1020    3.4350   20.2930 C.3    75  THR75       0.1794
     73  OG1       21.8210    2.2150   20.5150 O.3    75  THR75      -0.2208
     74  CG2       19.8850    3.4650   21.2250 C.3    75  THR75       0.0378
     75  N         15.7410    6.7340    8.3760 N.3   102  ALA102     -0.1231
     76  CA        15.5080    7.1610    9.7510 C.3   102  ALA102      0.1694
     77  C         16.8080    7.8810   10.1200 C.2   102  ALA102      0.2592
     78  O         17.8590    7.5790    9.5540 O.2   102  ALA102     -0.2718
     79  CB        15.2920    5.9360   10.6600 C.3   102  ALA102      0.0304
     80  N         16.7570    8.8410   11.0350 N.am  103  ASN103     -0.1960
     81  CA        17.9800    9.5450   11.3920 C.3   103  ASN103      0.1819
     82  C         17.9660   10.2230   12.7550 C.2   103  ASN103      0.2621
     83  O         17.1180    9.9340   13.5940 O.2   103  ASN103     -0.2715
     84  CB        18.3460   10.5680   10.3030 C.3   103  ASN103      0.1195
     85  CG        17.2320   11.5750   10.0110 C.2   103  ASN103      0.2630
     86  OD1       16.6630   12.1980   10.9130 O.2   103  ASN103     -0.2716
     87  ND2       16.9350   11.7500    8.7260 N.am  103  ASN103     -0.0877
     88  N         18.9270   11.1170   12.9680 N.am  104  ALA104     -0.1963
     89  CA        19.0540   11.8600   14.2130 C.3   104  ALA104      0.1728
     90  C         19.3750   13.2990   13.8470 C.2   104  ALA104      0.2616
     91  O         20.3840   13.8440   14.2700 O.2   104  ALA104     -0.2715
     92  CB        20.1730   11.2720   15.0470 C.3   104  ALA104      0.0334
     93  N         18.5150   13.9150   13.0500 N.am  105  GLY105     -0.1955
     94  CA        18.7590   15.2810   12.6340 C.3   105  GLY105      0.1869
     95  C         19.3250   15.2470   11.2370 C.2   105  GLY105      0.2309
     96  O         19.6040   14.1620   10.7350 O.2   105  GLY105     -0.2863
     97  N         22.6370   12.5890    9.0770 N.3   108  THR108     -0.1218
     98  CA        23.0320   11.5630   10.0350 C.3   108  THR108      0.1862
     99  C         22.4990   10.1800    9.6530 C.2   108  THR108      0.2287
    100  O         22.1910    9.3470   10.5120 O.2   108  THR108     -0.2866
    101  CB        22.5450   11.9280   11.4420 C.3   108  THR108      0.1770
    102  OG1       21.1200   12.0590   11.4280 O.3   108  THR108     -0.2211
    103  CG2       23.1630   13.2520   11.8850 C.3   108  THR108      0.0375
    104  N         19.5180    2.5060    9.5790 N.3   112  GLN112     -0.1245
    105  CA        18.1130    2.3760    9.9740 C.3   112  GLN112      0.1566
    106  C         17.1780    2.9950    8.9410 C.2   112  GLN112      0.2260
    107  O         17.4020    4.1080    8.4610 O.2   112  GLN112     -0.2867
    108  CB        17.8840    3.0210   11.3360 C.3   112  GLN112      0.0367
    109  CG        18.4780    2.2510   12.4840 C.3   112  GLN112      0.0905
    110  CD        18.1050    2.8660   13.8020 C.2   112  GLN112      0.2608
    111  OE1       16.9250    3.0510   14.0960 O.2   112  GLN112     -0.2717
    112  NE2       19.1040    3.1950   14.6070 N.am  112  GLN112     -0.0878
    113  N         12.7510    2.9180    7.4620 N.3   114  PHE114     -0.1241
    114  CA        11.3850    2.5960    7.8380 C.3   114  PHE114      0.1605
    115  C         10.4940    2.4370    6.6070 C.2   114  PHE114      0.2264
    116  O         10.7830    2.9600    5.5340 O.2   114  PHE114     -0.2867
    117  CB        10.7970    3.6180    8.8470 C.3   114  PHE114      0.0534
    118  CG        10.6570    5.0190    8.3280 C.ar  114  PHE114     -0.0203
    119  CD1       11.7660    5.8410    8.1850 C.ar  114  PHE114     -0.0042
    120  CD2        9.4030    5.5310    8.0050 C.ar  114  PHE114     -0.0042
    121  CE1       11.6290    7.1610    7.7260 C.ar  114  PHE114     -0.0003
    122  CE2        9.2570    6.8440    7.5460 C.ar  114  PHE114     -0.0003
    123  CZ        10.3770    7.6550    7.4090 C.ar  114  PHE114     -0.0000
    124  N          4.0460   14.9650    7.1570 N.3   122  TRP122     -0.1227
    125  CA         4.7520   15.8200    8.0980 C.3   122  TRP122      0.1737
    126  C          6.2320   15.4430    8.1850 C.2   122  TRP122      0.2595
    127  O          7.0050   16.0870    8.8880 O.2   122  TRP122     -0.2718
    128  CB         4.0830   15.7090    9.4680 C.3   122  TRP122      0.0564
    129  CG         4.2430   14.3770   10.1010 C.ar  122  TRP122      0.0003
    130  CD1        5.3280   13.9200   10.7980 C.ar  122  TRP122      0.0946
    131  CD2        3.2910   13.3080   10.0950 C.ar  122  TRP122      0.0152
    132  NE1        5.1080   12.6370   11.2290 N.ar  122  TRP122     -0.2442
    133  CE2        3.8670   12.2330   10.8120 C.ar  122  TRP122      0.0810
    134  CE3        2.0060   13.1530    9.5540 C.ar  122  TRP122      0.0012
    135  CZ2        3.2000   11.0180   11.0060 C.ar  122  TRP122      0.0191
    136  CZ3        1.3430   11.9440    9.7500 C.ar  122  TRP122      0.0001
    137  CH2        1.9420   10.8920   10.4710 C.ar  122  TRP122      0.0015
    138  N          6.6100   14.3970    7.4550 N.am  123  LEU123     -0.1980
    139  CA         7.9830   13.8970    7.4240 C.3   123  LEU123      0.1596
    140  C          8.7740   14.2940    6.1700 C.2   123  LEU123      0.2287
    141  O          9.9910   14.1030    6.1140 O.2   123  LEU123     -0.2864
    142  CB         7.9840   12.3720    7.5540 C.3   123  LEU123      0.0297
    143  CG         7.6890   11.7680    8.9320 C.3   123  LEU123      0.0022
    144  CD1        7.8210   10.2450    8.8680 C.3   123  LEU123      0.0001
    145  CD2        8.6630   12.3340    9.9470 C.3   123  LEU123      0.0001
    146  N         13.4750   13.3340    5.5980 N.3   127  HIS127     -0.1241
    147  CA        13.8850   11.9400    5.4760 C.3   127  HIS127      0.1621
    148  C         13.9850   11.5820    4.0230 C.2   127  HIS127      0.2264
    149  O         13.0880   11.8860    3.2540 O.2   127  HIS127     -0.2867
    150  CB        12.8670   11.0490    6.1740 C.3   127  HIS127      0.0745
    151  CG        12.8420   11.2380    7.6540 C.ar  127  HIS127      0.0817
    152  ND1       13.6880   10.5550    8.5000 N.ar  127  HIS127     -0.2268
    153  CD2       12.1740   12.1260    8.4250 C.ar  127  HIS127      0.1154
    154  CE1       13.5450   11.0200    9.7290 C.ar  127  HIS127      0.1986
    155  NE2       12.6340   11.9740    9.7100 N.ar  127  HIS127     -0.2212
@<TRIPOS>BOND
     1   149   148    2
     2   148   147    1
     3   147   146    1
     4   147   150    1
     5   116   115    2
     6   141   140    2
     7   140   139    1
     8   150   151    1
     9   115   114    1
    10   124   125    1
    11   123   122   ar
    12   123   121   ar
    13   139   138    1
    14   139   142    1
    15   138   126   am
    16   113   114    1
    17   122   120   ar
    18   142   143    1
    19   151   153   ar
    20   151   152   ar
    21   121   119   ar
    22   114   117    1
    23   120   118   ar
    24   125   126    1
    25   125   128    1
    26   126   127    2
    27   119   118   ar
    28   118   117    1
    29    75    76    1
    30   153   155   ar
    31   107   106    2
    32   152   154   ar
    33    87    85   am
    34   144   143    1
    35   143   145    1
    36   106   105    1
    37    31    30    2
    38    97    98    1
    39   128   129    1
    40   134   136   ar
    41   134   131   ar
    42    78    77    2
    43   104   105    1
    44    99    98    1
    45    99   100    2
    46   155   154   ar
    47   136   137   ar
    48    76    77    1
    49    76    79    1
    50    43    40    1
    51    43    44    1
    52   105   108    1
    53    85    84    1
    54    85    86    2
    55    98   101    1
    56   131   129   ar
    57   131   133   ar
    58   129   130   ar
    59    77    80   am
    60    40    39    1
    61    40    41    1
    62    30    39   am
    63    30    29    1
    64    84    81    1
    65   137   135   ar
    66    96    95    2
    67   130   132   ar
    68   133   135   ar
    69   133   132   ar
    70    41    42    2
    71    29    28    1
    72    29    32    1
    73    44    45    1
    74    80    81    1
    75    26    25    2
    76    28    22   am
    77    23    22    2
    78    95    94    1
    79    22    21    1
    80   108   109    1
    81    36    34   ar
    82    36    38   ar
    83    21    24    1
    84    21    20    1
    85    34    33   ar
    86    81    82    1
    87   102   101    1
    88   101   103    1
    89    48    47    1
    90    48    49    1
    91    48    51    1
    92    49    50    2
    93    45    46    1
    94    24    25    1
    95    25    27   am
    96    38    37   ar
    97    33    32    1
    98    33    35   ar
    99   109   110    1
   100    94    93    1
   101    52    51    1
   102    52    53    1
   103    82    88   am
   104    82    83    2
   105    88    89    1
   106    93    90   am
   107    15    14    2
   108    35    37   ar
   109   110   111    2
   110   110   112   am
   111    53    55   am
   112    53    54    2
   113    90    89    1
   114    90    91    2
   115    89    92    1
   116     4     3    2
   117    14    13    1
   118    12    13    1
   119    13    16    1
   120     3     2    1
   121    16    18    1
   122    16    17    1
   123    10     9    1
   124     1     2    1
   125     2     5    1
   126     5     6    1
   127    17    19    1
   128     9    11    1
   129     9     8    2
   130     6     7    1
   131    67    66    2
   132     7     8    1
   133    65    66    1
   134    65    64    1
   135    66    68   am
   136    71    70    2
   137    70    69    1
   138    64    58   am
   139    68    69    1
   140    69    72    1
   141    56    57    1
   142    58    59    2
   143    58    57    1
   144    57    60    1
   145    72    73    1
   146    72    74    1
   147    63    61   ar
   148    61    60    1
   149    61    62   ar
