@<TRIPOS>MOLECULE
tmp/3epdC00.pdb
 211 204 0 0 0
SMALL
GASTEIGER

@<TRIPOS>ATOM
      1  N       -119.2890   61.1450   30.1240 N.3    87  ILE87      -0.1231
      2  CA      -118.8410   60.0830   29.2350 C.3    87  ILE87       0.1692
      3  C       -119.1680   58.7180   29.7800 C.2    87  ILE87       0.2593
      4  O       -118.8440   58.4090   30.9160 O.2    87  ILE87      -0.2718
      5  CB      -117.3210   60.2210   29.0110 C.3    87  ILE87       0.0266
      6  CG1     -117.0970   61.5640   28.3480 C.3    87  ILE87       0.0019
      7  CG2     -116.7660   59.1210   28.1000 C.3    87  ILE87       0.0020
      8  CD1     -115.6280   61.9500   28.2820 C.3    87  ILE87       0.0001
      9  N       -119.8200   57.8750   28.9840 N.am   88  THR88      -0.1939
     10  CA      -120.2720   56.5690   29.4130 C.3    88  THR88       0.2028
     11  C       -120.6660   55.7630   28.1940 C.2    88  THR88       0.2642
     12  O       -120.9770   56.3440   27.1480 O.2    88  THR88      -0.2714
     13  CB      -121.4960   56.7410   30.3450 C.3    88  THR88       0.1808
     14  OG1     -121.7770   55.4410   30.8400 O.3    88  THR88      -0.2208
     15  CG2     -122.7430   57.2750   29.6780 C.3    88  THR88       0.0379
     16  N       -120.7100   54.4370   28.3540 N.am   89  TYR89      -0.1973
     17  CA      -121.2800   53.5610   27.3250 C.3    89  TYR89       0.1639
     18  C       -122.6320   53.0430   27.8110 C.2    89  TYR89       0.2290
     19  O       -123.2230   52.1760   27.1820 O.2    89  TYR89      -0.2864
     20  CB      -120.3720   52.3510   27.0180 C.3    89  TYR89       0.0560
     21  CG      -119.9890   51.4620   28.1940 C.ar   89  TYR89      -0.0198
     22  CD1     -120.8580   50.5110   28.7080 C.ar   89  TYR89      -0.0009
     23  CD2     -118.7580   51.6360   28.7890 C.ar   89  TYR89      -0.0009
     24  CE1     -120.5020   49.7560   29.8000 C.ar   89  TYR89       0.0417
     25  CE2     -118.4030   50.8800   29.8870 C.ar   89  TYR89       0.0417
     26  CZ      -119.2760   49.9530   30.3810 C.ar   89  TYR89       0.1957
     27  OH      -118.9210   49.2350   31.4960 O.3    89  TYR89      -0.2866
     28  N       -108.2530   48.6830   27.0230 N.3   107  PHE107     -0.1241
     29  CA      -108.2620   49.0320   25.6100 C.3   107  PHE107      0.1605
     30  C       -108.0070   50.5210   25.4150 C.2   107  PHE107      0.2264
     31  O       -108.0660   51.2950   26.3750 O.2   107  PHE107     -0.2867
     32  CB      -109.6240   48.6730   24.9560 C.3   107  PHE107      0.0534
     33  CG      -110.9020   49.0980   25.6680 C.ar  107  PHE107     -0.0203
     34  CD1     -111.3120   50.4240   25.6860 C.ar  107  PHE107     -0.0042
     35  CD2     -111.6570   48.1440   26.3240 C.ar  107  PHE107     -0.0042
     36  CE1     -112.4580   50.7920   26.3670 C.ar  107  PHE107     -0.0003
     37  CE2     -112.8030   48.5180   27.0010 C.ar  107  PHE107     -0.0003
     38  CZ      -113.2090   49.8400   27.0240 C.ar  107  PHE107     -0.0000
     39  N       -109.4050   53.8910   23.0530 N.3   109  MET109     -0.1245
     40  CA      -110.7600   54.1540   22.5940 C.3   109  MET109      0.1570
     41  C       -110.7110   55.1380   21.4440 C.2   109  MET109      0.2261
     42  O       -110.0070   56.1510   21.5050 O.2   109  MET109     -0.2867
     43  CB      -111.5470   54.6840   23.7960 C.3   109  MET109      0.0387
     44  CG      -113.0220   54.9590   23.6640 C.3   109  MET109      0.0595
     45  SD      -113.9960   53.5290   23.1120 S.3   109  MET109     -0.1393
     46  CE      -114.7080   52.9650   24.6340 C.3   109  MET109      0.0692
     47  N       -112.9620   57.7080   19.2310 N.3   111  PHE111     -0.1241
     48  CA      -114.2550   58.3750   19.1970 C.3   111  PHE111      0.1605
     49  C       -114.4280   58.9950   17.8260 C.2   111  PHE111      0.2264
     50  O       -113.5140   59.7180   17.4030 O.2   111  PHE111     -0.2867
     51  CB      -114.3500   59.5180   20.1630 C.3   111  PHE111      0.0534
     52  CG      -114.4400   59.1640   21.6300 C.ar  111  PHE111     -0.0203
     53  CD1     -113.3370   58.7100   22.3180 C.ar  111  PHE111     -0.0042
     54  CD2     -115.6480   59.3010   22.2750 C.ar  111  PHE111     -0.0042
     55  CE1     -113.4550   58.3930   23.6600 C.ar  111  PHE111     -0.0003
     56  CE2     -115.7560   58.9810   23.6100 C.ar  111  PHE111     -0.0003
     57  CZ      -114.6590   58.5260   24.3080 C.ar  111  PHE111     -0.0000
     58  N       -117.1890   61.4530   15.6310 N.3   113  PHE113     -0.1241
     59  CA      -118.3120   62.3590   15.8890 C.3   113  PHE113      0.1605
     60  C       -119.0570   62.6940   14.6010 C.2   113  PHE113      0.2264
     61  O       -118.4600   63.2890   13.6850 O.2   113  PHE113     -0.2867
     62  CB      -117.8020   63.6700   16.5070 C.3   113  PHE113      0.0534
     63  CG      -117.0050   63.4940   17.7960 C.ar  113  PHE113     -0.0203
     64  CD1     -115.6500   63.2210   17.7340 C.ar  113  PHE113     -0.0042
     65  CD2     -117.6380   63.5700   19.0220 C.ar  113  PHE113     -0.0042
     66  CE1     -114.9460   63.0270   18.9030 C.ar  113  PHE113     -0.0003
     67  CE2     -116.9190   63.3760   20.1880 C.ar  113  PHE113     -0.0003
     68  CZ      -115.5770   63.1070   20.1270 C.ar  113  PHE113     -0.0000
     69  N       -115.8990   70.8380   20.8330 N.3   134  ILE134     -0.1245
     70  CA      -116.1970   69.7170   21.7150 C.3   134  ILE134      0.1561
     71  C       -115.0120   69.7570   22.6630 C.2   134  ILE134      0.2260
     72  O       -113.8830   69.5030   22.2260 O.2   134  ILE134     -0.2867
     73  CB      -116.2310   68.3920   20.9070 C.3   134  ILE134      0.0252
     74  CG1     -117.3190   68.4890   19.8420 C.3   134  ILE134      0.0019
     75  CG2     -116.4730   67.2170   21.8340 C.3   134  ILE134      0.0019
     76  CD1     -117.2820   67.4100   18.7720 C.3   134  ILE134      0.0001
     77  N       -113.1380   68.4480   26.2140 N.3   136  TYR136     -0.1241
     78  CA      -113.1690   67.4200   27.2350 C.3   136  TYR136      0.1605
     79  C       -112.8650   68.0810   28.5650 C.2   136  TYR136      0.2264
     80  O       -111.8510   68.7720   28.6730 O.2   136  TYR136     -0.2867
     81  CB      -112.1370   66.3800   26.8970 C.3   136  TYR136      0.0534
     82  CG      -111.9380   65.3500   27.9900 C.ar  136  TYR136     -0.0201
     83  CD1     -113.0270   64.7930   28.6350 C.ar  136  TYR136     -0.0009
     84  CD2     -110.6530   64.9900   28.3440 C.ar  136  TYR136     -0.0009
     85  CE1     -112.8360   63.8750   29.6400 C.ar  136  TYR136      0.0417
     86  CE2     -110.4580   64.0650   29.3500 C.ar  136  TYR136      0.0417
     87  CZ      -111.5530   63.5160   29.9870 C.ar  136  TYR136      0.1957
     88  OH      -111.3580   62.5630   30.9670 O.3   136  TYR136     -0.2866
     89  N       -108.2320   69.2360   26.2150 N.3   158  PRO158     -0.2102
     90  CA      -108.2210   69.1000   24.7660 C.3   158  PRO158      0.1504
     91  C       -109.5690   69.4670   24.1900 C.2   158  PRO158      0.2576
     92  O       -110.6010   69.1530   24.8020 O.2   158  PRO158     -0.2718
     93  CB      -107.8360   67.6740   24.5630 C.3   158  PRO158      0.0282
     94  CG      -108.3880   66.9370   25.7510 C.3   158  PRO158      0.0208
     95  CD      -108.2130   67.9340   26.8830 C.3   158  PRO158      0.0893
     96  N       -109.6250   70.2180   23.0890 N.am  159  SER159     -0.1938
     97  CA      -110.8580   70.4650   22.3550 C.3   159  SER159      0.2055
     98  C       -110.7340   70.0610   20.9000 C.2   159  SER159      0.2642
     99  O       -109.6110   70.0740   20.3670 O.2   159  SER159     -0.2714
    100  CB      -111.2200   71.9160   22.3270 C.3   159  SER159      0.2130
    101  OG      -111.5190   72.4180   23.6110 O.3   159  SER159     -0.2179
    102  N       -111.8350   69.6830   20.2480 N.am  160  ILE160     -0.1977
    103  CA      -111.9210   69.4860   18.8090 C.3   160  ILE160      0.1596
    104  C       -112.7290   70.6710   18.2790 C.2   160  ILE160      0.2287
    105  O       -113.7600   70.9980   18.8760 O.2   160  ILE160     -0.2864
    106  CB      -112.6720   68.1850   18.4650 C.3   160  ILE160      0.0276
    107  CG1     -111.8690   66.9770   18.8820 C.3   160  ILE160      0.0022
    108  CG2     -112.8880   68.0960   16.9710 C.3   160  ILE160      0.0022
    109  CD1     -112.7570   65.7250   18.8760 C.3   160  ILE160      0.0001
    110  N       -110.7350   61.0210   17.0690 N.3   171  ILE171     -0.1245
    111  CA      -109.5640   61.0900   17.9300 C.3   171  ILE171      0.1561
    112  C       -109.4200   59.7370   18.6540 C.2   171  ILE171      0.2260
    113  O       -110.3910   58.9700   18.7410 O.2   171  ILE171     -0.2867
    114  CB      -109.6780   62.2400   19.0030 C.3   171  ILE171      0.0252
    115  CG1     -110.9160   62.1410   19.8760 C.3   171  ILE171      0.0019
    116  CG2     -109.6910   63.5570   18.2640 C.3   171  ILE171      0.0019
    117  CD1     -110.7740   61.2840   21.1440 C.3   171  ILE171      0.0001
    118  N       -107.8510   57.8510   22.3590 N.3   173  VAL173     -0.1245
    119  CA      -107.5670   58.1190   23.7520 C.3   173  VAL173      0.1561
    120  C       -106.8580   56.8760   24.2810 C.2   173  VAL173      0.2260
    121  O       -107.1780   55.7660   23.8240 O.2   173  VAL173     -0.2867
    122  CB      -108.9480   58.4150   24.3740 C.3   173  VAL173      0.0252
    123  CG1     -109.0730   58.0540   25.8060 C.3   173  VAL173      0.0019
    124  CG2     -109.0930   59.9130   24.3970 C.3   173  VAL173      0.0019
    125  N       -107.0170   54.9410   30.1400 N.3   176  VAL176     -0.1231
    126  CA      -106.8830   56.0060   31.1340 C.3   176  VAL176      0.1692
    127  C       -107.3780   55.6100   32.5090 C.2   176  VAL176      0.2592
    128  O       -107.6100   56.4670   33.3760 O.2   176  VAL176     -0.2718
    129  CB      -107.6500   57.3190   30.6860 C.3   176  VAL176      0.0266
    130  CG1     -107.0480   57.8910   29.4140 C.3   176  VAL176      0.0020
    131  CG2     -109.1130   57.0160   30.4280 C.3   176  VAL176      0.0020
    132  N       -107.5220   54.3190   32.7450 N.am  177  GLY177     -0.1957
    133  CA      -108.0970   53.8350   33.9870 C.3   177  GLY177      0.1869
    134  C       -107.1680   54.0830   35.1530 C.2   177  GLY177      0.2309
    135  O       -105.9610   54.2350   34.9810 O.2   177  GLY177     -0.2863
    136  N       -107.0490   47.5720   34.9950 N.3   181  ALA181     -0.1231
    137  CA      -108.0520   47.2200   34.0030 C.3   181  ALA181      0.1694
    138  C       -109.2970   48.0420   34.3640 C.2   181  ALA181      0.2592
    139  O       -109.3930   48.5990   35.4630 O.2   181  ALA181     -0.2718
    140  CB      -108.3730   45.7450   34.0910 C.3   181  ALA181      0.0304
    141  N       -110.2240   48.2690   33.4410 N.am  182  TYR182     -0.1962
    142  CA      -111.5050   48.9220   33.6760 C.3   182  TYR182      0.1771
    143  C       -112.3890   47.8900   34.3630 C.2   182  TYR182      0.2620
    144  O       -112.3170   46.7250   33.9600 O.2   182  TYR182     -0.2715
    145  CB      -112.1640   49.3120   32.3650 C.3   182  TYR182      0.0574
    146  CG      -111.5300   50.4600   31.6000 C.ar  182  TYR182     -0.0198
    147  CD1     -111.2880   51.6550   32.2480 C.ar  182  TYR182     -0.0009
    148  CD2     -111.2200   50.3320   30.2610 C.ar  182  TYR182     -0.0009
    149  CE1     -110.7510   52.7250   31.5790 C.ar  182  TYR182      0.0417
    150  CE2     -110.6740   51.4090   29.5800 C.ar  182  TYR182      0.0417
    151  CZ      -110.4470   52.5940   30.2440 C.ar  182  TYR182      0.1957
    152  OH      -109.8880   53.6950   29.6220 O.3   182  TYR182     -0.2866
    153  N       -113.2190   48.2330   35.3590 N.am  183  SER183     -0.1936
    154  CA      -114.1190   47.2600   35.9620 C.3   183  SER183      0.2055
    155  C       -115.4870   47.4870   35.3880 C.2   183  SER183      0.2643
    156  O       -116.0140   48.6040   35.4660 O.2   183  SER183     -0.2714
    157  CB      -114.2500   47.4140   37.4540 C.3   183  SER183      0.2130
    158  OG      -112.9540   47.2490   38.0080 O.3   183  SER183     -0.2179
    159  N       -116.0150   46.4630   34.7250 N.am  184  HIS184     -0.1973
    160  CA      -117.3500   46.5650   34.1840 C.3   184  HIS184      0.1656
    161  C       -118.3320   46.2810   35.3020 C.2   184  HIS184      0.2291
    162  O       -119.5240   46.5630   35.1800 O.2   184  HIS184     -0.2864
    163  CB      -117.5980   45.5560   33.0840 C.3   184  HIS184      0.0771
    164  CG      -116.7460   45.7120   31.8390 C.ar  184  HIS184      0.0820
    165  ND1     -116.6510   44.8210   30.8480 N.ar  184  HIS184     -0.2267
    166  CD2     -115.9270   46.7680   31.5260 C.ar  184  HIS184      0.1154
    167  CE1     -115.8100   45.2960   29.9600 C.ar  184  HIS184      0.1986
    168  NE2     -115.3800   46.4650   30.3790 N.ar  184  HIS184     -0.2212
    169  N       -118.2720   53.6530   41.7300 N.3   210  MET210     -0.1245
    170  CA      -116.9180   53.8580   42.1770 C.3   210  MET210      0.1570
    171  C       -116.6890   55.3480   42.3870 C.2   210  MET210      0.2261
    172  O       -117.0650   55.9040   43.4190 O.2   210  MET210     -0.2867
    173  CB      -115.9790   53.2840   41.1200 C.3   210  MET210      0.0387
    174  CG      -116.1170   51.7950   40.9180 C.3   210  MET210      0.0595
    175  SD      -114.9070   51.0230   39.8080 S.3   210  MET210     -0.1393
    176  CE      -115.9410   51.0020   38.3700 C.3   210  MET210      0.0692
    177  N       -116.4600   59.8620   37.3610 N.3   214  ASP214     -0.1225
    178  CA      -115.9050   58.8750   36.4490 C.3   214  ASP214      0.1805
    179  C       -114.8710   59.3480   35.4500 C.2   214  ASP214      0.2597
    180  O       -113.7090   59.4430   35.8460 O.2   214  ASP214     -0.2718
    181  CB      -117.0190   58.1700   35.6660 C.3   214  ASP214      0.1424
    182  CG      -117.7030   57.0020   36.3430 C.2   214  ASP214      0.3668
    183  OD1     -117.0440   56.1590   36.9830 O.co2 214  ASP214     -0.2456
    184  OD2     -118.9210   56.9700   36.1840 O.co2 214  ASP214     -0.2456
    185  N       -115.2130   59.6290   34.1940 N.am  215  PHE215     -0.1976
    186  CA      -114.2660   60.0740   33.2040 C.3   215  PHE215      0.1639
    187  C       -114.4910   61.5310   32.8800 C.2   215  PHE215      0.2290
    188  O       -113.8090   62.0420   32.0010 O.2   215  PHE215     -0.2864
    189  CB      -114.4130   59.2570   31.9400 C.3   215  PHE215      0.0560
    190  CG      -114.1230   57.7810   32.1860 C.ar  215  PHE215     -0.0200
    191  CD1     -112.8500   57.3750   32.6040 C.ar  215  PHE215     -0.0042
    192  CD2     -115.1420   56.8440   32.0220 C.ar  215  PHE215     -0.0042
    193  CE1     -112.6000   56.0410   32.8770 C.ar  215  PHE215     -0.0003
    194  CE2     -114.8760   55.5160   32.3010 C.ar  215  PHE215     -0.0003
    195  CZ      -113.6130   55.1220   32.7200 C.ar  215  PHE215     -0.0000
    196  N       -118.0200   65.7490   28.2130 N.3   218  LEU218     -0.1245
    197  CA      -117.7610   66.4680   26.9730 C.3   218  LEU218      0.1561
    198  C       -118.7000   67.6800   26.9770 C.2   218  LEU218      0.2260
    199  O       -119.9050   67.5170   27.2230 O.2   218  LEU218     -0.2867
    200  CB      -118.0710   65.6090   25.7500 C.3   218  LEU218      0.0270
    201  CG      -117.1470   64.4120   25.5090 C.3   218  LEU218      0.0019
    202  CD1     -117.5370   63.7340   24.2170 C.3   218  LEU218      0.0001
    203  CD2     -115.7080   64.8610   25.3980 C.3   218  LEU218      0.0001
    204  N       -118.1800   55.0670   19.7340 N.3   239  MET239     -0.1245
    205  CA      -116.9990   54.5820   20.4180 C.3   239  MET239      0.1570
    206  C       -116.5400   53.2740   19.8030 C.2   239  MET239      0.2261
    207  O       -117.4040   52.4390   19.5110 O.2   239  MET239     -0.2867
    208  CB      -117.2570   54.2720   21.8700 C.3   239  MET239      0.0387
    209  CG      -117.3290   55.4410   22.8150 C.3   239  MET239      0.0595
    210  SD      -117.6580   54.7600   24.4670 S.3   239  MET239     -0.1393
    211  CE      -117.6380   56.2640   25.4080 C.3   239  MET239      0.0692
@<TRIPOS>BOND
     1    61    60    2
     2    60    59    1
     3    58    59    1
     4    59    62    1
     5    62    63    1
     6   108   106    1
     7   110   111    1
     8    50    49    2
     9    64    63   ar
    10    64    66   ar
    11    63    65   ar
    12    49    48    1
    13   111   112    1
    14   111   114    1
    15   116   114    1
    16   104   103    1
    17   104   105    2
    18   106   103    1
    19   106   107    1
    20   112   113    2
    21    76    74    1
    22   103   102    1
    23   109   107    1
    24    66    68   ar
    25   114   115    1
    26    65    67   ar
    27    48    47    1
    28    48    51    1
    29   207   206    2
    30   204   205    1
    31   206   205    1
    32    74    73    1
    33   115   117    1
    34    68    67   ar
    35    51    52    1
    36   102    98   am
    37    99    98    2
    38   205   208    1
    39    69    70    1
    40    98    97    1
    41    73    70    1
    42    73    75    1
    43    41    42    2
    44    41    40    1
    45    52    54   ar
    46    52    53   ar
    47    70    71    1
    48   208   209    1
    49    72    71    2
    50    54    56   ar
    51    53    55   ar
    52   100    97    1
    53   100   101    1
    54    97    96    1
    55   118   119    1
    56    40    39    1
    57    40    43    1
    58   209   210    1
    59    96    91   am
    60    45    44    1
    61    45    46    1
    62    56    57   ar
    63    55    57   ar
    64    44    43    1
    65   119   120    1
    66   119   122    1
    67   121   120    2
    68    91    90    1
    69    91    92    2
    70   202   201    1
    71   122   124    1
    72   122   123    1
    73   210   211    1
    74    93    90    1
    75    93    94    1
    76    90    89    1
    77    32    29    1
    78    32    33    1
    79   203   201    1
    80    30    29    1
    81    30    31    2
    82   201   200    1
    83    29    28    1
    84    33    34   ar
    85    33    35   ar
    86    34    36   ar
    87   200   197    1
    88    94    95    1
    89    77    78    1
    90    89    95    1
    91    35    37   ar
    92    36    38   ar
    93    81    78    1
    94    81    82    1
    95   197   198    1
    96   197   196    1
    97   198   199    2
    98    37    38   ar
    99    20    17    1
   100    20    21    1
   101    12    11    2
   102    19    18    2
   103    78    79    1
   104    17    18    1
   105    17    16    1
   106    82    84   ar
   107    82    83   ar
   108     7     5    1
   109    21    22   ar
   110    21    23   ar
   111    11    16   am
   112    11    10    1
   113     8     6    1
   114    84    86   ar
   115     6     5    1
   116    79    80    2
   117    83    85   ar
   118    22    24   ar
   119    23    25   ar
   120     9    10    1
   121     9     3   am
   122     5     2    1
   123     2     3    1
   124     2     1    1
   125    86    87   ar
   126    10    13    1
   127   130   129    1
   128   150   151   ar
   129   150   148   ar
   130   152   151    1
   131    85    87   ar
   132    15    13    1
   133     3     4    2
   134    24    26   ar
   135    25    26   ar
   136   167   168   ar
   137   167   165   ar
   138    87    88    1
   139   125   126    1
   140   151   149   ar
   141   148   146   ar
   142    13    14    1
   143   168   166   ar
   144    26    27    1
   145   131   129    1
   146   129   126    1
   147   165   164   ar
   148   126   127    1
   149   166   164   ar
   150   149   147   ar
   151   146   147   ar
   152   146   145    1
   153   164   163    1
   154   189   190    1
   155   189   186    1
   156   188   187    2
   157   192   190   ar
   158   192   194   ar
   159   190   191   ar
   160   194   195   ar
   161   145   142    1
   162   127   132   am
   163   127   128    2
   164   191   193   ar
   165   195   193   ar
   166   132   133    1
   167   187   186    1
   168   163   160    1
   169   186   185    1
   170   141   142    1
   171   141   138   am
   172   142   143    1
   173   144   143    2
   174   133   134    1
   175   137   140    1
   176   137   138    1
   177   137   136    1
   178   160   159    1
   179   160   161    1
   180   185   179   am
   181   143   153   am
   182   138   139    2
   183   159   155   am
   184   135   134    2
   185   162   161    2
   186   153   154    1
   187   155   156    2
   188   155   154    1
   189   179   180    2
   190   179   178    1
   191   181   182    1
   192   181   178    1
   193   154   157    1
   194   184   182   ar
   195   182   183   ar
   196   178   177    1
   197   157   158    1
   198   176   175    1
   199   175   174    1
   200   174   173    1
   201   173   170    1
   202   169   170    1
   203   170   171    1
   204   171   172    2
