@<TRIPOS>MOLECULE
tmp/3epkC00.pdb
 93 87 0 0 0
SMALL
GASTEIGER

@<TRIPOS>ATOM
      1  N         87.2320   67.8710   48.5200 N.3    11  THR11      -0.1203
      2  CA        86.9820   69.2860   48.7730 C.3    11  THR11       0.1994
      3  C         86.7150   70.0110   47.4580 C.2    11  THR11       0.2618
      4  O         87.4350   69.8310   46.4800 O.2    11  THR11      -0.2717
      5  CB        88.1950   69.9550   49.4720 C.3    11  THR11       0.1784
      6  OG1       88.1020   71.3810   49.3600 O.3    11  THR11      -0.2211
      7  CG2       89.4780   69.4930   48.8420 C.3    11  THR11       0.0376
      8  N         85.6630   70.8180   47.4350 N.am   12  GLY12      -0.1942
      9  CA        85.3450   71.5670   46.2370 C.3    12  GLY12       0.2014
     10  C         84.5250   70.8200   45.2080 C.2    12  GLY12       0.2639
     11  O         84.7070   71.0200   44.0120 O.2    12  GLY12      -0.2714
     12  N         83.6300   69.9540   45.6630 N.am   13  VAL13      -0.1963
     13  CA        82.7730   69.2140   44.7500 C.3    13  VAL13       0.1727
     14  C         81.3320   69.6810   44.9100 C.2    13  VAL13       0.2617
     15  O         80.4550   69.2590   44.1720 O.2    13  VAL13      -0.2715
     16  CB        82.8080   67.7010   45.0150 C.3    13  VAL13       0.0290
     17  CG1       84.2000   67.1680   44.8100 C.3    13  VAL13       0.0023
     18  CG2       82.3350   67.4080   46.4150 C.3    13  VAL13       0.0023
     19  N         81.0820   70.5460   45.8880 N.am   14  GLY14      -0.1940
     20  CA        79.7310   71.0400   46.0920 C.3    14  GLY14       0.2014
     21  C         78.9220   70.2250   47.0830 C.2    14  GLY14       0.2639
     22  O         77.6970   70.1080   46.9610 O.2    14  GLY14      -0.2714
     23  N         79.5900   69.6550   48.0770 N.am   15  LYS15      -0.1963
     24  CA        78.8690   68.8680   49.0560 C.3    15  LYS15       0.1728
     25  C         77.8340   69.7160   49.7910 C.2    15  LYS15       0.2616
     26  O         76.6490   69.3850   49.8170 O.2    15  LYS15      -0.2715
     27  CB        79.8460   68.2460   50.0460 C.3    15  LYS15       0.0311
     28  CG        80.6150   67.0610   49.4790 C.3    15  LYS15       0.0038
     29  CD        81.4130   66.3400   50.5570 C.3    15  LYS15       0.0206
     30  CE        82.4920   67.2310   51.1710 C.3    15  LYS15       0.1093
     31  NZ        83.4760   67.7750   50.1840 N.3    15  LYS15      -0.1314
     32  N         78.2780   70.8190   50.3800 N.am   16  SER16      -0.1950
     33  CA        77.3620   71.6820   51.1100 C.3    16  SER16       0.1924
     34  C         76.2070   72.1060   50.2230 C.2    16  SER16       0.2314
     35  O         75.0550   71.9350   50.5920 O.2    16  SER16      -0.2863
     36  CB        78.0920   72.9160   51.6620 C.3    16  SER16       0.2116
     37  OG        79.0190   72.5540   52.6740 O.3    16  SER16      -0.2180
     38  N         83.4060   68.4260   59.2910 N.3    34  ASP34      -0.1239
     39  CA        84.6620   68.9590   58.8200 C.3    34  ASP34       0.1674
     40  C         85.5360   69.3550   60.0000 C.2    34  ASP34       0.2266
     41  O         85.2810   70.3420   60.6780 O.2    34  ASP34      -0.2867
     42  CB        84.4070   70.1590   57.9220 C.3    34  ASP34       0.1410
     43  CG        85.6140   70.5200   57.1060 C.2    34  ASP34       0.3668
     44  OD1       86.6190   70.9620   57.7100 O.co2  34  ASP34      -0.2456
     45  OD2       85.5610   70.3410   55.8680 O.co2  34  ASP34      -0.2456
     46  N         86.0540   73.1430   60.1220 N.3    37  GLN37      -0.1245
     47  CA        84.8930   74.0150   60.1800 C.3    37  GLN37       0.1566
     48  C         84.2520   74.0430   61.5430 C.2    37  GLN37       0.2260
     49  O         83.2940   74.7800   61.7610 O.2    37  GLN37      -0.2867
     50  CB        83.8560   73.6050   59.1370 C.3    37  GLN37       0.0367
     51  CG        84.3160   73.8560   57.7320 C.3    37  GLN37       0.0905
     52  CD        83.2250   73.6250   56.7240 C.2    37  GLN37       0.2608
     53  OE1       82.1310   74.1620   56.8510 O.2    37  GLN37      -0.2717
     54  NE2       83.5160   72.8270   55.7060 N.am   37  GLN37      -0.0878
     55  N         86.5880   77.7790   54.5520 N.3    47  ASN47      -0.1240
     56  CA        85.4950   77.6790   53.5930 C.3    47  ASN47       0.1653
     57  C         84.1820   77.1580   54.1490 C.2    47  ASN47       0.2266
     58  O         83.7860   76.0330   53.8790 O.2    47  ASN47      -0.2867
     59  CB        85.9210   76.8130   52.4130 C.3    47  ASN47       0.1155
     60  CG        84.8820   76.7780   51.3240 C.2    47  ASN47       0.2627
     61  OD1       84.4610   77.8230   50.8240 O.2    47  ASN47      -0.2716
     62  ND2       84.4570   75.5760   50.9440 N.am   47  ASN47      -0.0877
     63  N         80.6920   66.6380   55.1850 N.3    98  GLY98      -0.1210
     64  CA        82.0330   67.0960   55.4840 C.3    98  GLY98       0.1956
     65  C         83.0780   66.3380   54.7000 C.2    98  GLY98       0.2612
     66  O         82.7910   65.3080   54.1000 O.2    98  GLY98      -0.2717
     67  N         84.2980   66.8610   54.7080 N.am   99  GLY99      -0.1956
     68  CA        85.3860   66.2250   53.9880 C.3    99  GLY99       0.1869
     69  C         86.2540   65.3580   54.8830 C.2    99  GLY99       0.2309
     70  O         87.1460   64.6490   54.3990 O.2    99  GLY99      -0.2863
     71  N         89.6210   78.5680   43.1980 N.3   208  ARG208     -0.1245
     72  CA        88.9150   78.8250   44.4370 C.3   208  ARG208      0.1563
     73  C         89.8860   79.3270   45.4880 C.2   208  ARG208      0.2260
     74  O         89.5160   80.1150   46.3450 O.2   208  ARG208     -0.2867
     75  CB        88.1170   77.5970   44.8900 C.3   208  ARG208      0.0307
     76  CG        88.6850   76.6770   45.9210 C.3   208  ARG208      0.0489
     77  CD        88.6730   77.1300   47.3530 C.3   208  ARG208      0.2205
     78  NE        89.2950   76.0650   48.1330 N.pl3 208  ARG208     -0.0865
     79  CZ        88.7210   74.8980   48.4170 C.cat 208  ARG208      0.5346
     80  NH1       87.4880   74.6290   48.0050 N.pl3 208  ARG208      0.1354
     81  NH2       89.4020   73.9790   49.0820 N.pl3 208  ARG208      0.1354
     82  N         95.4110   67.2160   49.4500 N.3   273  TYR273     -0.1241
     83  CA        94.2950   66.8360   50.3150 C.3   273  TYR273      0.1605
     84  C         93.1820   66.1710   49.5270 C.2   273  TYR273      0.2264
     85  O         92.6340   65.1390   49.9240 O.2   273  TYR273     -0.2867
     86  CB        93.7340   68.0660   51.0210 C.3   273  TYR273      0.0534
     87  CG        92.5330   67.7860   51.8690 C.ar  273  TYR273     -0.0201
     88  CD1       92.4220   66.5950   52.5990 C.ar  273  TYR273     -0.0009
     89  CD2       91.5100   68.7110   51.9730 C.ar  273  TYR273     -0.0009
     90  CE1       91.3140   66.3410   53.4080 C.ar  273  TYR273      0.0417
     91  CE2       90.3990   68.4730   52.7770 C.ar  273  TYR273      0.0417
     92  CZ        90.3080   67.2900   53.4870 C.ar  273  TYR273      0.1957
     93  OH        89.1950   67.0700   54.2580 O.3   273  TYR273     -0.2866
@<TRIPOS>BOND
     1    71    72    1
     2    11    10    2
     3    15    14    2
     4    72    75    1
     5    72    73    1
     6    13    14    1
     7    13    16    1
     8    13    12    1
     9    17    16    1
    10    75    76    1
    11    14    19   am
    12    16    18    1
    13    10    12   am
    14    10     9    1
    15    73    74    2
    16    19    20    1
    17    76    77    1
    18    20    21    1
    19     9     8    1
    20     4     3    2
    21    22    21    2
    22    21    23   am
    23    77    78    1
    24     8     3   am
    25     3     2    1
    26    80    79    1
    27    23    24    1
    28    78    79    2
    29    79    81    1
    30     1     2    1
    31     2     5    1
    32     7     5    1
    33    24    25    1
    34    24    27    1
    35     6     5    1
    36    82    83    1
    37    28    27    1
    38    28    29    1
    39    84    85    2
    40    84    83    1
    41    25    26    2
    42    25    32   am
    43    31    30    1
    44    34    35    2
    45    34    33    1
    46    83    86    1
    47    32    33    1
    48    29    30    1
    49    61    60    2
    50    62    60   am
    51    86    87    1
    52    33    36    1
    53    60    59    1
    54    36    37    1
    55    87    89   ar
    56    87    88   ar
    57    89    91   ar
    58    59    56    1
    59    88    90   ar
    60    91    92   ar
    61    90    92   ar
    62    92    93    1
    63    56    57    1
    64    56    55    1
    65    58    57    2
    66    68    67    1
    67    68    69    1
    68    66    65    2
    69    70    69    2
    70    65    67   am
    71    65    64    1
    72    63    64    1
    73    54    52   am
    74    45    43   ar
    75    52    53    2
    76    52    51    1
    77    43    44   ar
    78    43    42    1
    79    51    50    1
    80    42    39    1
    81    39    38    1
    82    39    40    1
    83    50    47    1
    84    40    41    2
    85    46    47    1
    86    47    48    1
    87    48    49    2
