@<TRIPOS>MOLECULE
tmp/3epkA00.pdb
 147 138 0 0 0
SMALL
GASTEIGER

@<TRIPOS>ATOM
      1  N         67.7970   24.5340   44.1330 N.3    11  THR11      -0.1203
      2  CA        67.9230   23.1180   44.4380 C.3    11  THR11       0.1994
      3  C         68.7750   22.3660   43.3950 C.2    11  THR11       0.2618
      4  O         68.5750   22.5030   42.1810 O.2    11  THR11      -0.2717
      5  CB        66.5290   22.4630   44.4990 C.3    11  THR11       0.1784
      6  OG1       66.6630   21.0380   44.4300 O.3    11  THR11      -0.2211
      7  CG2       65.6690   22.9430   43.3490 C.3    11  THR11       0.0376
      8  N         69.7320   21.5770   43.8640 N.am   12  GLY12      -0.1942
      9  CA        70.5280   20.8070   42.9330 C.3    12  GLY12       0.2014
     10  C         71.7100   21.5270   42.3370 C.2    12  GLY12       0.2639
     11  O         72.0810   21.2710   41.1910 O.2    12  GLY12      -0.2714
     12  N         72.3040   22.4280   43.1100 N.am   13  VAL13      -0.1963
     13  CA        73.4880   23.1430   42.6510 C.3    13  VAL13       0.1727
     14  C         74.7090   22.6540   43.4210 C.2    13  VAL13       0.2617
     15  O         75.8340   22.9950   43.0740 O.2    13  VAL13      -0.2715
     16  CB        73.3720   24.6570   42.8510 C.3    13  VAL13       0.0290
     17  CG1       72.1930   25.1800   42.0830 C.3    13  VAL13       0.0023
     18  CG2       73.2380   24.9720   44.3260 C.3    13  VAL13       0.0023
     19  N         74.4940   21.8670   44.4710 N.am   14  GLY14      -0.1940
     20  CA        75.6180   21.3550   45.2340 C.3    14  GLY14       0.2014
     21  C         75.9100   22.1300   46.4990 C.2    14  GLY14       0.2639
     22  O         77.0460   22.1660   46.9760 O.2    14  GLY14      -0.2714
     23  N         74.8800   22.7480   47.0550 N.am   15  LYS15      -0.1963
     24  CA        75.0750   23.5170   48.2650 C.3    15  LYS15       0.1728
     25  C         75.6600   22.6850   49.3890 C.2    15  LYS15       0.2617
     26  O         76.6790   23.0520   49.9650 O.2    15  LYS15      -0.2715
     27  CB        73.7630   24.1490   48.7160 C.3    15  LYS15       0.0311
     28  CG        73.3260   25.3110   47.8600 C.3    15  LYS15       0.0038
     29  CD        72.1480   26.0170   48.4850 C.3    15  LYS15       0.0206
     30  CE        70.9550   25.0840   48.5760 C.3    15  LYS15       0.1093
     31  NZ        70.5550   24.5690   47.2360 N.3    15  LYS15      -0.1314
     32  N         75.0220   21.5610   49.6920 N.am   16  SER16      -0.1936
     33  CA        75.4830   20.6940   50.7700 C.3    16  SER16       0.2055
     34  C         76.9190   20.2220   50.5450 C.2    16  SER16       0.2642
     35  O         77.7530   20.2890   51.4550 O.2    16  SER16      -0.2714
     36  CB        74.5490   19.4830   50.9300 C.3    16  SER16       0.2130
     37  OG        73.2550   19.8670   51.3690 O.3    16  SER16      -0.2179
     38  N         77.2160   19.7670   49.3320 N.am   17  GLN17      -0.1976
     39  CA        78.5500   19.2830   49.0300 C.3    17  GLN17       0.1601
     40  C         79.5900   20.3720   49.2980 C.2    17  GLN17       0.2287
     41  O         80.6890   20.1010   49.7880 O.2    17  GLN17      -0.2864
     42  CB        78.6240   18.8280   47.5810 C.3    17  GLN17       0.0394
     43  CG        79.8390   17.9950   47.3100 C.3    17  GLN17       0.0908
     44  CD        80.1660   17.9230   45.8440 C.2    17  GLN17       0.2608
     45  OE1       79.3200   17.5570   45.0190 O.2    17  GLN17      -0.2717
     46  NE2       81.4050   18.2700   45.5010 N.am   17  GLN17      -0.0878
     47  N         66.4440   24.0050   55.3850 N.3    34  ASP34      -0.1239
     48  CA        65.5120   23.4680   54.4190 C.3    34  ASP34       0.1674
     49  C         64.1910   23.0650   55.0790 C.2    34  ASP34       0.2266
     50  O         64.0890   22.0600   55.7840 O.2    34  ASP34      -0.2867
     51  CB        66.1500   22.2790   53.7210 C.3    34  ASP34       0.1410
     52  CG        65.4160   21.8880   52.4780 C.2    34  ASP34       0.3668
     53  OD1       64.2380   21.4810   52.5960 O.co2  34  ASP34      -0.2456
     54  OD2       66.0130   22.0020   51.3850 O.co2  34  ASP34      -0.2456
     55  N         63.6800   19.2890   54.9820 N.3    37  GLN37      -0.1245
     56  CA        64.6840   18.3940   55.5450 C.3    37  GLN37       0.1566
     57  C         64.6670   18.3600   57.0520 C.2    37  GLN37       0.2260
     58  O         65.4360   17.6290   57.6630 O.2    37  GLN37      -0.2867
     59  CB        66.0760   18.7910   55.0700 C.3    37  GLN37       0.0367
     60  CG        66.2670   18.5300   53.6070 C.3    37  GLN37       0.0905
     61  CD        67.6860   18.7210   53.1550 C.2    37  GLN37       0.2608
     62  OE1       68.6220   18.1820   53.7470 O.2    37  GLN37      -0.2717
     63  NE2       67.8600   19.4810   52.0820 N.am   37  GLN37      -0.0878
     64  N         63.5170   11.4150   48.8960 N.3    45  ILE45      -0.1231
     65  CA        62.7620   12.4850   48.2320 C.3    45  ILE45       0.1692
     66  C         63.0220   13.8700   48.8190 C.2    45  ILE45       0.2593
     67  O         63.0160   14.8730   48.0960 O.2    45  ILE45      -0.2718
     68  CB        61.2210   12.2280   48.2450 C.3    45  ILE45       0.0266
     69  CG1       60.6620   12.3610   49.6530 C.3    45  ILE45       0.0019
     70  CG2       60.9140   10.8430   47.7150 C.3    45  ILE45       0.0020
     71  CD1       59.1710   12.2470   49.6670 C.3    45  ILE45       0.0001
     72  N         63.2340   13.9310   50.1280 N.am   46  THR46      -0.1939
     73  CA        63.5170   15.2030   50.7700 C.3    46  THR46       0.2028
     74  C         64.9970   15.5300   50.5230 C.2    46  THR46       0.2642
     75  O         65.5100   16.5440   50.9820 O.2    46  THR46      -0.2714
     76  CB        63.2610   15.1210   52.2730 C.3    46  THR46       0.1808
     77  OG1       62.8030   16.3860   52.7520 O.3    46  THR46      -0.2208
     78  CG2       64.5340   14.7700   53.0000 C.3    46  THR46       0.0379
     79  N         65.6630   14.6380   49.7950 N.am   47  ASN47      -0.1971
     80  CA        67.0810   14.7450   49.4380 C.3    47  ASN47       0.1688
     81  C         68.0070   15.2610   50.5280 C.2    47  ASN47       0.2292
     82  O         68.4770   16.3910   50.4720 O.2    47  ASN47      -0.2864
     83  CB        67.2620   15.6080   48.1820 C.3    47  ASN47       0.1181
     84  CG        68.7110   15.6220   47.6780 C.2    47  ASN47       0.2629
     85  OD1       69.3030   14.5800   47.4050 O.2    47  ASN47      -0.2716
     86  ND2       69.2760   16.8120   47.5480 N.am   47  ASN47      -0.0877
     87  N         72.9730   26.1300   55.5670 N.3    97  VAL97      -0.1231
     88  CA        72.7780   25.7330   54.1830 C.3    97  VAL97       0.1692
     89  C         71.3570   25.2320   53.9410 C.2    97  VAL97       0.2593
     90  O         70.8610   24.3680   54.6760 O.2    97  VAL97      -0.2718
     91  CB        73.7700   24.6070   53.7860 C.3    97  VAL97       0.0266
     92  CG1       73.9230   24.5630   52.2830 C.3    97  VAL97       0.0020
     93  CG2       75.1090   24.8320   54.4290 C.3    97  VAL97       0.0020
     94  N         70.7030   25.7600   52.9100 N.am   98  GLY98      -0.1942
     95  CA        69.3550   25.3160   52.6230 C.3    98  GLY98       0.2014
     96  C         68.7800   26.0580   51.4470 C.2    98  GLY98       0.2639
     97  O         69.3160   27.0790   51.0370 O.2    98  GLY98      -0.2714
     98  N         67.6890   25.5400   50.9020 N.am   99  GLY99      -0.1954
     99  CA        67.0560   26.1810   49.7680 C.3    99  GLY99       0.1869
    100  C         65.8710   27.0470   50.1560 C.2    99  GLY99       0.2309
    101  O         65.3100   27.7440   49.3120 O.2    99  GLY99      -0.2863
    102  N         67.9920   13.7300   38.2530 N.3   208  ARG208     -0.1245
    103  CA        68.0570   13.6550   39.7060 C.3   208  ARG208      0.1563
    104  C         66.7450   13.0590   40.1900 C.2   208  ARG208      0.2260
    105  O         66.7130   12.2430   41.1090 O.2   208  ARG208     -0.2867
    106  CB        68.2320   15.0840   40.2210 C.3   208  ARG208      0.0307
    107  CG        68.2370   15.3590   41.7040 C.3   208  ARG208      0.0489
    108  CD        66.9280   15.1710   42.4310 C.3   208  ARG208      0.2205
    109  NE        66.1140   16.3720   42.6670 N.pl3 208  ARG208     -0.0865
    110  CZ        66.5240   17.5190   43.2140 C.cat 208  ARG208      0.5346
    111  NH1       67.7810   17.7100   43.5950 N.pl3 208  ARG208      0.1354
    112  NH2       65.6280   18.4670   43.4500 N.pl3 208  ARG208      0.1354
    113  N         66.1510    9.0670   41.4680 N.3   212  MET212     -0.1245
    114  CA        65.7110    9.2780   42.8350 C.3   212  MET212      0.1570
    115  C         64.6770    8.2170   43.1850 C.2   212  MET212      0.2261
    116  O         64.5400    7.8190   44.3380 O.2   212  MET212     -0.2867
    117  CB        65.1160   10.6770   42.9810 C.3   212  MET212      0.0387
    118  CG        64.8220   11.0630   44.4180 C.3   212  MET212      0.0595
    119  SD        64.6650   12.8460   44.6980 S.3   212  MET212     -0.1393
    120  CE        62.8790   13.0260   44.7690 C.3   212  MET212      0.0692
    121  N         57.8510   18.1380   47.8680 N.3   246  ILE246     -0.1245
    122  CA        57.7230   17.8120   46.4610 C.3   246  ILE246      0.1561
    123  C         58.1660   16.3710   46.2920 C.2   246  ILE246      0.2260
    124  O         59.3540   16.0840   46.2030 O.2   246  ILE246     -0.2867
    125  CB        58.6160   18.7240   45.5980 C.3   246  ILE246      0.0252
    126  CG1       58.1780   20.1790   45.7780 C.3   246  ILE246      0.0019
    127  CG2       58.5440   18.2980   44.1330 C.3   246  ILE246      0.0019
    128  CD1       58.9340   21.1780   44.9280 C.3   246  ILE246      0.0001
    129  N         59.6040   20.5470   40.7550 N.3   270  THR270     -0.1218
    130  CA        60.9960   20.7920   41.0730 C.3   270  THR270      0.1862
    131  C         61.5270   21.9010   40.1940 C.2   270  THR270      0.2287
    132  O         62.1040   22.8690   40.6850 O.2   270  THR270     -0.2866
    133  CB        61.8360   19.5410   40.8610 C.3   270  THR270      0.1770
    134  OG1       61.3710   18.5180   41.7480 O.3   270  THR270     -0.2211
    135  CG2       63.3040   19.8300   41.1510 C.3   270  THR270      0.0375
    136  N         60.0960   25.1750   41.2420 N.3   273  TYR273     -0.1241
    137  CA        60.6860   25.5770   42.5110 C.3   273  TYR273      0.1605
    138  C         62.0510   26.2190   42.3030 C.2   273  TYR273      0.2264
    139  O         62.3710   27.2460   42.9000 O.2   273  TYR273     -0.2867
    140  CB        60.8140   24.3620   43.4260 C.3   273  TYR273      0.0534
    141  CG        61.5400   24.6410   44.7110 C.ar  273  TYR273     -0.0201
    142  CD1       61.3540   25.8370   45.3910 C.ar  273  TYR273     -0.0009
    143  CD2       62.4070   23.7010   45.2610 C.ar  273  TYR273     -0.0009
    144  CE1       62.0160   26.0970   46.5820 C.ar  273  TYR273      0.0417
    145  CE2       63.0710   23.9480   46.4600 C.ar  273  TYR273      0.0417
    146  CZ        62.8680   25.1540   47.1080 C.ar  273  TYR273      0.1957
    147  OH        63.5290   25.4460   48.2710 O.3   273  TYR273     -0.2866
@<TRIPOS>BOND
     1   102   103    1
     2   103   104    1
     3   103   106    1
     4   104   105    2
     5   131   132    2
     6   131   130    1
     7   106   107    1
     8   129   130    1
     9   133   130    1
    10   133   135    1
    11   133   134    1
    12    11    10    2
    13   136   137    1
    14   113   114    1
    15   107   108    1
    16    17    16    1
    17     4     3    2
    18   138   137    1
    19   138   139    2
    20    10     9    1
    21    10    12   am
    22   108   109    1
    23   137   140    1
    24    13    16    1
    25    13    12    1
    26    13    14    1
    27   109   110    2
    28   114   117    1
    29   114   115    1
    30    16    18    1
    31     9     8    1
    32   117   118    1
    33    15    14    2
    34   115   116    2
    35   110   112    1
    36   110   111    1
    37     7     5    1
    38     3     8   am
    39     3     2    1
    40    14    19   am
    41   140   141    1
    42     1     2    1
    43   127   125    1
    44   118   119    1
    45     6     5    1
    46     2     5    1
    47    19    20    1
    48   119   120    1
    49   141   143   ar
    50   141   142   ar
    51   128   126    1
    52    45    44    2
    53    20    21    1
    54   143   145   ar
    55   142   144   ar
    56    46    44   am
    57   125   126    1
    58   125   122    1
    59    44    43    1
    60   124   123    2
    61   123   122    1
    62   145   146   ar
    63   122   121    1
    64    21    22    2
    65    21    23   am
    66   144   146   ar
    67    23    24    1
    68   146   147    1
    69    31    30    1
    70    43    42    1
    71    85    84    2
    72    86    84   am
    73    42    39    1
    74    84    83    1
    75    70    68    1
    76    28    29    1
    77    28    27    1
    78    67    66    2
    79    83    80    1
    80    65    68    1
    81    65    66    1
    82    65    64    1
    83    68    69    1
    84    24    27    1
    85    24    25    1
    86    29    30    1
    87    66    72   am
    88    39    40    1
    89    39    38    1
    90    40    41    2
    91   101   100    2
    92    38    34   am
    93    25    32   am
    94    25    26    2
    95    80    79    1
    96    80    81    1
    97    69    71    1
    98    32    33    1
    99    99   100    1
   100    99    98    1
   101    79    74   am
   102    72    73    1
   103    82    81    2
   104    74    73    1
   105    74    75    2
   106    34    33    1
   107    34    35    2
   108    73    76    1
   109    33    36    1
   110    98    96   am
   111    36    37    1
   112    97    96    2
   113    54    52   ar
   114    96    95    1
   115    63    61   am
   116    76    77    1
   117    76    78    1
   118    92    91    1
   119    52    53   ar
   120    52    51    1
   121    95    94    1
   122    94    89   am
   123    61    60    1
   124    61    62    2
   125    60    59    1
   126    51    48    1
   127    91    88    1
   128    91    93    1
   129    89    88    1
   130    89    90    2
   131    88    87    1
   132    48    49    1
   133    48    47    1
   134    55    56    1
   135    59    56    1
   136    49    50    2
   137    56    57    1
   138    57    58    2
