@<TRIPOS>MOLECULE
tmp/3epmA00.pdb
 117 108 0 0 0
SMALL
GASTEIGER

@<TRIPOS>ATOM
      1  N         51.2800   39.0600   -1.1690 N.3   191  ASN191     -0.1240
      2  CA        50.9350   39.7850   -2.3880 C.3   191  ASN191      0.1653
      3  C         52.0440   39.7800   -3.4420 C.2   191  ASN191      0.2266
      4  O         53.2280   39.6900   -3.1240 O.2   191  ASN191     -0.2867
      5  CB        50.5750   41.2360   -2.0610 C.3   191  ASN191      0.1155
      6  CG        49.5470   41.3580   -0.9550 C.2   191  ASN191      0.2627
      7  OD1       48.4160   40.8910   -1.0810 O.2   191  ASN191     -0.2716
      8  ND2       49.9300   42.0210    0.1290 N.am  191  ASN191     -0.0877
      9  N         48.2310   41.5930   -7.2630 N.3   216  LEU216     -0.1245
     10  CA        47.6970   42.9330   -7.0660 C.3   216  LEU216      0.1561
     11  C         48.1950   43.8760   -8.1440 C.2   216  LEU216      0.2260
     12  O         48.2250   45.0910   -7.9540 O.2   216  LEU216     -0.2867
     13  CB        48.0720   43.4600   -5.6860 C.3   216  LEU216      0.0270
     14  CG        47.4450   42.7030   -4.5180 C.3   216  LEU216      0.0019
     15  CD1       47.9680   43.2190   -3.2040 C.3   216  LEU216      0.0001
     16  CD2       45.9330   42.8010   -4.5700 C.3   216  LEU216      0.0001
     17  N         41.8440   41.1550   -7.3480 N.3   240  VAL240     -0.1245
     18  CA        40.7610   42.1090   -7.2040 C.3   240  VAL240      0.1561
     19  C         40.3840   42.4220   -8.6300 C.2   240  VAL240      0.2260
     20  O         41.0880   43.1730   -9.2920 O.2   240  VAL240     -0.2867
     21  CB        41.2160   43.4200   -6.5390 C.3   240  VAL240      0.0252
     22  CG1       40.0140   44.2530   -6.1810 C.3   240  VAL240      0.0019
     23  CG2       42.0550   43.1670   -5.2990 C.3   240  VAL240      0.0019
     24  N         40.6050   45.9680  -10.3470 N.3   243  TYR243     -0.1241
     25  CA        41.8250   46.5550  -10.9170 C.3   243  TYR243      0.1605
     26  C         41.9350   46.3260  -12.4150 C.2   243  TYR243      0.2264
     27  O         42.2890   47.2310  -13.1620 O.2   243  TYR243     -0.2867
     28  CB        43.1170   46.0650  -10.2460 C.3   243  TYR243      0.0534
     29  CG        43.2010   46.3040   -8.7590 C.ar  243  TYR243     -0.0201
     30  CD1       42.3070   47.1510   -8.1160 C.ar  243  TYR243     -0.0009
     31  CD2       44.1910   45.6940   -7.9980 C.ar  243  TYR243     -0.0009
     32  CE1       42.3790   47.3640   -6.7500 C.ar  243  TYR243      0.0417
     33  CE2       44.2710   45.8990   -6.6310 C.ar  243  TYR243      0.0417
     34  CZ        43.3610   46.7350   -6.0120 C.ar  243  TYR243      0.1957
     35  OH        43.4380   46.9380   -4.6520 O.3   243  TYR243     -0.2866
     36  N         38.4620   39.2250   -4.6720 N.3   277  THR277     -0.1218
     37  CA        38.0980   40.2420   -3.7040 C.3   277  THR277      0.1862
     38  C         37.1470   41.2240   -4.3730 C.2   277  THR277      0.2287
     39  O         37.4830   41.8380   -5.3790 O.2   277  THR277     -0.2866
     40  CB        39.3230   40.9630   -3.1500 C.3   277  THR277      0.1770
     41  OG1       40.0950   40.0330   -2.3920 O.3   277  THR277     -0.2211
     42  CG2       38.9010   42.1060   -2.2380 C.3   277  THR277      0.0375
     43  N         34.5590   44.4240   -3.4270 N.3   279  HIS279     -0.1241
     44  CA        34.1130   45.3790   -2.4240 C.3   279  HIS279      0.1621
     45  C         32.6360   45.7060   -2.5960 C.2   279  HIS279      0.2264
     46  O         32.2620   46.8640   -2.8030 O.2   279  HIS279     -0.2867
     47  CB        34.9570   46.6470   -2.4920 C.3   279  HIS279      0.0745
     48  CG        36.4180   46.3910   -2.3380 C.ar  279  HIS279      0.0817
     49  ND1       37.2640   46.2400   -3.4150 N.ar  279  HIS279     -0.2268
     50  CD2       37.1810   46.2320   -1.2320 C.ar  279  HIS279      0.1154
     51  CE1       38.4880   46.0050   -2.9780 C.ar  279  HIS279      0.1986
     52  NE2       38.4650   45.9980   -1.6580 N.ar  279  HIS279     -0.2212
     53  N         40.9820   53.9820    2.8260 N.3   297  VAL297     -0.1231
     54  CA        42.3440   53.6050    2.4670 C.3   297  VAL297      0.1692
     55  C         42.4270   52.3420    1.6330 C.2   297  VAL297      0.2593
     56  O         43.5120   51.9280    1.2500 O.2   297  VAL297     -0.2718
     57  CB        43.2570   53.4800    3.6960 C.3   297  VAL297      0.0266
     58  CG1       43.2300   54.7710    4.5060 C.3   297  VAL297      0.0020
     59  CG2       42.8490   52.2890    4.5420 C.3   297  VAL297      0.0020
     60  N         41.2830   51.7360    1.3460 N.am  298  SER298     -0.1938
     61  CA        41.2450   50.6070    0.4340 C.3   298  SER298      0.2055
     62  C         41.3410   51.1120   -1.0030 C.2   298  SER298      0.2643
     63  O         40.6340   52.0300   -1.3890 O.2   298  SER298     -0.2714
     64  CB        39.9540   49.8140    0.6380 C.3   298  SER298      0.2130
     65  OG        39.9220   48.6420   -0.1620 O.3   298  SER298     -0.2179
     66  N         42.2230   50.5260   -1.7990 N.am  299  ARG299     -0.1963
     67  CA        42.3040   50.9310   -3.1930 C.3   299  ARG299      0.1729
     68  C         41.0270   50.5480   -3.9340 C.2   299  ARG299      0.2616
     69  O         40.5730   51.2830   -4.8000 O.2   299  ARG299     -0.2715
     70  CB        43.5450   50.3500   -3.8790 C.3   299  ARG299      0.0348
     71  CG        43.6890   50.7830   -5.3260 C.3   299  ARG299      0.0492
     72  CD        45.0500   50.4460   -5.8980 C.3   299  ARG299      0.2205
     73  NE        44.9600   50.2070   -7.3360 N.pl3 299  ARG299     -0.0865
     74  CZ        44.9130   51.1610   -8.2640 C.cat 299  ARG299      0.5346
     75  NH1       44.9510   52.4450   -7.9190 N.pl3 299  ARG299      0.1354
     76  NH2       44.8250   50.8280   -9.5460 N.pl3 299  ARG299      0.1354
     77  N         40.4490   49.3990   -3.5910 N.am  300  GLY300     -0.1955
     78  CA        39.1820   48.9840   -4.1680 C.3   300  GLY300      0.1869
     79  C         38.0040   49.7930   -3.6400 C.2   300  GLY300      0.2309
     80  O         37.0750   50.1260   -4.3790 O.2   300  GLY300     -0.2863
     81  N         37.9180   49.7360    5.5830 N.3   340  ARG340     -0.1245
     82  CA        38.8250   49.4210    6.6830 C.3   340  ARG340      0.1563
     83  C         39.5440   50.6600    7.2030 C.2   340  ARG340      0.2260
     84  O         39.8600   51.5830    6.4490 O.2   340  ARG340     -0.2867
     85  CB        39.8210   48.3030    6.3410 C.3   340  ARG340      0.0307
     86  CG        40.7490   48.5680    5.1700 C.3   340  ARG340      0.0489
     87  CD        41.9710   47.6470    5.2120 C.3   340  ARG340      0.2205
     88  NE        42.2290   47.0340    3.9090 N.pl3 340  ARG340     -0.0865
     89  CZ        42.0260   45.7450    3.6260 C.cat 340  ARG340      0.5346
     90  NH1       41.5770   44.9080    4.5580 N.pl3 340  ARG340      0.1354
     91  NH2       42.2840   45.2810    2.4080 N.pl3 340  ARG340      0.1354
     92  N         36.7710   40.0030    4.6300 N.3   375  GLU375     -0.1245
     93  CA        37.9630   40.7920    4.9280 C.3   375  GLU375      0.1567
     94  C         37.7770   41.7140    6.1240 C.2   375  GLU375      0.2260
     95  O         36.6930   42.2440    6.3460 O.2   375  GLU375     -0.2867
     96  CB        38.3800   41.6020    3.7080 C.3   375  GLU375      0.0388
     97  CG        38.6540   40.7350    2.4990 C.3   375  GLU375      0.1160
     98  CD        39.4480   41.4540    1.4320 C.2   375  GLU375      0.3649
     99  OE1       40.0410   40.7550    0.5830 O.co2 375  GLU375     -0.2457
    100  OE2       39.4880   42.7080    1.4440 O.co2 375  GLU375     -0.2457
    101  N         44.1640   41.8600    7.5620 N.3   402  LEU402     -0.1245
    102  CA        45.4930   42.3570    7.2440 C.3   402  LEU402      0.1561
    103  C         46.0230   43.0260    8.4960 C.2   402  LEU402      0.2260
    104  O         45.6540   44.1540    8.8070 O.2   402  LEU402     -0.2867
    105  CB        45.3910   43.3530    6.1020 C.3   402  LEU402      0.0270
    106  CG        46.4630   44.4010    5.8920 C.3   402  LEU402      0.0019
    107  CD1       47.6210   43.7920    5.1400 C.3   402  LEU402      0.0001
    108  CD2       45.8420   45.5520    5.1150 C.3   402  LEU402      0.0001
    109  N         55.8760   48.6710    4.3150 N.3   438  GLU438     -0.1245
    110  CA        54.4580   49.0260    4.2570 C.3   438  GLU438      0.1567
    111  C         54.2520   50.5010    4.5810 C.2   438  GLU438      0.2260
    112  O         54.7150   50.9760    5.6180 O.2   438  GLU438     -0.2867
    113  CB        53.6660   48.1840    5.2570 C.3   438  GLU438      0.0388
    114  CG        52.1640   48.1650    5.0160 C.3   438  GLU438      0.1160
    115  CD        51.7360   47.0300    4.0950 C.2   438  GLU438      0.3649
    116  OE1       52.5260   46.0750    3.9030 O.co2 438  GLU438     -0.2457
    117  OE2       50.6040   47.0940    3.5690 O.co2 438  GLU438     -0.2457
@<TRIPOS>BOND
     1    27    26    2
     2    26    25    1
     3    25    24    1
     4    25    28    1
     5    28    29    1
     6    76    74    1
     7    20    19    2
     8    29    30   ar
     9    29    31   ar
    10    19    18    1
    11    74    75    1
    12    74    73    2
    13    11    12    2
    14    11    10    1
    15    30    32   ar
    16    31    33   ar
    17    17    18    1
    18    73    72    1
    19     9    10    1
    20    18    21    1
    21    10    13    1
    22    32    34   ar
    23    33    34   ar
    24    21    22    1
    25    21    23    1
    26    34    35    1
    27    72    71    1
    28    13    14    1
    29    39    38    2
    30    71    70    1
    31    69    68    2
    32    36    37    1
    33    16    14    1
    34    14    15    1
    35    80    79    2
    36    38    37    1
    37    78    79    1
    38    78    77    1
    39    68    77   am
    40    68    67    1
    41    70    67    1
    42    37    40    1
    43     3     4    2
    44     3     2    1
    45    43    44    1
    46    49    51   ar
    47    49    48   ar
    48    67    66    1
    49    40    41    1
    50    40    42    1
    51    51    52   ar
    52    46    45    2
    53    45    44    1
    54    47    44    1
    55    47    48    1
    56     2     5    1
    57     2     1    1
    58    48    50   ar
    59     5     6    1
    60    66    62   am
    61    52    50   ar
    62    63    62    2
    63     7     6    2
    64    62    61    1
    65     6     8   am
    66    65    64    1
    67    61    64    1
    68    61    60    1
    69    99    98   ar
    70    56    55    2
    71    60    55   am
    72    98   100   ar
    73    98    97    1
    74    55    54    1
    75    91    89    1
    76    54    53    1
    77    54    57    1
    78    97    96    1
    79   117   115   ar
    80    89    88    2
    81    89    90    1
    82    57    58    1
    83    57    59    1
    84    96    93    1
    85   116   115   ar
    86    88    87    1
    87   115   114    1
    88   110   109    1
    89   110   111    1
    90   110   113    1
    91   111   112    2
    92    92    93    1
    93    93    94    1
    94   114   113    1
    95   108   106    1
    96   107   106    1
    97    86    87    1
    98    86    85    1
    99    81    82    1
   100   106   105    1
   101   105   102    1
   102    94    95    2
   103    85    82    1
   104    84    83    2
   105    82    83    1
   106   102   101    1
   107   102   103    1
   108   103   104    2
