@<TRIPOS>MOLECULE
tmp/3epnA00.pdb
 146 135 0 0 0
SMALL
GASTEIGER

@<TRIPOS>ATOM
      1  N         50.5740   39.1200   -0.3570 N.3   201  ASN201     -0.1240
      2  CA        50.1610   39.9120   -1.5100 C.3   201  ASN201      0.1653
      3  C         51.3410   40.2430   -2.3990 C.2   201  ASN201      0.2266
      4  O         52.3950   40.6750   -1.9210 O.2   201  ASN201     -0.2867
      5  CB        49.5230   41.2300   -1.0650 C.3   201  ASN201      0.1155
      6  CG        48.1220   41.0530   -0.5300 C.2   201  ASN201      0.2627
      7  OD1       47.4150   40.1070   -0.8910 O.2   201  ASN201     -0.2716
      8  ND2       47.7040   41.9740    0.3350 N.am  201  ASN201     -0.0877
      9  N         47.6560   36.6550   -3.2980 N.3   225  MET225     -0.1245
     10  CA        46.7660   37.5140   -4.0770 C.3   225  MET225      0.1570
     11  C         47.5970   38.3580   -5.0440 C.2   225  MET225      0.2261
     12  O         48.6540   38.8820   -4.6880 O.2   225  MET225     -0.2867
     13  CB        45.9220   38.4190   -3.1580 C.3   225  MET225      0.0387
     14  CG        45.0200   37.6570   -2.2100 C.3   225  MET225      0.0595
     15  SD        43.6570   38.6310   -1.5350 S.3   225  MET225     -0.1393
     16  CE        42.6340   38.8590   -2.9970 C.3   225  MET225      0.0692
     17  N         47.5440   41.5910   -6.6310 N.3   227  LEU227     -0.1245
     18  CA        46.8800   42.8830   -6.5010 C.3   227  LEU227      0.1561
     19  C         47.3770   43.9040   -7.5180 C.2   227  LEU227      0.2260
     20  O         47.3430   45.1070   -7.2690 O.2   227  LEU227     -0.2867
     21  CB        47.0810   43.4170   -5.0910 C.3   227  LEU227      0.0270
     22  CG        46.5760   42.4430   -4.0330 C.3   227  LEU227      0.0019
     23  CD1       46.8030   43.0340   -2.6640 C.3   227  LEU227      0.0001
     24  CD2       45.1080   42.1320   -4.2700 C.3   227  LEU227      0.0001
     25  N         41.2360   40.9960   -6.5970 N.3   251  VAL251     -0.1245
     26  CA        40.1440   41.9310   -6.3720 C.3   251  VAL251      0.1561
     27  C         39.7380   42.3930   -7.7690 C.2   251  VAL251      0.2260
     28  O         40.3350   43.3170   -8.3240 O.2   251  VAL251     -0.2867
     29  CB        40.5900   43.1390   -5.5190 C.3   251  VAL251      0.0252
     30  CG1       39.3810   43.9310   -5.0560 C.3   251  VAL251      0.0019
     31  CG2       41.3980   42.6670   -4.3160 C.3   251  VAL251      0.0019
     32  N         39.7640   45.9310   -9.5270 N.3   254  TYR254     -0.1241
     33  CA        41.0220   46.5540   -9.9570 C.3   254  TYR254      0.1605
     34  C         41.1690   46.4680  -11.4670 C.2   254  TYR254      0.2264
     35  O         41.5800   47.4310  -12.1050 O.2   254  TYR254     -0.2867
     36  CB        42.2390   45.8830   -9.3170 C.3   254  TYR254      0.0534
     37  CG        42.4430   46.0980   -7.8280 C.ar  254  TYR254     -0.0201
     38  CD1       41.4480   46.6360   -7.0190 C.ar  254  TYR254     -0.0009
     39  CD2       43.6310   45.7130   -7.2270 C.ar  254  TYR254     -0.0009
     40  CE1       41.6570   46.8000   -5.6410 C.ar  254  TYR254      0.0417
     41  CE2       43.8450   45.8680   -5.8710 C.ar  254  TYR254      0.0417
     42  CZ        42.8620   46.4110   -5.0830 C.ar  254  TYR254      0.1957
     43  OH        43.1040   46.5510   -3.7360 O.3   254  TYR254     -0.2866
     44  N         37.9400   38.8510   -3.8680 N.3   288  THR288     -0.1218
     45  CA        37.5460   39.8300   -2.8750 C.3   288  THR288      0.1862
     46  C         36.5470   40.7750   -3.5310 C.2   288  THR288      0.2287
     47  O         36.8570   41.4200   -4.5280 O.2   288  THR288     -0.2866
     48  CB        38.7410   40.6400   -2.3710 C.3   288  THR288      0.1770
     49  OG1       39.6300   39.7820   -1.6370 O.3   288  THR288     -0.2211
     50  CG2       38.2590   41.7760   -1.4750 C.3   288  THR288      0.0375
     51  N         33.7350   43.8840   -2.7740 N.3   290  HIS290     -0.1241
     52  CA        33.3130   44.8810   -1.7920 C.3   290  HIS290      0.1621
     53  C         31.8390   45.2560   -1.9200 C.2   290  HIS290      0.2264
     54  O         31.5100   46.4220   -2.1500 O.2   290  HIS290     -0.2867
     55  CB        34.1760   46.1420   -1.9150 C.3   290  HIS290      0.0745
     56  CG        35.6390   45.9020   -1.6820 C.ar  290  HIS290      0.0817
     57  ND1       36.5290   45.6680   -2.7090 N.ar  290  HIS290     -0.2268
     58  CD2       36.3660   45.8620   -0.5390 C.ar  290  HIS290      0.1154
     59  CE1       37.7400   45.4920   -2.2090 C.ar  290  HIS290      0.1986
     60  NE2       37.6700   45.6090   -0.8950 N.ar  290  HIS290     -0.2212
     61  N         39.9230   53.6800    3.7830 N.3   309  VAL309     -0.1231
     62  CA        41.3000   53.3500    3.4160 C.3   309  VAL309      0.1692
     63  C         41.4050   52.1940    2.4140 C.2   309  VAL309      0.2593
     64  O         42.4310   52.0260    1.7440 O.2   309  VAL309     -0.2718
     65  CB        42.1930   53.0720    4.6660 C.3   309  VAL309      0.0266
     66  CG1       42.2310   54.2960    5.5700 C.3   309  VAL309      0.0020
     67  CG2       41.6870   51.8630    5.4470 C.3   309  VAL309      0.0020
     68  N         40.3460   51.3990    2.3130 N.am  310  SER310     -0.1938
     69  CA        40.3280   50.2930    1.3660 C.3   310  SER310      0.2055
     70  C         40.3840   50.8330   -0.0520 C.2   310  SER310      0.2643
     71  O         39.6810   51.7650   -0.3880 O.2   310  SER310     -0.2714
     72  CB        39.0620   49.4570    1.5400 C.3   310  SER310      0.2130
     73  OG        38.7820   48.7300    0.3630 O.3   310  SER310     -0.2179
     74  N         41.2310   50.2510   -0.8840 N.am  311  ARG311     -0.1963
     75  CA        41.2850   50.6590   -2.2760 C.3   311  ARG311      0.1729
     76  C         39.9760   50.2760   -2.9760 C.2   311  ARG311      0.2616
     77  O         39.3180   51.1180   -3.5870 O.2   311  ARG311     -0.2715
     78  CB        42.4950   50.0300   -2.9700 C.3   311  ARG311      0.0348
     79  CG        42.5600   50.3300   -4.4460 C.3   311  ARG311      0.0492
     80  CD        43.7750   49.7050   -5.1000 C.3   311  ARG311      0.2205
     81  NE        43.7930   50.0100   -6.5260 N.pl3 311  ARG311     -0.0865
     82  CZ        44.2640   51.1430   -7.0330 C.cat 311  ARG311      0.5346
     83  NH1       44.7660   52.0660   -6.2250 N.pl3 311  ARG311      0.1354
     84  NH2       44.2380   51.3530   -8.3420 N.pl3 311  ARG311      0.1354
     85  N         39.5870   49.0080   -2.8660 N.am  312  GLY312     -0.1955
     86  CA        38.3360   48.5610   -3.4580 C.3   312  GLY312      0.1869
     87  C         37.1380   49.3420   -2.9320 C.2   312  GLY312      0.2309
     88  O         36.2140   49.6790   -3.6770 O.2   312  GLY312     -0.2863
     89  N         36.3180   43.9930    3.2050 N.3   351  ASP351     -0.1239
     90  CA        35.9620   45.0240    4.1660 C.3   351  ASP351      0.1674
     91  C         36.3140   46.4010    3.6080 C.2   351  ASP351      0.2266
     92  O         37.3900   46.9450    3.8550 O.2   351  ASP351     -0.2867
     93  CB        36.5480   44.7690    5.5680 C.3   351  ASP351      0.1410
     94  CG        38.0760   44.7080    5.5910 C.2   351  ASP351      0.3668
     95  OD1       38.7140   44.5380    4.5330 O.co2 351  ASP351     -0.2456
     96  OD2       38.6410   44.8170    6.7000 O.co2 351  ASP351     -0.2456
     97  N         36.9500   49.1450    6.4290 N.3   354  ARG354     -0.1245
     98  CA        37.7900   48.8080    7.5650 C.3   354  ARG354      0.1563
     99  C         38.4190   50.0700    8.1340 C.2   354  ARG354      0.2260
    100  O         38.5600   51.0740    7.4270 O.2   354  ARG354     -0.2867
    101  CB        38.8620   47.7740    7.1960 C.3   354  ARG354      0.0307
    102  CG        39.9500   48.2880    6.3000 C.3   354  ARG354      0.0489
    103  CD        41.0130   47.2250    6.1010 C.3   354  ARG354      0.2205
    104  NE        41.9160   47.6000    5.0230 N.pl3 354  ARG354     -0.0865
    105  CZ        41.7560   47.2400    3.7560 C.cat 354  ARG354      0.5346
    106  NH1       40.7280   46.4760    3.4030 N.pl3 354  ARG354      0.1354
    107  NH2       42.6340   47.6400    2.8450 N.pl3 354  ARG354      0.1354
    108  N         36.2420   39.2650    5.1960 N.3   390  GLU390     -0.1231
    109  CA        37.4650   40.0170    5.4450 C.3   390  GLU390      0.1699
    110  C         37.2540   41.0080    6.5860 C.2   390  GLU390      0.2592
    111  O         36.1580   41.5420    6.7600 O.2   390  GLU390     -0.2718
    112  CB        37.9630   40.7100    4.1740 C.3   390  GLU390      0.0402
    113  CG        38.1640   39.7600    2.9950 C.3   390  GLU390      0.1161
    114  CD        39.1080   40.3220    1.9520 C.2   390  GLU390      0.3649
    115  OE1       39.5080   39.5720    1.0280 O.co2 390  GLU390     -0.2457
    116  OE2       39.4540   41.5170    2.0680 O.co2 390  GLU390     -0.2457
    117  N         38.3070   41.2290    7.3680 N.am  391  GLY391     -0.1957
    118  CA        38.2240   42.0720    8.5470 C.3   391  GLY391      0.1869
    119  C         39.4030   43.0100    8.6900 C.2   391  GLY391      0.2309
    120  O         40.2930   43.0360    7.8370 O.2   391  GLY391     -0.2863
    121  N         39.0280   36.5700    7.8690 N.3   417  TYR417     -0.1241
    122  CA        40.2580   36.7960    7.1230 C.3   417  TYR417      0.1605
    123  C         40.7580   38.2300    7.3430 C.2   417  TYR417      0.2264
    124  O         40.2990   39.1710    6.6950 O.2   417  TYR417     -0.2867
    125  CB        39.9810   36.4970    5.6450 C.3   417  TYR417      0.0534
    126  CG        41.0910   36.7940    4.6720 C.ar  417  TYR417     -0.0201
    127  CD1       42.4190   36.8650    5.0770 C.ar  417  TYR417     -0.0009
    128  CD2       40.8100   36.9740    3.3260 C.ar  417  TYR417     -0.0009
    129  CE1       43.4310   37.1370    4.1660 C.ar  417  TYR417      0.0417
    130  CE2       41.8080   37.2350    2.4140 C.ar  417  TYR417      0.0417
    131  CZ        43.1160   37.3180    2.8330 C.ar  417  TYR417      0.1957
    132  OH        44.1000   37.5770    1.9020 O.3   417  TYR417     -0.2866
    133  N         43.6050   41.5050    8.1060 N.3   419  LEU419     -0.1245
    134  CA        44.8370   42.1530    7.6850 C.3   419  LEU419      0.1561
    135  C         45.5060   42.6990    8.9390 C.2   419  LEU419      0.2260
    136  O         45.3260   43.8650    9.2910 O.2   419  LEU419     -0.2867
    137  CB        44.4900   43.3070    6.7470 C.3   419  LEU419      0.0270
    138  CG        45.5750   44.2090    6.1530 C.3   419  LEU419      0.0019
    139  CD1       46.5650   43.3920    5.3650 C.3   419  LEU419      0.0001
    140  CD2       44.9370   45.2760    5.2640 C.3   419  LEU419      0.0001
    141  N         46.0690   37.9220    6.4640 N.3   451  CYS451     -0.1235
    142  CA        46.7680   38.6040    5.3970 C.3   451  CYS451      0.1677
    143  C         47.9790   39.3170    5.9780 C.2   451  CYS451      0.2270
    144  O         47.8570   40.1040    6.9200 O.2   451  CYS451     -0.2867
    145  CB        45.8590   39.6110    4.7050 C.3   451  CYS451      0.0956
    146  SG        46.6830   40.4040    3.3460 S.3   451  CYS451     -0.0801
@<TRIPOS>BOND
     1    35    34    2
     2    34    33    1
     3    33    32    1
     4    33    36    1
     5    36    37    1
     6    84    82    1
     7    28    27    2
     8    37    39   ar
     9    37    38   ar
    10    27    26    1
    11    19    20    2
    12    19    18    1
    13    39    41   ar
    14    82    81    2
    15    82    83    1
    16    38    40   ar
    17    17    18    1
    18    25    26    1
    19    81    80    1
    20    18    21    1
    21    26    29    1
    22    41    42   ar
    23    40    42   ar
    24    29    30    1
    25    29    31    1
    26    80    79    1
    27    21    22    1
    28    42    43    1
    29    11    12    2
    30    11    10    1
    31    47    46    2
    32    79    78    1
    33    24    22    1
    34    10     9    1
    35    10    13    1
    36    22    23    1
    37    44    45    1
    38    88    87    2
    39    77    76    2
    40    46    45    1
    41    86    87    1
    42    86    85    1
    43    13    14    1
    44    16    15    1
    45    76    85   am
    46    76    75    1
    47    78    75    1
    48    45    48    1
    49    51    52    1
    50    57    59   ar
    51    57    56   ar
    52     3     4    2
    53     3     2    1
    54    48    49    1
    55    48    50    1
    56    75    74    1
    57    14    15    1
    58    59    60   ar
    59    54    53    2
    60    53    52    1
    61    55    52    1
    62    55    56    1
    63    56    58   ar
    64     2     5    1
    65     2     1    1
    66     5     6    1
    67    60    58   ar
    68     7     6    2
    69    74    70   am
    70     6     8   am
    71    71    70    2
    72    70    69    1
    73    73    72    1
    74   115   114   ar
    75    69    72    1
    76    69    68    1
    77    64    63    2
    78   132   131    1
    79   114   116   ar
    80   114   113    1
    81    68    63   am
    82   130   131   ar
    83   130   128   ar
    84    63    62    1
    85   131   129   ar
    86   107   105    1
    87   113   112    1
    88    89    90    1
    89   128   126   ar
    90   146   145    1
    91   106   105    1
    92    62    61    1
    93    62    65    1
    94    91    92    2
    95    91    90    1
    96   105   104    2
    97    90    93    1
    98   129   127   ar
    99   112   109    1
   100    95    94   ar
   101    65    67    1
   102    65    66    1
   103   126   127   ar
   104   126   125    1
   105   145   142    1
   106   104   103    1
   107   108   109    1
   108   140   138    1
   109   139   138    1
   110   142   143    1
   111   142   141    1
   112   109   110    1
   113    93    94    1
   114    94    96   ar
   115   125   122    1
   116   143   144    2
   117   103   102    1
   118   138   137    1
   119   102   101    1
   120    97    98    1
   121   110   111    2
   122   110   117   am
   123   124   123    2
   124   137   134    1
   125   122   123    1
   126   122   121    1
   127   101    98    1
   128   117   118    1
   129   100    99    2
   130    98    99    1
   131   134   133    1
   132   134   135    1
   133   120   119    2
   134   118   119    1
   135   135   136    2
