@<TRIPOS>MOLECULE
tmp/3epoB00.pdb
 142 131 0 0 0
SMALL
GASTEIGER

@<TRIPOS>ATOM
      1  N         70.1110   45.8280   27.2330 N.3   202  ASN202     -0.1240
      2  CA        71.2910   45.1810   27.7890 C.3   202  ASN202      0.1653
      3  C         72.5650   45.5370   27.0440 C.2   202  ASN202      0.2266
      4  O         72.5930   45.5520   25.8100 O.2   202  ASN202     -0.2867
      5  CB        71.1120   43.6680   27.8060 C.3   202  ASN202      0.1155
      6  CG        70.1140   43.2310   28.8270 C.2   202  ASN202      0.2627
      7  OD1       69.9230   43.9040   29.8360 O.2   202  ASN202     -0.2716
      8  ND2       69.4580   42.1050   28.5770 N.am  202  ASN202     -0.0877
      9  N         71.2360   47.7670   31.4870 N.3   226  MET226     -0.1245
     10  CA        71.9420   46.8140   32.3360 C.3   226  MET226      0.1570
     11  C         73.3040   46.4770   31.7740 C.2   226  MET226      0.2261
     12  O         73.4390   46.1130   30.6010 O.2   226  MET226     -0.2867
     13  CB        71.1460   45.5300   32.5120 C.3   226  MET226      0.0387
     14  CG        69.8870   45.6830   33.3350 C.3   226  MET226      0.0595
     15  SD        69.4550   44.1160   34.0950 S.3   226  MET226     -0.1393
     16  CE        70.6450   44.0790   35.4430 C.3   226  MET226      0.0692
     17  N         75.8680   43.8540   31.6360 N.3   228  LEU228     -0.1245
     18  CA        75.9270   42.4240   31.8890 C.3   228  LEU228      0.1561
     19  C         77.3210   41.8770   31.6100 C.2   228  LEU228      0.2260
     20  O         77.4920   40.6800   31.4150 O.2   228  LEU228     -0.2867
     21  CB        74.8820   41.6970   31.0370 C.3   228  LEU228      0.0270
     22  CG        73.4240   41.9290   31.4450 C.3   228  LEU228      0.0019
     23  CD1       72.4720   41.1680   30.5330 C.3   228  LEU228      0.0001
     24  CD2       73.1900   41.5430   32.9030 C.3   228  LEU228      0.0001
     25  N         74.0770   42.6230   37.5620 N.3   252  VAL252     -0.1245
     26  CA        73.9590   41.3820   38.3300 C.3   252  VAL252      0.1561
     27  C         75.2670   41.2090   39.1160 C.2   252  VAL252      0.2260
     28  O         76.2560   40.7110   38.5770 O.2   252  VAL252     -0.2867
     29  CB        73.7430   40.1340   37.4430 C.3   252  VAL252      0.0252
     30  CG1       73.2060   38.9790   38.2870 C.3   252  VAL252      0.0019
     31  CG2       72.7960   40.4180   36.2770 C.3   252  VAL252      0.0019
     32  N         77.9140   38.2980   38.9360 N.3   255  TYR255     -0.1241
     33  CA        78.8640   38.2090   37.8250 C.3   255  TYR255      0.1605
     34  C         80.2610   38.6820   38.2420 C.2   255  TYR255      0.2264
     35  O         81.2600   38.0220   37.9570 O.2   255  TYR255     -0.2867
     36  CB        78.3990   39.0470   36.6360 C.3   255  TYR255      0.0534
     37  CG        77.1640   38.5530   35.9210 C.ar  255  TYR255     -0.0201
     38  CD1       76.3560   37.5620   36.4660 C.ar  255  TYR255     -0.0009
     39  CD2       76.7890   39.1080   34.7050 C.ar  255  TYR255     -0.0009
     40  CE1       75.2130   37.1280   35.8050 C.ar  255  TYR255      0.0417
     41  CE2       75.6560   38.6840   34.0400 C.ar  255  TYR255      0.0417
     42  CZ        74.8720   37.6950   34.5890 C.ar  255  TYR255      0.1957
     43  OH        73.7500   37.2860   33.9080 O.3   255  TYR255     -0.2866
     44  N         70.1860   43.0340   40.3360 N.3   289  THR289     -0.1218
     45  CA        69.4630   41.7930   40.1310 C.3   289  THR289      0.1862
     46  C         70.0270   40.7620   41.0910 C.2   289  THR289      0.2287
     47  O         71.2120   40.4390   41.0380 O.2   289  THR289     -0.2866
     48  CB        69.6170   41.2760   38.6950 C.3   289  THR289      0.1770
     49  OG1       68.9490   42.1660   37.7920 O.3   289  THR289     -0.2211
     50  CG2       69.0230   39.8890   38.5710 C.3   289  THR289      0.0375
     51  N         69.3920   36.9560   42.7090 N.3   291  HIS291     -0.1241
     52  CA        68.6760   35.6910   42.5280 C.3   291  HIS291      0.1621
     53  C         68.5590   34.9510   43.8490 C.2   291  HIS291      0.2264
     54  O         69.0060   33.8110   43.9700 O.2   291  HIS291     -0.2867
     55  CB        69.3890   34.7780   41.5130 C.3   291  HIS291      0.0745
     56  CG        69.4990   35.3540   40.1340 C.ar  291  HIS291      0.0817
     57  ND1       70.6230   36.0230   39.6920 N.ar  291  HIS291     -0.2268
     58  CD2       68.6340   35.3450   39.0920 C.ar  291  HIS291      0.1154
     59  CE1       70.4410   36.4060   38.4400 C.ar  291  HIS291      0.1986
     60  NE2       69.2420   36.0070   38.0520 N.ar  291  HIS291     -0.2212
     61  N         67.9510   28.4390   32.4990 N.3   310  VAL310     -0.1231
     62  CA        68.5490   29.3000   31.4840 C.3   310  VAL310      0.1692
     63  C         69.1380   30.6090   32.0330 C.2   310  VAL310      0.2593
     64  O         69.9640   31.2370   31.3770 O.2   310  VAL310     -0.2718
     65  CB        67.5720   29.5770   30.2840 C.3   310  VAL310      0.0266
     66  CG1       67.1470   28.2560   29.6290 C.3   310  VAL310      0.0020
     67  CG2       66.3560   30.3880   30.7230 C.3   310  VAL310      0.0020
     68  N         68.7210   31.0250   33.2260 N.am  311  SER311     -0.1938
     69  CA        69.2980   32.2150   33.8470 C.3   311  SER311      0.2055
     70  C         70.7810   31.9990   34.1250 C.2   311  SER311      0.2643
     71  O         71.1650   30.9470   34.6290 O.2   311  SER311     -0.2714
     72  CB        68.5840   32.5350   35.1620 C.3   311  SER311      0.2130
     73  OG        69.3740   33.4030   35.9610 O.3   311  SER311     -0.2179
     74  N         71.6160   32.9870   33.8130 N.am  312  ARG312     -0.1963
     75  CA        73.0500   32.8400   34.0630 C.3   312  ARG312      0.1729
     76  C         73.3640   32.9140   35.5570 C.2   312  ARG312      0.2616
     77  O         74.0340   32.0400   36.0970 O.2   312  ARG312     -0.2715
     78  CB        73.8730   33.8760   33.2870 C.3   312  ARG312      0.0348
     79  CG        75.3630   33.8570   33.6560 C.3   312  ARG312      0.0492
     80  CD        76.1440   34.9470   32.9550 C.3   312  ARG312      0.2205
     81  NE        76.1030   34.7870   31.5070 N.pl3 312  ARG312     -0.0865
     82  CZ        77.0250   34.1390   30.8040 C.cat 312  ARG312      0.5346
     83  NH1       76.9040   34.0380   29.4860 N.pl3 312  ARG312      0.1354
     84  NH2       78.0680   33.5930   31.4160 N.pl3 312  ARG312      0.1354
     85  N         72.8640   33.9560   36.2160 N.am  313  GLY313     -0.1955
     86  CA        73.0370   34.1240   37.6470 C.3   313  GLY313      0.1869
     87  C         72.3580   33.0180   38.4250 C.2   313  GLY313      0.2309
     88  O         72.8730   32.5450   39.4420 O.2   313  GLY313     -0.2863
     89  N         64.7910   36.3290   38.3270 N.3   352  ASP352     -0.1239
     90  CA        63.9970   35.2360   37.7900 C.3   352  ASP352      0.1674
     91  C         64.9530   34.1150   37.4060 C.2   352  ASP352      0.2266
     92  O         65.0650   33.7530   36.2240 O.2   352  ASP352     -0.2867
     93  CB        63.2050   35.7140   36.5620 C.3   352  ASP352      0.1410
     94  CG        64.0560   36.5440   35.6040 C.2   352  ASP352      0.3668
     95  OD1       65.2700   36.6870   35.8550 O.co2 352  ASP352     -0.2456
     96  OD2       63.5210   37.0600   34.6000 O.co2 352  ASP352     -0.2456
     97  N         63.3150   31.1180   35.5590 N.3   355  ARG355     -0.1245
     98  CA        62.3910   31.4620   34.4890 C.3   355  ARG355      0.1563
     99  C         62.4180   30.3590   33.4380 C.2   355  ARG355      0.2260
    100  O         63.4180   29.6450   33.3120 O.2   355  ARG355     -0.2867
    101  CB        62.7360   32.8210   33.8730 C.3   355  ARG355      0.0307
    102  CG        64.1370   32.9220   33.2990 C.3   355  ARG355      0.0489
    103  CD        64.3000   34.2350   32.5620 C.3   355  ARG355      0.2205
    104  NE        65.5500   34.3150   31.8150 N.pl3 355  ARG355     -0.0865
    105  CZ        66.6960   34.7490   32.3260 C.cat 355  ARG355      0.5346
    106  NH1       66.7540   35.1350   33.5960 N.pl3 355  ARG355      0.1354
    107  NH2       67.7840   34.8010   31.5710 N.pl3 355  ARG355      0.1354
    108  N         61.2240   40.3310   38.8920 N.3   391  GLU391     -0.1245
    109  CA        61.5470   39.9050   37.5380 C.3   391  GLU391      0.1567
    110  C         60.6980   38.7020   37.1530 C.2   391  GLU391      0.2260
    111  O         60.3820   37.8760   38.0050 O.2   391  GLU391     -0.2867
    112  CB        63.0310   39.5690   37.4280 C.3   391  GLU391      0.0388
    113  CG        63.9430   40.7770   37.6640 C.3   391  GLU391      0.1160
    114  CD        65.3770   40.5320   37.2120 C.2   391  GLU391      0.3649
    115  OE1       66.1680   41.5010   37.1880 O.co2 391  GLU391     -0.2457
    116  OE2       65.7110   39.3750   36.8760 O.co2 391  GLU391     -0.2457
    117  N         58.8250   43.0350   36.0130 N.3   418  TYR418     -0.1241
    118  CA        59.8710   43.3220   35.0430 C.3   418  TYR418      0.1605
    119  C         60.1680   42.0600   34.2170 C.2   418  TYR418      0.2264
    120  O         60.7980   41.1340   34.7050 O.2   418  TYR418     -0.2867
    121  CB        61.1090   43.7970   35.8190 C.3   418  TYR418      0.0534
    122  CG        62.3460   44.1160   35.0130 C.ar  418  TYR418     -0.0201
    123  CD1       62.2800   44.3990   33.6510 C.ar  418  TYR418     -0.0009
    124  CD2       63.5850   44.1820   35.6340 C.ar  418  TYR418     -0.0009
    125  CE1       63.4350   44.7000   32.9280 C.ar  418  TYR418      0.0417
    126  CE2       64.7330   44.4830   34.9270 C.ar  418  TYR418      0.0417
    127  CZ        64.6540   44.7430   33.5800 C.ar  418  TYR418      0.1957
    128  OH        65.8040   45.0400   32.8940 O.3   418  TYR418     -0.2866
    129  N         61.2990   39.6670   30.6680 N.3   420  LEU420     -0.1245
    130  CA        62.1430   39.4800   29.4970 C.3   420  LEU420      0.1561
    131  C         61.2900   38.8380   28.4030 C.2   420  LEU420      0.2260
    132  O         61.1780   37.6160   28.3350 O.2   420  LEU420     -0.2867
    133  CB        63.3160   38.5640   29.8470 C.3   420  LEU420      0.0270
    134  CG        64.3340   38.2360   28.7550 C.3   420  LEU420      0.0019
    135  CD1       64.8830   39.5010   28.1040 C.3   420  LEU420      0.0001
    136  CD2       65.4570   37.4040   29.3420 C.3   420  LEU420      0.0001
    137  N         62.2510   44.0470   29.5640 N.3   452  CYS452     -0.1235
    138  CA        63.6270   43.9200   29.0960 C.3   452  CYS452      0.1677
    139  C         63.5950   43.4540   27.6370 C.2   452  CYS452      0.2270
    140  O         62.9330   42.4750   27.3020 O.2   452  CYS452     -0.2867
    141  CB        64.4120   42.9160   29.9360 C.3   452  CYS452      0.0956
    142  SG        66.1370   42.7440   29.4040 S.3   452  CYS452     -0.0801
@<TRIPOS>BOND
     1     4     3    2
     2     3     2    1
     3     1     2    1
     4   140   139    2
     5   139   138    1
     6     2     5    1
     7     5     6    1
     8   135   134    1
     9   132   131    2
    10   131   130    1
    11     8     6   am
    12   134   136    1
    13   134   133    1
    14     6     7    2
    15   138   137    1
    16   138   141    1
    17   142   141    1
    18    83    82    1
    19   130   133    1
    20   130   129    1
    21    66    65    1
    22    65    67    1
    23    65    62    1
    24    23    22    1
    25    12    11    2
    26    82    84    1
    27    82    81    2
    28    21    22    1
    29    21    18    1
    30    64    63    2
    31    20    19    2
    32    22    24    1
    33    62    63    1
    34    62    61    1
    35     9    10    1
    36    81    80    1
    37   107   105    1
    38    19    18    1
    39    17    18    1
    40    11    10    1
    41   104   105    2
    42   104   103    1
    43    63    68   am
    44   105   106    1
    45    10    13    1
    46    13    14    1
    47   103   102    1
    48   128   127    1
    49   125   127   ar
    50   125   123   ar
    51    80    79    1
    52    68    69    1
    53    78    79    1
    54    78    75    1
    55   102   101    1
    56   100    99    2
    57    14    15    1
    58    99    98    1
    59   127   126   ar
    60   123   122   ar
    61    74    75    1
    62    74    70   am
    63    69    70    1
    64    69    72    1
    65   101    98    1
    66    43    42    1
    67    41    42   ar
    68    41    39   ar
    69    75    76    1
    70    15    16    1
    71    70    71    2
    72   119   120    2
    73   119   118    1
    74    98    97    1
    75    42    40   ar
    76    96    94   ar
    77    39    37   ar
    78   126   124   ar
    79   122   124   ar
    80   122   121    1
    81   118   121    1
    82   118   117    1
    83    72    73    1
    84    76    77    2
    85    76    85   am
    86    94    95   ar
    87    94    93    1
    88    40    38   ar
    89    37    38   ar
    90    37    36    1
    91    85    86    1
    92    92    91    2
    93    31    29    1
    94    93    90    1
    95    36    33    1
    96   116   114   ar
    97   110   109    1
    98   110   111    2
    99   115   114   ar
   100   114   113    1
   101    91    90    1
   102   112   109    1
   103   112   113    1
   104    29    30    1
   105    29    26    1
   106   109   108    1
   107    25    26    1
   108    86    87    1
   109    90    89    1
   110    49    48    1
   111    33    34    1
   112    33    32    1
   113    35    34    2
   114    60    59   ar
   115    60    58   ar
   116    26    27    1
   117    87    88    2
   118    59    57   ar
   119    50    48    1
   120    28    27    2
   121    48    45    1
   122    58    56   ar
   123    57    56   ar
   124    45    44    1
   125    45    46    1
   126    56    55    1
   127    47    46    2
   128    55    52    1
   129    52    51    1
   130    52    53    1
   131    53    54    2
