@<TRIPOS>MOLECULE
tmp/3eppA00.pdb
 165 158 0 0 0
SMALL
GASTEIGER

@<TRIPOS>ATOM
      1  N          6.8920    5.9260   33.8480 N.3    12  LYS12      -0.1245
      2  CA         5.4860    5.6970   34.0950 C.3    12  LYS12       0.1561
      3  C          4.9240    6.7450   35.0470 C.2    12  LYS12       0.2260
      4  O          3.7710    7.1290   34.9460 O.2    12  LYS12      -0.2867
      5  CB         5.2910    4.2930   34.6640 C.3    12  LYS12       0.0271
      6  CG         5.5100    3.1500   33.6500 C.3    12  LYS12       0.0035
      7  CD         5.1770    1.7630   34.2290 C.3    12  LYS12       0.0206
      8  CE         6.1840    1.3400   35.2460 C.3    12  LYS12       0.1093
      9  NZ         5.6850    0.2140   36.1190 N.3    12  LYS12      -0.1314
     10  N         -5.9280   -0.4640   35.4310 N.3    33  ASP33      -0.1239
     11  CA        -4.5710   -0.9160   35.3110 C.3    33  ASP33       0.1674
     12  C         -4.6350   -2.3360   34.6820 C.2    33  ASP33       0.2266
     13  O         -4.9680   -3.3380   35.3330 O.2    33  ASP33      -0.2867
     14  CB        -3.9990   -0.9080   36.7240 C.3    33  ASP33       0.1410
     15  CG        -2.4890   -0.9770   36.7730 C.2    33  ASP33       0.3668
     16  OD1       -1.8320   -1.2590   35.7290 O.co2  33  ASP33      -0.2456
     17  OD2       -1.9750   -0.7870   37.9160 O.co2  33  ASP33      -0.2456
     18  N         -2.9340   -5.4200   32.8520 N.3    35  GLY35      -0.1210
     19  CA        -1.6380   -6.0530   32.9320 C.3    35  GLY35       0.1956
     20  C         -0.7920   -5.4870   34.0600 C.2    35  GLY35       0.2612
     21  O          0.4020   -5.2590   33.8870 O.2    35  GLY35      -0.2717
     22  N         -1.4220   -5.3180   35.2160 N.am   36  CYS36      -0.1956
     23  CA        -0.9200   -4.6000   36.3810 C.3    36  CYS36       0.1843
     24  C          0.3180   -5.2340   37.0480 C.2    36  CYS36       0.2626
     25  O          0.9750   -4.5930   37.8590 O.2    36  CYS36      -0.2714
     26  CB        -2.0540   -4.5080   37.4090 C.3    36  CYS36       0.0997
     27  SG        -2.5130   -6.1590   38.1060 S.3    36  CYS36      -0.0797
     28  N          0.6230   -6.4920   36.7170 N.am   37  GLY37      -0.1954
     29  CA         1.7180   -7.2170   37.3650 C.3    37  GLY37       0.1869
     30  C          1.5210   -7.4000   38.8570 C.2    37  GLY37       0.2309
     31  O          0.3990   -7.5790   39.3390 O.2    37  GLY37      -0.2863
     32  N          3.4300   -2.8110   40.7120 N.3    40  GLY40      -0.1210
     33  CA         4.4590   -1.7720   40.6060 C.3    40  GLY40       0.1956
     34  C          3.9480   -0.3280   40.4670 C.2    40  GLY40       0.2611
     35  O          4.7170    0.6180   40.6740 O.2    40  GLY40      -0.2717
     36  N          2.6740   -0.1370   40.1090 N.am   41  ASP41      -0.1973
     37  CA         2.1420    1.2190   39.8710 C.3    41  ASP41       0.1709
     38  C          1.1180    1.6620   40.8780 C.2    41  ASP41       0.2293
     39  O          0.6060    2.7530   40.7660 O.2    41  ASP41      -0.2864
     40  CB         1.5480    1.3830   38.4540 C.3    41  ASP41       0.1436
     41  CG         2.6180    1.4440   37.3530 C.2    41  ASP41       0.3671
     42  OD1        2.2350    1.3550   36.1630 O.co2  41  ASP41      -0.2456
     43  OD2        3.8240    1.6030   37.6760 O.co2  41  ASP41      -0.2456
     44  N         -5.9940   -5.7260   36.8010 N.3    56  THR56      -0.1203
     45  CA        -6.2250   -7.0070   36.1590 C.3    56  THR56       0.1994
     46  C         -4.9620   -7.5340   35.4330 C.2    56  THR56       0.2618
     47  O         -4.1940   -6.7620   34.9030 O.2    56  THR56      -0.2717
     48  CB        -7.5510   -7.0200   35.2700 C.3    56  THR56       0.1784
     49  OG1       -7.8100   -8.3660   34.8290 O.3    56  THR56      -0.2211
     50  CG2       -7.4750   -6.0680   34.0530 C.3    56  THR56       0.0376
     51  N         -4.7740   -8.8590   35.4220 N.am   57  ASP57      -0.1959
     52  CA        -3.5780   -9.4690   34.8420 C.3    57  ASP57       0.1840
     53  C         -3.8490  -10.9260   34.4860 C.2    57  ASP57       0.2622
     54  O         -4.7500  -11.5580   35.0300 O.2    57  ASP57      -0.2715
     55  CB        -2.4060   -9.3640   35.8340 C.3    57  ASP57       0.1450
     56  CG        -1.0480   -9.5160   35.1780 C.2    57  ASP57       0.3671
     57  OD1       -0.6490  -10.6790   34.8790 O.co2  57  ASP57      -0.2456
     58  OD2       -0.3670   -8.4770   35.0130 O.co2  57  ASP57      -0.2456
     59  N         -3.0480  -11.4760   33.5800 N.am   58  ILE58      -0.1963
     60  CA        -3.2680  -12.8400   33.1580 C.3    58  ILE58       0.1727
     61  C         -2.8290  -13.8380   34.2410 C.2    58  ILE58       0.2616
     62  O         -3.4390  -14.9110   34.3850 O.2    58  ILE58      -0.2715
     63  CB        -2.6790  -13.1360   31.7360 C.3    58  ILE58       0.0290
     64  CG1       -3.3330  -14.4110   31.1430 C.3    58  ILE58       0.0022
     65  CG2       -1.1290  -13.1580   31.7760 C.3    58  ILE58       0.0023
     66  CD1       -2.8580  -14.8390   29.7150 C.3    58  ILE58       0.0001
     67  N         -1.8110  -13.4460   35.0270 N.am   59  ALA59      -0.1977
     68  CA        -1.1420  -14.3370   35.9990 C.3    59  ALA59       0.1597
     69  C         -1.7680  -14.1450   37.3560 C.2    59  ALA59       0.2287
     70  O         -1.6440  -13.0820   37.9550 O.2    59  ALA59      -0.2864
     71  CB         0.3610  -14.0300   36.0620 C.3    59  ALA59       0.0319
     72  N          0.5020  -13.0670   40.2920 N.3    62  SER62      -0.1217
     73  CA         0.8700  -11.6550   40.2580 C.3    62  SER62       0.1889
     74  C         -0.2520  -10.7380   40.7560 C.2    62  SER62       0.2288
     75  O         -0.0040   -9.8040   41.5250 O.2    62  SER62      -0.2866
     76  CB         1.3010  -11.2560   38.8430 C.3    62  SER62       0.2089
     77  OG         2.5310  -11.8720   38.5130 O.3    62  SER62      -0.2183
     78  N         -7.7230  -12.2250   34.5230 N.3    88  ALA88      -0.1231
     79  CA        -8.2800  -12.4910   33.2050 C.3    88  ALA88       0.1694
     80  C         -7.1820  -12.4140   32.1200 C.2    88  ALA88       0.2592
     81  O         -6.1360  -11.8160   32.3440 O.2    88  ALA88      -0.2718
     82  CB        -9.4410  -11.5390   32.8890 C.3    88  ALA88       0.0304
     83  N         -7.4100  -13.0830   30.9890 N.am   89  ASP89      -0.1960
     84  CA        -6.6290  -12.9010   29.7630 C.3    89  ASP89       0.1840
     85  C         -7.3850  -11.8260   28.9930 C.2    89  ASP89       0.2623
     86  O         -8.4120  -12.1090   28.3900 O.2    89  ASP89      -0.2715
     87  CB        -6.5260  -14.2520   28.9760 C.3    89  ASP89       0.1450
     88  CG        -5.7050  -14.1410   27.6650 C.2    89  ASP89       0.3671
     89  OD1       -5.4010  -13.0100   27.2150 O.co2  89  ASP89      -0.2456
     90  OD2       -5.3390  -15.1980   27.0840 O.co2  89  ASP89      -0.2456
     91  N         -6.9110  -10.5800   29.0890 N.am   90  SER90      -0.1936
     92  CA        -7.5360   -9.4180   28.4030 C.3    90  SER90       0.2055
     93  C         -7.4170   -9.4650   26.8650 C.2    90  SER90       0.2643
     94  O         -7.9330   -8.5930   26.1450 O.2    90  SER90      -0.2714
     95  CB        -6.9480   -8.0820   28.9020 C.3    90  SER90       0.2130
     96  OG        -7.3400   -7.8000   30.2220 O.3    90  SER90      -0.2179
     97  N         -6.7110  -10.4620   26.3620 N.am   91  SER91      -0.1949
     98  CA        -6.6380  -10.6340   24.9090 C.3    91  SER91       0.1924
     99  C         -7.6810  -11.6680   24.4130 C.2    91  SER91       0.2314
    100  O         -7.9390  -11.7750   23.2240 O.2    91  SER91      -0.2863
    101  CB        -5.1960  -10.9430   24.4660 C.3    91  SER91       0.2116
    102  OG        -4.8650  -12.3050   24.6650 O.3    91  SER91      -0.2180
    103  N          0.9320   -0.6230   30.7590 N.3   112  GLN112     -0.1231
    104  CA         2.3610   -0.3950   30.8180 C.3   112  GLN112      0.1698
    105  C          3.1480   -1.6690   30.5680 C.2   112  GLN112      0.2592
    106  O          3.1140   -2.5940   31.4080 O.2   112  GLN112     -0.2718
    107  CB         2.7410    0.1240   32.1860 C.3   112  GLN112      0.0381
    108  CG         2.0950    1.4470   32.6230 C.3   112  GLN112      0.0905
    109  CD         2.2030    2.5560   31.6110 C.2   112  GLN112      0.2608
    110  OE1        1.3260    3.3920   31.5320 O.2   112  GLN112     -0.2717
    111  NE2        3.2700    2.5860   30.8620 N.am  112  GLN112     -0.0878
    112  N          3.8800   -1.7070   29.4480 N.am  113  PHE113     -0.1962
    113  CA         4.6790   -2.8770   29.0640 C.3   113  PHE113      0.1771
    114  C          3.8220   -4.1280   28.9510 C.2   113  PHE113      0.2619
    115  O          4.1910   -5.1780   29.4910 O.2   113  PHE113     -0.2715
    116  CB         5.8430   -3.1240   30.0450 C.3   113  PHE113      0.0574
    117  CG         6.7660   -1.9690   30.1840 C.ar  113  PHE113     -0.0200
    118  CD1        7.7250   -1.7070   29.1990 C.ar  113  PHE113     -0.0042
    119  CD2        6.6470   -1.0960   31.2710 C.ar  113  PHE113     -0.0042
    120  CE1        8.5840   -0.6230   29.3050 C.ar  113  PHE113     -0.0003
    121  CE2        7.4960   -0.0030   31.3890 C.ar  113  PHE113     -0.0003
    122  CZ         8.4720    0.2330   30.3930 C.ar  113  PHE113     -0.0000
    123  N          2.7060   -4.0410   28.2150 N.am  114  VAL114     -0.1977
    124  CA         1.7530   -5.1710   28.1330 C.3   114  VAL114      0.1596
    125  C          1.2750   -5.5230   26.7140 C.2   114  VAL114      0.2287
    126  O          1.1260   -6.6940   26.3900 O.2   114  VAL114     -0.2864
    127  CB         0.5540   -4.9440   29.1040 C.3   114  VAL114      0.0276
    128  CG1       -0.4250   -6.0740   29.0480 C.3   114  VAL114      0.0022
    129  CG2        1.0770   -4.8140   30.5170 C.3   114  VAL114      0.0022
    130  N          2.3420   -5.6030   23.5660 N.3   116  HIS116     -0.1226
    131  CA         3.1010   -6.4910   22.6730 C.3   116  HIS116      0.1752
    132  C          2.7080   -7.9740   22.8120 C.2   116  HIS116      0.2596
    133  O          2.8130   -8.7070   21.8360 O.2   116  HIS116     -0.2718
    134  CB         4.6170   -6.3100   22.8300 C.3   116  HIS116      0.0759
    135  CG         5.0580   -6.1110   24.2460 C.ar  116  HIS116      0.0818
    136  ND1        4.7670   -4.9710   24.9620 N.ar  116  HIS116     -0.2268
    137  CD2        5.7860   -6.8940   25.0740 C.ar  116  HIS116      0.1154
    138  CE1        5.2920   -5.0610   26.1700 C.ar  116  HIS116      0.1986
    139  NE2        5.9140   -6.2180   26.2630 N.ar  116  HIS116     -0.2212
    140  N          2.2130   -8.3790   23.9930 N.am  117  TYR117     -0.1962
    141  CA         1.6890   -9.7400   24.2050 C.3   117  TYR117      0.1771
    142  C          0.3890  -10.0470   23.4590 C.2   117  TYR117      0.2620
    143  O          0.1400  -11.2030   23.1220 O.2   117  TYR117     -0.2715
    144  CB         1.5570  -10.0830   25.7090 C.3   117  TYR117      0.0574
    145  CG         2.8980  -10.0380   26.4020 C.ar  117  TYR117     -0.0198
    146  CD1        3.1810   -9.0860   27.3700 C.ar  117  TYR117     -0.0009
    147  CD2        3.9040  -10.9340   26.0440 C.ar  117  TYR117     -0.0009
    148  CE1        4.4440   -9.0380   27.9760 C.ar  117  TYR117      0.0417
    149  CE2        5.1600  -10.8810   26.6170 C.ar  117  TYR117      0.0417
    150  CZ         5.4280   -9.9470   27.5720 C.ar  117  TYR117      0.1957
    151  OH         6.6820   -9.9610   28.1330 O.3   117  TYR117     -0.2866
    152  N         -0.4240   -9.0260   23.1850 N.am  118  SER118     -0.1950
    153  CA        -1.7390   -9.2490   22.5370 C.3   118  SER118      0.1924
    154  C         -1.6570   -9.3510   21.0210 C.2   118  SER118      0.2314
    155  O         -2.6400   -9.6960   20.3640 O.2   118  SER118     -0.2863
    156  CB        -2.7380   -8.1600   22.9250 C.3   118  SER118      0.2116
    157  OG        -2.3660   -6.9090   22.3770 O.3   118  SER118     -0.2180
    158  N         -7.7610   -6.8340   23.2540 N.3   128  MET128     -0.1245
    159  CA        -7.0850   -6.1070   24.3250 C.3   128  MET128      0.1570
    160  C         -7.2660   -4.5980   24.2360 C.2   128  MET128      0.2261
    161  O         -7.1610   -3.9170   25.2360 O.2   128  MET128     -0.2867
    162  CB        -5.6070   -6.4410   24.4380 C.3   128  MET128      0.0387
    163  CG        -4.9920   -5.6820   25.5990 C.3   128  MET128      0.0595
    164  SD        -3.3050   -6.0510   25.9990 S.3   128  MET128     -0.1393
    165  CE        -3.5090   -7.4130   27.1730 C.3   128  MET128      0.0692
@<TRIPOS>BOND
     1   155   154    2
     2   154   153    1
     3   133   132    2
     4   157   156    1
     5   153   156    1
     6   153   152    1
     7   131   132    1
     8   131   134    1
     9   131   130    1
    10   132   140   am
    11   134   135    1
    12   143   142    2
    13   152   142   am
    14   100    99    2
    15   158   159    1
    16   142   141    1
    17   140   141    1
    18   141   144    1
    19   160   159    1
    20   160   161    2
    21   135   136   ar
    22   135   137   ar
    23   159   162    1
    24    99    98    1
    25   162   163    1
    26   101   102    1
    27   101    98    1
    28    98    97    1
    29   136   138   ar
    30   137   139   ar
    31   163   164    1
    32   144   145    1
    33   164   165    1
    34   147   145   ar
    35   147   149   ar
    36    94    93    2
    37   138   139   ar
    38    97    93   am
    39   126   125    2
    40   145   146   ar
    41   149   150   ar
    42   125   124    1
    43    93    92    1
    44    90    88   ar
    45    89    88   ar
    46   146   148   ar
    47   150   148   ar
    48   150   151    1
    49    88    87    1
    50   124   123    1
    51   124   127    1
    52   123   114   am
    53    86    85    2
    54    92    95    1
    55    92    91    1
    56    95    96    1
    57   114   113    1
    58   114   115    2
    59    87    84    1
    60    85    91   am
    61    85    84    1
    62   128   127    1
    63   113   112    1
    64   113   116    1
    65   127   129    1
    66   118   120   ar
    67   118   117   ar
    68   120   122   ar
    69   112   105   am
    70    66    64    1
    71    84    83    1
    72   116   117    1
    73   117   119   ar
    74   122   121   ar
    75   105   104    1
    76   105   106    2
    77   103   104    1
    78   104   107    1
    79   111   109   am
    80    83    80   am
    81    64    63    1
    82   119   121   ar
    83   110   109    2
    84   109   108    1
    85    63    65    1
    86    63    60    1
    87    80    81    2
    88    80    79    1
    89   107   108    1
    90    18    19    1
    91    82    79    1
    92    19    20    1
    93    60    59    1
    94    60    61    1
    95    79    78    1
    96    59    53   am
    97     6     7    1
    98     6     5    1
    99     1     2    1
   100    21    20    2
   101    50    48    1
   102    20    22   am
   103     2     5    1
   104     2     3    1
   105     7     8    1
   106    61    62    2
   107    61    67   am
   108    53    52    1
   109    53    54    2
   110    12    11    1
   111    12    13    2
   112    49    48    1
   113    52    51    1
   114    52    55    1
   115    57    56   ar
   116    47    46    2
   117     4     3    2
   118    58    56   ar
   119    67    68    1
   120    56    55    1
   121    22    23    1
   122     8     9    1
   123    48    45    1
   124    11    10    1
   125    11    14    1
   126    51    46   am
   127    46    45    1
   128    16    15   ar
   129    68    71    1
   130    68    69    1
   131    45    44    1
   132    42    41   ar
   133    23    24    1
   134    23    26    1
   135    28    24   am
   136    28    29    1
   137    14    15    1
   138    15    17   ar
   139    24    25    2
   140    41    43   ar
   141    41    40    1
   142    69    70    2
   143    29    30    1
   144    26    27    1
   145    40    37    1
   146    77    76    1
   147    76    73    1
   148    30    31    2
   149    37    36    1
   150    37    38    1
   151    36    34   am
   152    73    72    1
   153    73    74    1
   154    34    33    1
   155    34    35    2
   156    33    32    1
   157    74    75    2
   158    39    38    2
