@<TRIPOS>MOLECULE
tmp/3epsA00.pdb
 174 167 0 0 0
SMALL
GASTEIGER

@<TRIPOS>ATOM
      1  N         48.9020    2.4100    9.3160 N.3    53  TYR53      -0.1227
      2  CA        47.7620    2.4420    8.4160 C.3    53  TYR53       0.1736
      3  C         46.5840    3.2310    8.9570 C.2    53  TYR53       0.2595
      4  O         46.0500    4.0990    8.2790 O.2    53  TYR53      -0.2718
      5  CB        47.3370    1.0160    8.1000 C.3    53  TYR53       0.0548
      6  CG        46.2150    0.8850    7.1070 C.ar   53  TYR53      -0.0200
      7  CD1       44.8910    1.0880    7.4880 C.ar   53  TYR53      -0.0009
      8  CD2       46.4710    0.4780    5.8000 C.ar   53  TYR53      -0.0009
      9  CE1       43.8440    0.8730    6.5970 C.ar   53  TYR53       0.0417
     10  CE2       45.4380    0.2630    4.9010 C.ar   53  TYR53       0.0417
     11  CZ        44.1280    0.4560    5.3070 C.ar   53  TYR53       0.1957
     12  OH        43.1100    0.1990    4.4280 O.3    53  TYR53      -0.2866
     13  N         46.1650    2.9320   10.1750 N.am   54  ASP54      -0.1974
     14  CA        45.0420    3.6530   10.7400 C.3    54  ASP54       0.1709
     15  C         45.3880    5.1060   10.9980 C.2    54  ASP54       0.2293
     16  O         44.5340    5.9880   10.8850 O.2    54  ASP54      -0.2864
     17  CB        44.5680    2.9650   12.0100 C.3    54  ASP54       0.1436
     18  CG        43.5890    1.8400   11.7160 C.2    54  ASP54       0.3671
     19  OD1       43.6230    0.8190   12.4410 O.co2  54  ASP54      -0.2456
     20  OD2       42.7790    1.9860   10.7610 O.co2  54  ASP54      -0.2456
     21  N         41.8840   -1.0550   -0.5990 N.3   100  SER100     -0.1217
     22  CA        41.6100   -1.2530    0.8170 C.3   100  SER100      0.1889
     23  C         41.6350    0.1000    1.5050 C.2   100  SER100      0.2288
     24  O         40.7120    0.4410    2.2560 O.2   100  SER100     -0.2866
     25  CB        42.6560   -2.1750    1.4580 C.3   100  SER100      0.2089
     26  OG        42.4160   -3.5390    1.1490 O.3   100  SER100     -0.2183
     27  N         38.6140    2.0030    0.9570 N.3   103  ASN103     -0.1225
     28  CA        37.5300    1.4080    1.7360 C.3   103  ASN103      0.1785
     29  C         37.6150    1.8770    3.1700 C.2   103  ASN103      0.2597
     30  O         36.6290    2.3150    3.7490 O.2   103  ASN103     -0.2718
     31  CB        37.6340   -0.1060    1.6980 C.3   103  ASN103      0.1169
     32  CG        37.3850   -0.6650    0.3180 C.2   103  ASN103      0.2627
     33  OD1       37.4700   -1.8740    0.1010 O.2   103  ASN103     -0.2716
     34  ND2       37.0660    0.2140   -0.6280 N.am  103  ASN103     -0.0877
     35  N         38.8110    1.7840    3.7310 N.am  104  SER104     -0.1952
     36  CA        39.0580    2.2070    5.0980 C.3   104  SER104      0.1924
     37  C         38.5890    3.6440    5.2850 C.2   104  SER104      0.2314
     38  O         37.9060    3.9680    6.2640 O.2   104  SER104     -0.2863
     39  CB        40.5490    2.0780    5.4150 C.3   104  SER104      0.2116
     40  OG        40.9450    0.7130    5.3660 O.3   104  SER104     -0.2180
     41  N         34.7740    3.8500    5.0480 N.3   107  CYS107     -0.1221
     42  CA        34.2190    3.3900    6.3140 C.3   107  CYS107      0.1808
     43  C         34.2850    4.4300    7.4280 C.2   107  CYS107      0.2601
     44  O         33.2910    4.6450    8.1200 O.2   107  CYS107     -0.2717
     45  CB        34.9430    2.1310    6.7700 C.3   107  CYS107      0.0970
     46  SG        34.5230    0.6500    5.8680 S.3   107  CYS107     -0.0800
     47  N         35.4430    5.0630    7.6200 N.am  108  ARG108     -0.1979
     48  CA        35.5600    6.0760    8.6690 C.3   108  ARG108      0.1597
     49  C         34.5220    7.1520    8.3890 C.2   108  ARG108      0.2287
     50  O         33.8640    7.6470    9.3000 O.2   108  ARG108     -0.2864
     51  CB        36.9500    6.7300    8.6780 C.3   108  ARG108      0.0334
     52  CG        38.1160    5.7970    8.9680 C.3   108  ARG108      0.0492
     53  CD        38.2170    5.4450   10.4360 C.3   108  ARG108      0.2205
     54  NE        39.2500    6.1960   11.1380 N.pl3 108  ARG108     -0.0865
     55  CZ        40.5110    5.7950   11.2890 C.cat 108  ARG108      0.5346
     56  NH1       40.9140    4.6340   10.7840 N.pl3 108  ARG108      0.1354
     57  NH2       41.3720    6.5540   11.9660 N.pl3 108  ARG108      0.1354
     58  N         31.2990    2.9710    9.1250 N.3   112  HIS112     -0.1241
     59  CA        31.0980    1.5790    8.7440 C.3   112  HIS112      0.1621
     60  C         29.7190    1.0750    8.3410 C.2   112  HIS112      0.2264
     61  O         29.4580   -0.1300    8.4380 O.2   112  HIS112     -0.2867
     62  CB        31.6450    0.6970    9.8530 C.3   112  HIS112      0.0745
     63  CG        33.1180    0.8360   10.0330 C.ar  112  HIS112      0.0817
     64  ND1       34.0260    0.0910    9.3140 N.ar  112  HIS112     -0.2268
     65  CD2       33.8450    1.6830   10.7970 C.ar  112  HIS112      0.1154
     66  CE1       35.2500    0.4740    9.6280 C.ar  112  HIS112      0.1986
     67  NE2       35.1690    1.4390   10.5250 N.ar  112  HIS112     -0.2212
     68  N         27.5930   -0.1490    3.1760 N.3   115  LEU115     -0.1245
     69  CA        28.7390   -0.4990    2.3410 C.3   115  LEU115      0.1561
     70  C         28.3540   -1.3220    1.1160 C.2   115  LEU115      0.2260
     71  O         28.6090   -2.5230    1.0810 O.2   115  LEU115     -0.2867
     72  CB        29.7510   -1.3080    3.1560 C.3   115  LEU115      0.0270
     73  CG        30.6210   -0.6310    4.2090 C.3   115  LEU115      0.0019
     74  CD1       29.8540    0.4420    4.9300 C.3   115  LEU115      0.0001
     75  CD2       31.1150   -1.6890    5.1780 C.3   115  LEU115      0.0001
     76  N         32.1360    1.1240   -2.6480 N.3   120  LEU120     -0.1245
     77  CA        33.5260    0.8530   -2.2640 C.3   120  LEU120      0.1561
     78  C         34.0030   -0.4950   -2.8070 C.2   120  LEU120      0.2260
     79  O         33.1970   -1.3730   -3.1170 O.2   120  LEU120     -0.2867
     80  CB        33.7280    0.9180   -0.7380 C.3   120  LEU120      0.0270
     81  CG        33.2030   -0.1310    0.2420 C.3   120  LEU120      0.0019
     82  CD1       33.9340    0.0670    1.5500 C.3   120  LEU120      0.0001
     83  CD2       31.6990   -0.0120    0.4430 C.3   120  LEU120      0.0001
     84  N         34.5220   -3.4920   -2.3020 N.3   122  ILE122     -0.1245
     85  CA        34.4030   -4.6870   -1.5010 C.3   122  ILE122      0.1561
     86  C         34.9480   -5.8290   -2.3710 C.2   122  ILE122      0.2260
     87  O         35.4450   -6.8310   -1.8510 O.2   122  ILE122     -0.2867
     88  CB        32.9170   -4.9720   -1.0080 C.3   122  ILE122      0.0252
     89  CG1       32.2560   -6.0070   -1.8870 C.3   122  ILE122      0.0019
     90  CG2       32.0970   -3.6940   -0.9260 C.3   122  ILE122      0.0019
     91  CD1       32.5530   -7.3890   -1.4300 C.3   122  ILE122      0.0001
     92  N         45.8120   -4.9050    7.4720 N.3   290  LYS290     -0.1245
     93  CA        44.5970   -4.2360    7.0370 C.3   290  LYS290      0.1561
     94  C         44.1700   -4.7540    5.6680 C.2   290  LYS290      0.2260
     95  O         42.9950   -5.0170    5.4490 O.2   290  LYS290     -0.2867
     96  CB        44.8000   -2.7210    6.9800 C.3   290  LYS290      0.0271
     97  CG        45.2990   -2.1240    8.2900 C.3   290  LYS290      0.0035
     98  CD        44.3640   -2.4050    9.4540 C.3   290  LYS290      0.0206
     99  CE        42.9980   -1.7690    9.2450 C.3   290  LYS290      0.1093
    100  NZ        42.2040   -1.7540   10.5020 N.3   290  LYS290     -0.1314
    101  N         42.4320   -7.9770    5.7820 N.3   293  LYS293     -0.1231
    102  CA        41.0740   -7.9080    6.2860 C.3   293  LYS293      0.1693
    103  C         40.1340   -7.8150    5.0800 C.2   293  LYS293      0.2592
    104  O         39.0610   -8.4150    5.0590 O.2   293  LYS293     -0.2718
    105  CB        40.8980   -6.6910    7.1930 C.3   293  LYS293      0.0285
    106  CG        39.5620   -6.6770    7.9230 C.3   293  LYS293      0.0035
    107  CD        39.5470   -5.6270    8.9990 C.3   293  LYS293      0.0206
    108  CE        38.1420   -5.2660    9.3790 C.3   293  LYS293      0.1093
    109  NZ        38.1500   -3.9410   10.0500 N.3   293  LYS293     -0.1314
    110  N         40.5530   -7.0610    4.0710 N.am  294  THR294     -0.1953
    111  CA        39.7690   -6.8930    2.8580 C.3   294  THR294      0.1897
    112  C         39.6030   -8.2340    2.1540 C.2   294  THR294      0.2313
    113  O         38.5040   -8.5910    1.7280 O.2   294  THR294     -0.2863
    114  CB        40.4550   -5.8940    1.9120 C.3   294  THR294      0.1794
    115  OG1       40.4700   -4.6050    2.5350 O.3   294  THR294     -0.2208
    116  CG2       39.7150   -5.8020    0.5750 C.3   294  THR294      0.0378
    117  N         37.2690  -10.7260    4.0540 N.3   297  TYR297     -0.1241
    118  CA        35.8520  -10.4950    3.8210 C.3   297  TYR297      0.1605
    119  C         35.4240  -11.0780    2.4750 C.2   297  TYR297      0.2264
    120  O         34.2670  -11.4650    2.3010 O.2   297  TYR297     -0.2867
    121  CB        35.5240   -9.0110    3.8150 C.3   297  TYR297      0.0534
    122  CG        34.0340   -8.7770    3.7960 C.ar  297  TYR297     -0.0201
    123  CD1       33.2580   -9.0500    4.9310 C.ar  297  TYR297     -0.0009
    124  CD2       33.3890   -8.3430    2.6430 C.ar  297  TYR297     -0.0009
    125  CE1       31.8750   -8.9020    4.9160 C.ar  297  TYR297      0.0417
    126  CE2       32.0010   -8.1890    2.6140 C.ar  297  TYR297      0.0417
    127  CZ        31.2500   -8.4750    3.7560 C.ar  297  TYR297      0.1957
    128  OH        29.8770   -8.3770    3.7360 O.3   297  TYR297     -0.2866
    129  N         35.6620   -6.2500   13.5740 N.3   374  PHE374     -0.1227
    130  CA        34.7730   -5.7710   12.5370 C.3   374  PHE374      0.1736
    131  C         33.6540   -4.9680   13.1710 C.2   374  PHE374      0.2595
    132  O         33.0580   -5.3880   14.1660 O.2   374  PHE374     -0.2718
    133  CB        34.1600   -6.9330   11.7600 C.3   374  PHE374      0.0547
    134  CG        34.9680   -7.3770   10.5800 C.ar  374  PHE374     -0.0202
    135  CD1       36.0830   -8.1840   10.7430 C.ar  374  PHE374     -0.0042
    136  CD2       34.5950   -7.0040    9.2950 C.ar  374  PHE374     -0.0042
    137  CE1       36.8120   -8.6170    9.6430 C.ar  374  PHE374     -0.0003
    138  CE2       35.3220   -7.4320    8.1830 C.ar  374  PHE374     -0.0003
    139  CZ        36.4300   -8.2380    8.3590 C.ar  374  PHE374     -0.0000
    140  N         33.3910   -3.8060   12.5810 N.am  375  GLU375     -0.1965
    141  CA        32.3370   -2.9050   13.0200 C.3   375  GLU375      0.1733
    142  C         31.1460   -3.0830   12.0730 C.2   375  GLU375      0.2616
    143  O         31.3190   -3.1890   10.8670 O.2   375  GLU375     -0.2715
    144  CB        32.8250   -1.4600   12.9390 C.3   375  GLU375      0.0429
    145  CG        33.9800   -1.1110   13.8580 C.3   375  GLU375      0.1163
    146  CD        33.5660   -1.1020   15.3260 C.2   375  GLU375      0.3649
    147  OE1       33.2670   -2.1950   15.8670 O.co2 375  GLU375     -0.2457
    148  OE2       33.5290   -0.0010   15.9350 O.co2 375  GLU375     -0.2457
    149  N         29.9400   -3.1380   12.6130 N.am  376  ASN376     -0.1958
    150  CA        28.7620   -3.2770   11.7710 C.3   376  ASN376      0.1819
    151  C         28.8280   -4.3920   10.7230 C.2   376  ASN376      0.2621
    152  O         28.6190   -4.1530    9.5330 O.2   376  ASN376     -0.2715
    153  CB        28.4950   -1.9470   11.0810 C.3   376  ASN376      0.1195
    154  CG        28.0840   -0.8690   12.0560 C.2   376  ASN376      0.2630
    155  OD1       28.2580    0.3230   11.7870 O.2   376  ASN376     -0.2716
    156  ND2       27.5210   -1.2810   13.1970 N.am  376  ASN376     -0.0877
    157  N         29.1090   -5.6100   11.1780 N.am  377  PHE377     -0.1960
    158  CA        29.1660   -6.7650   10.2950 C.3   377  PHE377      0.1771
    159  C         27.7160   -7.1320    9.9710 C.2   377  PHE377      0.2619
    160  O         26.8700   -7.2320   10.8710 O.2   377  PHE377     -0.2715
    161  CB        29.8740   -7.9140   10.9990 C.3   377  PHE377      0.0574
    162  CG        30.2980   -9.0020   10.0850 C.ar  377  PHE377     -0.0200
    163  CD1       29.4170  -10.0170    9.7340 C.ar  377  PHE377     -0.0042
    164  CD2       31.5810   -9.0010    9.5400 C.ar  377  PHE377     -0.0042
    165  CE1       29.8050  -11.0310    8.8470 C.ar  377  PHE377     -0.0003
    166  CE2       31.9840  -10.0110    8.6450 C.ar  377  PHE377     -0.0003
    167  CZ        31.0850  -11.0310    8.3010 C.ar  377  PHE377     -0.0000
    168  N         27.4200   -7.3200    8.6890 N.am  378  VAL378     -0.1977
    169  CA        26.0540   -7.6230    8.2830 C.3   378  VAL378      0.1596
    170  C         25.8110   -9.0910    7.9400 C.2   378  VAL378      0.2287
    171  O         26.6090   -9.7310    7.2500 O.2   378  VAL378     -0.2864
    172  CB        25.6310   -6.6990    7.0860 C.3   378  VAL378      0.0276
    173  CG1       24.2450   -7.0790    6.5590 C.3   378  VAL378      0.0022
    174  CG2       25.6290   -5.2410    7.5420 C.3   378  VAL378      0.0022
@<TRIPOS>BOND
     1    79    78    2
     2    78    77    1
     3    76    77    1
     4    86    87    2
     5    86    85    1
     6    84    85    1
     7    77    80    1
     8    89    91    1
     9    89    88    1
    10    85    88    1
    11    88    90    1
    12    80    81    1
    13    34    32   am
    14    21    22    1
    15    33    32    2
    16    81    83    1
    17    81    82    1
    18    32    31    1
    19   116   114    1
    20    22    25    1
    21    22    23    1
    22    27    28    1
    23    71    70    2
    24    70    69    1
    25    26    25    1
    26    23    24    2
    27    31    28    1
    28   113   112    2
    29    28    29    1
    30   114   115    1
    31   114   111    1
    32   112   111    1
    33   120   119    2
    34    69    72    1
    35    69    68    1
    36   119   118    1
    37   126   124   ar
    38   126   127   ar
    39   124   122   ar
    40   111   110    1
    41    72    73    1
    42    29    35   am
    43    29    30    2
    44    35    36    1
    45   128   127    1
    46   127   125   ar
    47   122   121    1
    48   122   123   ar
    49   121   118    1
    50   118   117    1
    51   110   103   am
    52    73    74    1
    53    73    75    1
    54    12    11    1
    55    10    11   ar
    56    10     8   ar
    57   125   123   ar
    58    41    42    1
    59   104   103    2
    60   103   102    1
    61    36    37    1
    62    36    39    1
    63    37    38    2
    64    11     9   ar
    65    40    39    1
    66    95    94    2
    67    94    93    1
    68   101   102    1
    69     8     6   ar
    70    46    45    1
    71   102   105    1
    72    42    45    1
    73    42    43    1
    74   173   172    1
    75     9     7   ar
    76    96    93    1
    77    96    97    1
    78    93    92    1
    79   172   174    1
    80   172   169    1
    81     6     7   ar
    82     6     5    1
    83   105   106    1
    84   171   170    2
    85    43    47   am
    86    43    44    2
    87    47    48    1
    88   106   107    1
    89   170   169    1
    90     5     2    1
    91   138   139   ar
    92   138   136   ar
    93     4     3    2
    94   169   168    1
    95    97    98    1
    96   167   166   ar
    97   167   165   ar
    98    60    61    2
    99    60    59    1
   100   139   137   ar
   101    49    48    1
   102    49    50    2
   103     2     3    1
   104     2     1    1
   105   166   164   ar
   106    48    51    1
   107    51    52    1
   108   168   159   am
   109    59    58    1
   110    59    62    1
   111   165   163   ar
   112     3    13   am
   113    52    53    1
   114   107   108    1
   115    99    98    1
   116    99   100    1
   117   136   134   ar
   118    64    66   ar
   119    64    63   ar
   120   108   109    1
   121   152   151    2
   122   164   162   ar
   123    66    67   ar
   124   137   135   ar
   125   163   162   ar
   126    62    63    1
   127   159   158    1
   128   159   160    2
   129    63    65   ar
   130   162   161    1
   131    13    14    1
   132   158   161    1
   133   158   157    1
   134    53    54    1
   135    67    65   ar
   136   134   135   ar
   137   134   133    1
   138   151   157   am
   139   151   150    1
   140    14    15    1
   141    14    17    1
   142    20    18   ar
   143    56    55    1
   144   143   142    2
   145    16    15    2
   146   153   150    1
   147   153   154    1
   148    54    55    2
   149    55    57    1
   150    18    17    1
   151    18    19   ar
   152   133   130    1
   153   150   149    1
   154   155   154    2
   155   154   156   am
   156   142   149   am
   157   142   141    1
   158   130   131    1
   159   130   129    1
   160   140   141    1
   161   140   131   am
   162   144   141    1
   163   144   145    1
   164   131   132    2
   165   145   146    1
   166   146   147   ar
   167   146   148   ar
