@<TRIPOS>MOLECULE
tmp/3epsA01.pdb
 226 220 0 0 0
SMALL
GASTEIGER

@<TRIPOS>ATOM
      1  N         29.3330  -21.9900   17.9920 N.3   314  ALA314     -0.1231
      2  CA        30.5380  -22.8090   17.9910 C.3   314  ALA314      0.1679
      3  C         30.5330  -23.9550   19.0060 C.2   314  ALA314      0.2434
      4  O         30.1780  -23.7810   20.1700 O.2   314  ALA314     -0.2733
      5  CB        31.7370  -21.9370   18.2210 C.3   314  ALA314      0.0304
      6  N         30.9550  -25.1500   18.5670 N.am  315  PRO315     -0.2718
      7  CA        31.0320  -26.3770   19.3720 C.3   315  PRO315      0.1535
      8  C         31.8870  -26.1850   20.6090 C.2   315  PRO315      0.2599
      9  O         33.0000  -25.6740   20.5080 O.2   315  PRO315     -0.2715
     10  CB        31.6830  -27.3800   18.4220 C.3   315  PRO315      0.0310
     11  CG        31.2820  -26.8920   17.0830 C.3   315  PRO315      0.0237
     12  CD        31.4210  -25.3980   17.1930 C.3   315  PRO315      0.0939
     13  N         31.3800  -26.6160   21.7640 N.am  316  GLY316     -0.1941
     14  CA        32.1360  -26.4910   23.0000 C.3   316  GLY316      0.2014
     15  C         31.3430  -25.9840   24.1900 C.2   316  GLY316      0.2639
     16  O         30.1090  -26.0380   24.2260 O.2   316  GLY316     -0.2714
     17  N         32.0730  -25.4780   25.1750 N.am  317  ILE317     -0.1963
     18  CA        31.4750  -24.9530   26.3840 C.3   317  ILE317      0.1727
     19  C         31.2420  -23.4480   26.2920 C.2   317  ILE317      0.2616
     20  O         32.1910  -22.6750   26.2830 O.2   317  ILE317     -0.2715
     21  CB        32.3630  -25.2990   27.6120 C.3   317  ILE317      0.0290
     22  CG1       32.3130  -26.8180   27.8460 C.3   317  ILE317      0.0022
     23  CG2       31.8920  -24.5290   28.8620 C.3   317  ILE317      0.0023
     24  CD1       33.3580  -27.3520   28.8100 C.3   317  ILE317      0.0001
     25  N         29.9640  -23.0580   26.2180 N.am  318  ARG318     -0.1963
     26  CA        29.5340  -21.6520   26.1360 C.3   318  ARG318      0.1729
     27  C         30.2740  -20.8120   27.1700 C.2   318  ARG318      0.2617
     28  O         30.4760  -21.2470   28.3020 O.2   318  ARG318     -0.2715
     29  CB        28.0290  -21.5480   26.3940 C.3   318  ARG318      0.0348
     30  CG        27.3400  -20.4190   25.6500 C.3   318  ARG318      0.0492
     31  CD        25.9630  -20.1270   26.2220 C.3   318  ARG318      0.2205
     32  NE        25.1410  -21.3270   26.3270 N.pl3 318  ARG318     -0.0865
     33  CZ        24.6660  -22.0130   25.2910 C.cat 318  ARG318      0.5346
     34  NH1       23.9290  -23.0950   25.5000 N.pl3 318  ARG318      0.1354
     35  NH2       24.9210  -21.6190   24.0510 N.pl3 318  ARG318      0.1354
     36  N         30.6590  -19.6000   26.7930 N.am  319  GLY319     -0.1940
     37  CA        31.3980  -18.7650   27.7180 C.3   319  GLY319      0.2014
     38  C         30.6310  -17.7480   28.5380 C.2   319  GLY319      0.2639
     39  O         29.5000  -17.3970   28.2200 O.2   319  GLY319     -0.2714
     40  N         31.2780  -17.2640   29.5940 N.am  320  MET320     -0.1963
     41  CA        30.7140  -16.2670   30.4950 C.3   320  MET320      0.1736
     42  C         30.6280  -14.8570   29.8890 C.2   320  MET320      0.2616
     43  O         29.7980  -14.0560   30.3140 O.2   320  MET320     -0.2715
     44  CB        31.5380  -16.1910   31.7990 C.3   320  MET320      0.0427
     45  CG        31.5370  -17.4520   32.6850 C.3   320  MET320      0.0599
     46  SD        32.2700  -17.1900   34.3370 S.3   320  MET320     -0.1393
     47  CE        34.0940  -17.1370   33.9590 C.3   320  MET320      0.0692
     48  N         31.4750  -14.5390   28.9090 N.am  321  VAL321     -0.1963
     49  CA        31.4340  -13.1880   28.3340 C.3   321  VAL321      0.1727
     50  C         31.2910  -13.0550   26.8130 C.2   321  VAL321      0.2616
     51  O         30.7080  -12.0920   26.3250 O.2   321  VAL321     -0.2715
     52  CB        32.6800  -12.3400   28.7890 C.3   321  VAL321      0.0290
     53  CG1       33.3660  -13.0110   29.9590 C.3   321  VAL321      0.0023
     54  CG2       33.6430  -12.1190   27.6350 C.3   321  VAL321      0.0023
     55  N         31.8270  -14.0020   26.0620 N.am  322  MET322     -0.1977
     56  CA        31.7280  -13.9080   24.6150 C.3   322  MET322      0.1605
     57  C         30.6480  -14.8380   24.0610 C.2   322  MET322      0.2287
     58  O         30.2870  -15.8570   24.6610 O.2   322  MET322     -0.2864
     59  CB        33.0810  -14.2420   23.9600 C.3   322  MET322      0.0413
     60  CG        34.2670  -13.4080   24.4200 C.3   322  MET322      0.0598
     61  SD        34.2160  -11.7310   23.8110 S.3   322  MET322     -0.1393
     62  CE        34.7080  -12.0050   22.2120 C.3   322  MET322      0.0692
     63  N         30.1170  -16.7740   20.6360 N.3   324  VAL324     -0.1245
     64  CA        30.8340  -17.1050   19.4310 C.3   324  VAL324      0.1561
     65  C         30.1150  -18.1050   18.5470 C.2   324  VAL324      0.2260
     66  O         29.6400  -19.1450   19.0030 O.2   324  VAL324     -0.2867
     67  CB        32.2830  -17.5840   19.7810 C.3   324  VAL324      0.0252
     68  CG1       32.4710  -17.5810   21.2740 C.3   324  VAL324      0.0019
     69  CG2       32.5710  -18.9500   19.1950 C.3   324  VAL324      0.0019
     70  N         35.7270  -18.3640   13.3690 N.3   333  VAL333     -0.1245
     71  CA        34.6040  -18.1880   14.2800 C.3   333  VAL333      0.1561
     72  C         34.4220  -16.6940   14.5000 C.2   333  VAL333      0.2260
     73  O         35.3580  -15.9050   14.3540 O.2   333  VAL333     -0.2867
     74  CB        34.8100  -18.8620   15.6820 C.3   333  VAL333      0.0252
     75  CG1       35.0780  -20.3560   15.5370 C.3   333  VAL333      0.0019
     76  CG2       35.9140  -18.1780   16.4370 C.3   333  VAL333      0.0019
     77  N         33.1780  -13.8070   17.2170 N.3   335  LYS335     -0.1245
     78  CA        33.0460  -13.6590   18.6650 C.3   335  LYS335      0.1561
     79  C         32.5220  -12.2810   19.0100 C.2   335  LYS335      0.2260
     80  O         33.0910  -11.2810   18.5890 O.2   335  LYS335     -0.2867
     81  CB        34.4130  -13.8640   19.3470 C.3   335  LYS335      0.0271
     82  CG        35.1890  -15.0340   18.7700 C.3   335  LYS335      0.0035
     83  CD        36.5230  -15.2660   19.4490 C.3   335  LYS335      0.0206
     84  CE        36.3710  -15.8790   20.8340 C.3   335  LYS335      0.1093
     85  NZ        37.7100  -16.2420   21.3850 N.3   335  LYS335     -0.1314
     86  N         31.3330  -12.7430   36.9700 N.3   345  LYS345     -0.1245
     87  CA        32.2350  -11.7950   36.3150 C.3   345  LYS345      0.1561
     88  C         32.0330  -10.3450   36.7380 C.2   345  LYS345      0.2260
     89  O         30.9010   -9.8940   36.9150 O.2   345  LYS345     -0.2867
     90  CB        32.0820  -11.8970   34.7960 C.3   345  LYS345      0.0271
     91  CG        33.4000  -12.0340   34.0640 C.3   345  LYS345      0.0035
     92  CD        34.0370  -13.3890   34.3250 C.3   345  LYS345      0.0206
     93  CE        35.4310  -13.4560   33.7260 C.3   345  LYS345      0.1093
     94  NZ        36.0520  -14.7900   33.9710 N.3   345  LYS345     -0.1314
     95  N         41.9210   -7.7250   23.8930 N.3   356  TYR356     -0.1241
     96  CA        42.0380   -8.1630   22.5150 C.3   356  TYR356      0.1605
     97  C         43.0360   -7.2710   21.7900 C.2   356  TYR356      0.2264
     98  O         43.8230   -7.7420   20.9660 O.2   356  TYR356     -0.2867
     99  CB        40.6710   -8.1150   21.8250 C.3   356  TYR356      0.0534
    100  CG        39.9080   -9.4120   21.9330 C.ar  356  TYR356     -0.0201
    101  CD1       39.1910   -9.7330   23.0850 C.ar  356  TYR356     -0.0009
    102  CD2       39.9590  -10.3560   20.9000 C.ar  356  TYR356     -0.0009
    103  CE1       38.5430  -10.9650   23.2080 C.ar  356  TYR356      0.0417
    104  CE2       39.3180  -11.5940   21.0180 C.ar  356  TYR356      0.0417
    105  CZ        38.6160  -11.8900   22.1750 C.ar  356  TYR356      0.1957
    106  OH        38.0210  -13.1200   22.3010 O.3   356  TYR356     -0.2866
    107  N         38.3500  -14.9910   14.0440 N.3   415  GLU415     -0.1231
    108  CA        39.6140  -15.7000   14.2040 C.3   415  GLU415      0.1699
    109  C         39.5790  -17.1600   13.7750 C.2   415  GLU415      0.2592
    110  O         38.5180  -17.7830   13.6660 O.2   415  GLU415     -0.2718
    111  CB        40.1190  -15.6170   15.6540 C.3   415  GLU415      0.0402
    112  CG        39.2990  -16.3550   16.7010 C.3   415  GLU415      0.1161
    113  CD        40.0540  -16.4910   18.0300 C.2   415  GLU415      0.3649
    114  OE1       39.4350  -16.8290   19.0630 O.co2 415  GLU415     -0.2457
    115  OE2       41.2820  -16.2610   18.0350 O.co2 415  GLU415     -0.2457
    116  N         40.7730  -17.6910   13.5330 N.am  416  ARG416     -0.1966
    117  CA        40.9550  -19.0690   13.1200 C.3   416  ARG416      0.1729
    118  C         40.1440  -19.9820   14.0300 C.2   416  ARG416      0.2616
    119  O         40.1500  -19.8220   15.2510 O.2   416  ARG416     -0.2715
    120  CB        42.4400  -19.4260   13.2130 C.3   416  ARG416      0.0348
    121  CG        42.8470  -20.7160   12.5300 C.3   416  ARG416      0.0492
    122  CD        42.4790  -20.7250   11.0440 C.3   416  ARG416      0.2205
    123  NE        43.2880  -21.6900   10.3040 N.pl3 416  ARG416     -0.0865
    124  CZ        44.4350  -21.4040    9.6940 C.cat 416  ARG416      0.5346
    125  NH1       44.9200  -20.1650    9.7170 N.pl3 416  ARG416      0.1354
    126  NH2       45.1120  -22.3670    9.0750 N.pl3 416  ARG416      0.1354
    127  N         39.4320  -20.9250   13.4320 N.am  417  ARG417     -0.1963
    128  CA        38.6420  -21.8740   14.1920 C.3   417  ARG417      0.1729
    129  C         39.5210  -23.0690   14.5160 C.2   417  ARG417      0.2616
    130  O         40.0920  -23.6860   13.6210 O.2   417  ARG417     -0.2715
    131  CB        37.4350  -22.3300   13.3770 C.3   417  ARG417      0.0348
    132  CG        36.7290  -23.5310   13.9340 C.3   417  ARG417      0.0492
    133  CD        35.4200  -23.7860   13.2130 C.3   417  ARG417      0.2205
    134  NE        34.6900  -24.9180   13.7910 N.pl3 417  ARG417     -0.0865
    135  CZ        33.6980  -25.5690   13.1820 C.cat 417  ARG417      0.5346
    136  NH1       33.0940  -26.5870   13.7920 N.pl3 417  ARG417      0.1354
    137  NH2       33.3190  -25.2090   11.9580 N.pl3 417  ARG417      0.1354
    138  N         39.6420  -23.3840   15.7990 N.am  418  MET418     -0.1977
    139  CA        40.4440  -24.5160   16.2360 C.3   418  MET418      0.1605
    140  C         39.4740  -25.4160   16.9690 C.2   418  MET418      0.2287
    141  O         38.2970  -25.0990   17.0630 O.2   418  MET418     -0.2864
    142  CB        41.5300  -24.0470   17.2050 C.3   418  MET418      0.0413
    143  CG        42.4220  -22.9520   16.6700 C.3   418  MET418      0.0598
    144  SD        43.2820  -22.0510   17.9510 S.3   418  MET418     -0.1393
    145  CE        44.7840  -22.5050   17.6120 C.3   418  MET418      0.0692
    146  N         38.3660  -26.8250   20.5310 N.3   420  PRO420     -0.2116
    147  CA        38.5870  -26.5870   21.9570 C.3   420  PRO420      0.1372
    148  C         39.3800  -27.7300   22.5660 C.2   420  PRO420      0.2244
    149  O         38.9730  -28.8920   22.4940 O.2   420  PRO420     -0.2868
    150  CB        37.1680  -26.4670   22.4920 C.3   420  PRO420      0.0268
    151  CG        36.4790  -25.7490   21.3570 C.3   420  PRO420      0.0207
    152  CD        36.9730  -26.5210   20.1540 C.3   420  PRO420      0.0892
    153  N         39.6420  -28.8180   25.3560 N.3   422  ASN422     -0.1240
    154  CA        38.9280  -29.6550   26.3190 C.3   422  ASN422      0.1653
    155  C         38.2070  -30.7720   25.5820 C.2   422  ASN422      0.2266
    156  O         37.9200  -31.8260   26.1430 O.2   422  ASN422     -0.2867
    157  CB        37.9240  -28.8410   27.1370 C.3   422  ASN422      0.1155
    158  CG        36.8190  -28.2670   26.3020 C.2   422  ASN422      0.2627
    159  OD1       37.0740  -27.4720   25.4070 O.2   422  ASN422     -0.2716
    160  ND2       35.5770  -28.6550   26.5920 N.am  422  ASN422     -0.0877
    161  N         39.3540  -25.4080   28.2280 N.3   460  LYS460     -0.1231
    162  CA        38.3500  -24.7950   27.3720 C.3   460  LYS460      0.1693
    163  C         38.7730  -23.4690   26.7610 C.2   460  LYS460      0.2592
    164  O         38.1150  -22.9760   25.8540 O.2   460  LYS460     -0.2718
    165  CB        37.0550  -24.5940   28.1510 C.3   460  LYS460      0.0285
    166  CG        37.2140  -23.7550   29.4050 C.3   460  LYS460      0.0035
    167  CD        35.8720  -23.5210   30.0550 C.3   460  LYS460      0.0206
    168  CE        36.0210  -22.7630   31.3520 C.3   460  LYS460      0.1093
    169  NZ        34.7010  -22.4810   31.9540 N.3   460  LYS460     -0.1314
    170  N         39.8640  -22.8920   27.2490 N.am  461  ASN461     -0.1974
    171  CA        40.3430  -21.6100   26.7340 C.3   461  ASN461      0.1688
    172  C         41.4800  -21.7440   25.7470 C.2   461  ASN461      0.2292
    173  O         42.1080  -20.7480   25.3750 O.2   461  ASN461     -0.2864
    174  CB        40.8120  -20.7180   27.8760 C.3   461  ASN461      0.1181
    175  CG        39.6950  -20.3030   28.7700 C.2   461  ASN461      0.2629
    176  OD1       38.5680  -20.1690   28.3190 O.2   461  ASN461     -0.2716
    177  ND2       39.9970  -20.0700   30.0400 N.am  461  ASN461     -0.0877
    178  N         43.2470  -18.7080   23.4970 N.3   473  TYR473     -0.1227
    179  CA        42.3320  -17.7790   22.8560 C.3   473  TYR473      0.1736
    180  C         41.3700  -16.9810   23.7260 C.2   473  TYR473      0.2595
    181  O         40.6140  -16.1740   23.2000 O.2   473  TYR473     -0.2718
    182  CB        41.5350  -18.4920   21.7660 C.3   473  TYR473      0.0548
    183  CG        40.6890  -19.6610   22.2220 C.ar  473  TYR473     -0.0200
    184  CD1       40.8030  -20.9030   21.5890 C.ar  473  TYR473     -0.0009
    185  CD2       39.7370  -19.5270   23.2370 C.ar  473  TYR473     -0.0009
    186  CE1       39.9970  -21.9780   21.9460 C.ar  473  TYR473      0.0417
    187  CE2       38.9200  -20.6040   23.6090 C.ar  473  TYR473      0.0417
    188  CZ        39.0560  -21.8320   22.9580 C.ar  473  TYR473      0.1957
    189  OH        38.2840  -22.9330   23.3170 O.3   473  TYR473     -0.2866
    190  N         41.3930  -17.1870   25.0370 N.am  474  ASP474     -0.1960
    191  CA        40.4890  -16.4760   25.9420 C.3   474  ASP474      0.1840
    192  C         41.2330  -15.2580   26.4910 C.2   474  ASP474      0.2622
    193  O         41.7140  -15.2510   27.6260 O.2   474  ASP474     -0.2715
    194  CB        40.0820  -17.4220   27.0570 C.3   474  ASP474      0.1450
    195  CG        38.8670  -16.9420   27.8150 C.2   474  ASP474      0.3671
    196  OD1       37.9400  -17.7480   28.0370 O.co2 474  ASP474     -0.2456
    197  OD2       38.8430  -15.7640   28.2010 O.co2 474  ASP474     -0.2456
    198  N         41.2940  -14.2180   25.6690 N.am  475  TYR475     -0.1960
    199  CA        42.0510  -13.0180   25.9780 C.3   475  TYR475      0.1771
    200  C         41.6830  -12.0760   27.1180 C.2   475  TYR475      0.2620
    201  O         42.5620  -11.4560   27.7140 O.2   475  TYR475     -0.2715
    202  CB        42.2060  -12.2080   24.6880 C.3   475  TYR475      0.0574
    203  CG        42.8320  -13.0120   23.5770 C.ar  475  TYR475     -0.0198
    204  CD1       43.5520  -14.1740   23.8640 C.ar  475  TYR475     -0.0009
    205  CD2       42.7270  -12.6060   22.2420 C.ar  475  TYR475     -0.0009
    206  CE1       44.1510  -14.9130   22.8610 C.ar  475  TYR475      0.0417
    207  CE2       43.3300  -13.3440   21.2160 C.ar  475  TYR475      0.0417
    208  CZ        44.0380  -14.5020   21.5320 C.ar  475  TYR475      0.1957
    209  OH        44.6110  -15.2760   20.5390 O.3   475  TYR475     -0.2866
    210  N         40.4100  -11.9370   27.4410 N.am  476  ASP476     -0.1957
    211  CA        40.1010  -11.0090   28.5070 C.3   476  ASP476      0.1840
    212  C         40.4150  -11.5910   29.8950 C.2   476  ASP476      0.2621
    213  O         40.2200  -10.9320   30.9280 O.2   476  ASP476     -0.2715
    214  CB        38.6480  -10.5950   28.4080 C.3   476  ASP476      0.1450
    215  CG        37.7390  -11.7070   28.7610 C.2   476  ASP476      0.3671
    216  OD1       36.8970  -12.0770   27.9020 O.co2 476  ASP476     -0.2456
    217  OD2       37.8980  -12.2120   29.9070 O.co2 476  ASP476     -0.2456
    218  N         40.8960  -12.8280   29.9170 N.am  477  GLU477     -0.1977
    219  CA        41.2680  -13.4700   31.1760 C.3   477  GLU477      0.1602
    220  C         42.6840  -13.0140   31.5570 C.2   477  GLU477      0.2287
    221  O         43.0430  -12.9050   32.7290 O.2   477  GLU477     -0.2864
    222  CB        41.2220  -15.0060   31.0300 C.3   477  GLU477      0.0415
    223  CG        39.8060  -15.5650   30.8780 C.3   477  GLU477      0.1163
    224  CD        38.8350  -15.0480   31.9510 C.2   477  GLU477      0.3649
    225  OE1       37.6010  -15.0650   31.7160 O.co2 477  GLU477     -0.2457
    226  OE2       39.3060  -14.6300   33.0380 O.co2 477  GLU477     -0.2457
@<TRIPOS>BOND
     1   126   124    1
     2   124   125    1
     3   124   123    2
     4   123   122    1
     5   122   121    1
     6   137   135    1
     7   121   120    1
     8   117   120    1
     9   117   116    1
    10   117   118    1
    11   135   134    2
    12   135   136    1
    13   133   134    1
    14   133   132    1
    15    70    71    1
    16   131   132    1
    17   131   128    1
    18   127   118   am
    19   127   128    1
    20   116   109   am
    21   130   129    2
    22   110   109    2
    23   109   108    1
    24   118   119    2
    25   107   108    1
    26   128   129    1
    27   108   111    1
    28    71    72    1
    29    71    74    1
    30    73    72    2
    31   129   138   am
    32    75    74    1
    33   111   112    1
    34    74    76    1
    35   138   139    1
    36   139   140    1
    37   139   142    1
    38   143   142    1
    39   143   144    1
    40   112   113    1
    41   140   141    2
    42    11    12    1
    43    11    10    1
    44    12     6    1
    45    77    78    1
    46   145   144    1
    47     2     1    1
    48     2     5    1
    49     2     3    1
    50   113   115   ar
    51   113   114   ar
    52    10     7    1
    53    65    66    2
    54    65    64    1
    55     6     3   am
    56     6     7    1
    57    80    79    2
    58    78    79    1
    59    78    81    1
    60    82    81    1
    61    82    83    1
    62     3     4    2
    63    69    67    1
    64     7     8    1
    65    64    67    1
    66    64    63    1
    67    83    84    1
    68    67    68    1
    69   152   146    1
    70   152   151    1
    71     9     8    2
    72   146   147    1
    73   209   208    1
    74     8    13   am
    75    84    85    1
    76   102   104   ar
    77   102   100   ar
    78    98    97    2
    79   104   105   ar
    80   207   208   ar
    81   207   205   ar
    82   151   150    1
    83   208   206   ar
    84   184   186   ar
    85   184   183   ar
    86    13    14    1
    87   182   183    1
    88   182   179    1
    89    97    96    1
    90    99   100    1
    91    99    96    1
    92   100   101   ar
    93   186   188   ar
    94   147   150    1
    95   147   148    1
    96   105   106    1
    97   105   103   ar
    98    62    61    1
    99   183   185   ar
   100   205   203   ar
   101   149   148    2
   102    96    95    1
   103   179   178    1
   104   179   180    1
   105   206   204   ar
   106   188   189    1
   107   188   187   ar
   108    14    15    1
   109   101   103   ar
   110   181   180    2
   111   185   187   ar
   112   203   204   ar
   113   203   202    1
   114   180   190   am
   115    61    60    1
   116    59    60    1
   117    59    56    1
   118    35    33    1
   119    57    56    1
   120    57    58    2
   121    15    16    2
   122    15    17   am
   123    56    55    1
   124   202   199    1
   125   190   191    1
   126    17    18    1
   127    33    34    1
   128    33    32    2
   129   153   154    1
   130   173   172    2
   131   159   158    2
   132   155   156    2
   133   155   154    1
   134    30    31    1
   135    30    29    1
   136   198   199    1
   137   198   192   am
   138   172   171    1
   139   164   163    2
   140   191   192    1
   141   191   194    1
   142   199   200    1
   143    55    50   am
   144    26    25    1
   145    26    29    1
   146    26    27    1
   147    25    19   am
   148    31    32    1
   149    20    19    2
   150    19    18    1
   151   158   160   am
   152   158   157    1
   153   154   157    1
   154    51    50    2
   155    18    21    1
   156   192   193    2
   157   171   170    1
   158   171   174    1
   159   163   170   am
   160   163   162    1
   161    36    27   am
   162    36    37    1
   163    50    49    1
   164   194   195    1
   165   200   210   am
   166   200   201    2
   167    27    28    2
   168   162   165    1
   169   162   161    1
   170   210   211    1
   171    21    22    1
   172    21    23    1
   173    54    52    1
   174    37    38    1
   175   195   196   ar
   176   195   197   ar
   177    22    24    1
   178   174   175    1
   179   216   215   ar
   180   165   166    1
   181    39    38    2
   182   176   175    2
   183    49    52    1
   184    49    48    1
   185   214   211    1
   186   214   215    1
   187   211   212    1
   188    38    40   am
   189   215   217   ar
   190   175   177   am
   191    52    53    1
   192    48    42   am
   193   166   167    1
   194    40    41    1
   195    42    43    2
   196    42    41    1
   197   212   218   am
   198   212   213    2
   199   218   219    1
   200   167   168    1
   201    41    44    1
   202   223   222    1
   203   223   224    1
   204   222   219    1
   205   219   220    1
   206   168   169    1
   207   220   221    2
   208   225   224   ar
   209    44    45    1
   210   224   226   ar
   211    45    46    1
   212    93    94    1
   213    93    92    1
   214    47    46    1
   215    91    92    1
   216    91    90    1
   217    90    87    1
   218    87    88    1
   219    87    86    1
   220    88    89    2
