@<TRIPOS>MOLECULE
tmp/3epwB00.pdb
 178 171 0 0 0
SMALL
GASTEIGER

@<TRIPOS>ATOM
      1  N          7.8810    2.3810   68.2120 N.3     9  ASP9       -0.1239
      2  CA         7.2240    2.6690   66.9430 C.3     9  ASP9        0.1674
      3  C          8.1450    2.5260   65.7450 C.2     9  ASP9        0.2266
      4  O          7.9420    3.1700   64.7250 O.2     9  ASP9       -0.2867
      5  CB         6.5180    4.0200   66.9520 C.3     9  ASP9        0.1410
      6  CG         7.4770    5.1780   66.9940 C.2     9  ASP9        0.3668
      7  OD1        8.6200    4.9880   67.4600 O.co2   9  ASP9       -0.2456
      8  OD2        7.0770    6.2940   66.5800 O.co2   9  ASP9       -0.2456
      9  N         11.1630    3.0620   64.3840 N.3    11  ASN11      -0.1240
     10  CA        12.2240    3.7740   63.6930 C.3    11  ASN11       0.1653
     11  C         13.5780    3.1820   64.0450 C.2    11  ASN11       0.2266
     12  O         13.6610    2.1940   64.7730 O.2    11  ASN11      -0.2867
     13  CB        12.1570    5.2830   63.9140 C.3    11  ASN11       0.1155
     14  CG        12.4660    6.0360   62.6520 C.2    11  ASN11       0.2627
     15  OD1       13.5830    6.4980   62.4350 O.2    11  ASN11      -0.2716
     16  ND2       11.4730    6.1190   61.7720 N.am   11  ASN11      -0.0877
     17  N         16.2590    4.1450   65.7820 N.3    13  ASP13      -0.1225
     18  CA        16.6690    4.1240   67.1740 C.3    13  ASP13       0.1805
     19  C         15.7690    3.2310   68.0080 C.2    13  ASP13       0.2597
     20  O         16.2400    2.6710   68.9800 O.2    13  ASP13      -0.2718
     21  CB        16.7670    5.5260   67.7710 C.3    13  ASP13       0.1424
     22  CG        15.4640    6.2510   67.7700 C.2    13  ASP13       0.3668
     23  OD1       14.5900    5.9030   66.9490 O.co2  13  ASP13      -0.2456
     24  OD2       15.3210    7.1900   68.5950 O.co2  13  ASP13      -0.2456
     25  N         14.5010    3.0640   67.6430 N.am   14  ASP14      -0.1974
     26  CA        13.6620    2.0970   68.3530 C.3    14  ASP14       0.1709
     27  C         14.2940    0.7190   68.3170 C.2    14  ASP14       0.2293
     28  O         14.2970    0.0020   69.3010 O.2    14  ASP14      -0.2864
     29  CB        12.2660    1.9990   67.7390 C.3    14  ASP14       0.1436
     30  CG        11.4920    3.2780   67.8530 C.2    14  ASP14       0.3671
     31  OD1       10.7020    3.4260   68.8100 O.co2  14  ASP14      -0.2456
     32  OD2       11.6780    4.1450   66.9960 O.co2  14  ASP14      -0.2456
     33  N          5.9670    6.0980   63.8440 N.3    39  ASP39      -0.1239
     34  CA         7.1240    6.3790   63.0050 C.3    39  ASP39       0.1674
     35  C          7.5750    5.1700   62.1860 C.2    39  ASP39       0.2266
     36  O          8.7530    5.0210   61.8710 O.2    39  ASP39      -0.2867
     37  CB         8.2500    6.8980   63.8890 C.3    39  ASP39       0.1410
     38  CG         9.1880    7.8530   63.1750 C.2    39  ASP39       0.3668
     39  OD1        8.9200    8.2880   62.0300 O.co2  39  ASP39      -0.2456
     40  OD2       10.2370    8.1770   63.8040 O.co2  39  ASP39      -0.2456
     41  N          3.0640   10.7810   61.4300 N.3    78  PHE78      -0.1241
     42  CA         4.4350   11.0850   61.0770 C.3    78  PHE78       0.1605
     43  C          4.6000   11.2820   59.5770 C.2    78  PHE78       0.2264
     44  O          3.7860   10.7880   58.7910 O.2    78  PHE78      -0.2867
     45  CB         5.3410    9.9350   61.5100 C.3    78  PHE78       0.0534
     46  CG         5.8260   10.0480   62.9180 C.ar   78  PHE78      -0.0203
     47  CD1        6.9130   10.8430   63.2230 C.ar   78  PHE78      -0.0042
     48  CD2        5.2050    9.3670   63.9320 C.ar   78  PHE78      -0.0042
     49  CE1        7.3760   10.9500   64.5210 C.ar   78  PHE78      -0.0003
     50  CE2        5.6740    9.4600   65.2430 C.ar   78  PHE78      -0.0003
     51  CZ         6.7560   10.2560   65.5270 C.ar   78  PHE78      -0.0000
     52  N          9.8490    9.3110   56.9790 N.3    82  TRP82      -0.1241
     53  CA        10.4210    8.7640   58.2060 C.3    82  TRP82       0.1605
     54  C          9.8580    7.3940   58.5100 C.2    82  TRP82       0.2264
     55  O         10.5600    6.5460   59.0500 O.2    82  TRP82      -0.2867
     56  CB        10.1440    9.6700   59.3910 C.3    82  TRP82       0.0550
     57  CG        10.7290   11.0340   59.2810 C.ar   82  TRP82       0.0003
     58  CD1       11.5750   11.5140   58.3200 C.ar   82  TRP82       0.0946
     59  CD2       10.5400   12.0910   60.2160 C.ar   82  TRP82       0.0152
     60  NE1       11.8910   12.8300   58.5920 N.ar   82  TRP82      -0.2442
     61  CE2       11.2690   13.2040   59.7550 C.ar   82  TRP82       0.0810
     62  CE3        9.8100   12.2040   61.4000 C.ar   82  TRP82       0.0012
     63  CZ2       11.2870   14.4270   60.4380 C.ar   82  TRP82       0.0191
     64  CZ3        9.8330   13.4120   62.0850 C.ar   82  TRP82       0.0001
     65  CH2       10.5600   14.5110   61.5980 C.ar   82  TRP82       0.0015
     66  N         11.5440    3.7950   57.2030 N.3    85  LEU85      -0.1245
     67  CA        12.8040    3.1890   57.6170 C.3    85  LEU85       0.1561
     68  C         12.6760    1.7130   58.0120 C.2    85  LEU85       0.2260
     69  O         13.6010    0.9320   57.7520 O.2    85  LEU85      -0.2867
     70  CB        13.4660    4.0190   58.7080 C.3    85  LEU85       0.0270
     71  CG        14.0710    5.3050   58.1310 C.3    85  LEU85       0.0019
     72  CD1       14.3470    6.3460   59.2030 C.3    85  LEU85       0.0001
     73  CD2       15.3360    5.0020   57.3100 C.3    85  LEU85       0.0001
     74  N          9.1920    4.1500   73.5320 N.3   136  THR136     -0.1218
     75  CA        10.0400    4.8560   72.6010 C.3   136  THR136      0.1862
     76  C          9.2530    5.3760   71.3960 C.2   136  THR136      0.2287
     77  O          9.8330    5.9750   70.4940 O.2   136  THR136     -0.2866
     78  CB        11.2350    4.0000   72.1680 C.3   136  THR136      0.1770
     79  OG1       10.7590    2.8310   71.5000 O.3   136  THR136     -0.2211
     80  CG2       12.0660    3.5860   73.3660 C.3   136  THR136      0.0375
     81  N         10.6920    8.0430   75.9960 N.3   163  MET163     -0.1245
     82  CA        11.3180    9.0040   75.1110 C.3   163  MET163      0.1570
     83  C         10.2210    9.9000   74.5750 C.2   163  MET163      0.2261
     84  O          9.3200    9.4560   73.8700 O.2   163  MET163     -0.2867
     85  CB        12.0680    8.3220   73.9740 C.3   163  MET163      0.0387
     86  CG        12.9790    9.2630   73.2010 C.3   163  MET163      0.0595
     87  SD        12.1010   10.4030   72.1100 S.3   163  MET163     -0.1393
     88  CE        12.7390   11.9870   72.6590 C.3   163  MET163      0.0692
     89  N         10.8250   19.3410   68.1130 N.3   172  ASN172     -0.1240
     90  CA        11.3190   18.9450   66.8130 C.3   172  ASN172      0.1653
     91  C         10.2080   18.8010   65.7750 C.2   172  ASN172      0.2266
     92  O         10.4720   18.3140   64.6700 O.2   172  ASN172     -0.2867
     93  CB        12.2330   17.7010   66.9060 C.3   172  ASN172      0.1155
     94  CG        11.5110   16.4520   67.4030 C.2   172  ASN172      0.2627
     95  OD1       10.2810   16.4070   67.4760 O.2   172  ASN172     -0.2716
     96  ND2       12.2870   15.4180   67.7270 N.am  172  ASN172     -0.0877
     97  N          7.5810   17.9740   70.6240 N.3   183  GLU183     -0.1231
     98  CA         8.3630   16.8490   70.1510 C.3   183  GLU183      0.1699
     99  C          7.4150   15.8080   69.5440 C.2   183  GLU183      0.2592
    100  O          6.2640   15.6620   69.9640 O.2   183  GLU183     -0.2718
    101  CB         9.2030   16.2960   71.3060 C.3   183  GLU183      0.0402
    102  CG        10.0470   15.0550   70.9710 C.3   183  GLU183      0.1161
    103  CD         9.2200   13.7720   70.9920 C.2   183  GLU183      0.3649
    104  OE1        8.2180   13.6980   71.7410 O.co2 183  GLU183     -0.2457
    105  OE2        9.5510   12.8460   70.2160 O.co2 183  GLU183     -0.2457
    106  N          7.9120   15.0630   68.5660 N.am  184  TRP184     -0.1962
    107  CA         7.0650   14.2270   67.7300 C.3   184  TRP184      0.1771
    108  C          6.2840   13.1110   68.4070 C.2   184  TRP184      0.2619
    109  O          5.1250   12.8900   68.0700 O.2   184  TRP184     -0.2715
    110  CB         7.8870   13.6610   66.5720 C.3   184  TRP184      0.0590
    111  CG         7.7220   14.4590   65.3210 C.ar  184  TRP184      0.0006
    112  CD1        8.6240   15.3230   64.7730 C.ar  184  TRP184      0.0946
    113  CD2        6.5780   14.4660   64.4630 C.ar  184  TRP184      0.0152
    114  NE1        8.0990   15.8880   63.6250 N.ar  184  TRP184     -0.2442
    115  CE2        6.8490   15.3720   63.4130 C.ar  184  TRP184      0.0810
    116  CE3        5.3480   13.8030   64.4860 C.ar  184  TRP184      0.0012
    117  CZ2        5.9410   15.6140   62.3890 C.ar  184  TRP184      0.0191
    118  CZ3        4.4520   14.0390   63.4700 C.ar  184  TRP184      0.0001
    119  CH2        4.7480   14.9480   62.4360 C.ar  184  TRP184      0.0015
    120  N          6.9080   12.3750   69.3210 N.am  185  ASN185     -0.1972
    121  CA         6.1850   11.2800   69.9770 C.3   185  ASN185      0.1688
    122  C          4.9660   11.7790   70.7260 C.2   185  ASN185      0.2292
    123  O          3.9320   11.1190   70.7250 O.2   185  ASN185     -0.2864
    124  CB         7.0860   10.5240   70.9290 C.3   185  ASN185      0.1181
    125  CG         8.1000    9.6670   70.2050 C.2   185  ASN185      0.2629
    126  OD1        8.0150    9.4570   68.9950 O.2   185  ASN185     -0.2716
    127  ND2        9.0740    9.1610   70.9520 N.am  185  ASN185     -0.0877
    128  N         21.0980   13.1510   58.2210 N.3   247  CYS247     -0.1235
    129  CA        19.9530   13.9870   58.5660 C.3   247  CYS247      0.1677
    130  C         20.3810   15.4020   58.8970 C.2   247  CYS247      0.2270
    131  O         19.6940   16.3630   58.5410 O.2   247  CYS247     -0.2867
    132  CB        19.1420   13.3920   59.7190 C.3   247  CYS247      0.0956
    133  SG        18.3870   11.8150   59.3300 S.3   247  CYS247     -0.0801
    134  N         18.9980   18.9870   57.6710 N.3   251  ARG251     -0.1245
    135  CA        18.4730   19.9110   58.6670 C.3   251  ARG251      0.1563
    136  C         19.6100   20.3470   59.5670 C.2   251  ARG251      0.2260
    137  O         19.9420   19.6700   60.5500 O.2   251  ARG251     -0.2867
    138  CB        17.3760   19.2460   59.5000 C.3   251  ARG251      0.0307
    139  CG        16.1690   18.7530   58.7010 C.3   251  ARG251      0.0489
    140  CD        15.0670   18.2540   59.6320 C.3   251  ARG251      0.2205
    141  NE        15.5960   17.3370   60.6450 N.pl3 251  ARG251     -0.0865
    142  CZ        15.3650   16.0270   60.6950 C.cat 251  ARG251      0.5346
    143  NH1       14.5830   15.4380   59.8070 N.pl3 251  ARG251      0.1354
    144  NH2       15.9120   15.3090   61.6580 N.pl3 251  ARG251      0.1354
    145  N         19.5960   13.4930   63.2890 N.3   256  TYR256     -0.1241
    146  CA        19.0700   12.3410   63.9850 C.3   256  TYR256      0.1605
    147  C         19.8530   12.1700   65.2670 C.2   256  TYR256      0.2264
    148  O         21.0530   12.4440   65.3160 O.2   256  TYR256     -0.2867
    149  CB        19.2240   11.1130   63.0970 C.3   256  TYR256      0.0534
    150  CG        18.2570    9.9710   63.3580 C.ar  256  TYR256     -0.0201
    151  CD1       17.1040    9.8190   62.5800 C.ar  256  TYR256     -0.0009
    152  CD2       18.5160    9.0380   64.3520 C.ar  256  TYR256     -0.0009
    153  CE1       16.2370    8.7600   62.7960 C.ar  256  TYR256      0.0417
    154  CE2       17.6640    7.9840   64.5770 C.ar  256  TYR256      0.0417
    155  CZ        16.5270    7.8410   63.7970 C.ar  256  TYR256      0.1957
    156  OH        15.6740    6.7880   64.0300 O.3   256  TYR256     -0.2866
    157  N         17.8500    9.0280   70.2570 N.3   259  TRP259     -0.1227
    158  CA        16.8020    9.3730   71.2160 C.3   259  TRP259      0.1737
    159  C         16.3670    8.1470   72.0270 C.2   259  TRP259      0.2595
    160  O         16.3850    8.1420   73.2630 O.2   259  TRP259     -0.2718
    161  CB        15.5630    9.8830   70.4940 C.3   259  TRP259      0.0564
    162  CG        15.6310   11.1300   69.6300 C.ar  259  TRP259      0.0003
    163  CD1       15.5650   12.4330   70.0470 C.ar  259  TRP259      0.0946
    164  CD2       15.6300   11.1730   68.1940 C.ar  259  TRP259      0.0152
    165  NE1       15.5490   13.2760   68.9590 N.ar  259  TRP259     -0.2442
    166  CE2       15.5710   12.5270   67.8150 C.ar  259  TRP259      0.0810
    167  CE3       15.6640   10.1950   67.1960 C.ar  259  TRP259      0.0012
    168  CZ2       15.5690   12.9290   66.4850 C.ar  259  TRP259      0.0191
    169  CZ3       15.6590   10.6000   65.8700 C.ar  259  TRP259      0.0001
    170  CH2       15.5970   11.9490   65.5290 C.ar  259  TRP259      0.0015
    171  N         15.9170    7.1110   71.3200 N.am  260  ASP260     -0.1974
    172  CA        15.3250    5.9530   71.9830 C.3   260  ASP260      0.1709
    173  C         16.3930    5.0570   72.5500 C.2   260  ASP260      0.2293
    174  O         16.1500    4.3440   73.5120 O.2   260  ASP260     -0.2864
    175  CB        14.4780    5.1470   71.0020 C.3   260  ASP260      0.1436
    176  CG        13.3330    5.9210   70.4290 C.2   260  ASP260      0.3671
    177  OD1       12.9980    7.0080   70.9420 O.co2 260  ASP260     -0.2456
    178  OD2       12.7500    5.4050   69.4590 O.co2 260  ASP260     -0.2456
@<TRIPOS>BOND
     1    52    53    1
     2    66    67    1
     3    73    71    1
     4    67    68    1
     5    67    70    1
     6   134   135    1
     7    69    68    2
     8    71    70    1
     9    71    72    1
    10    53    54    1
    11    53    56    1
    12   128   129    1
    13    58    60   ar
    14    58    57   ar
    15    54    55    2
    16   131   130    2
    17   129   130    1
    18   129   132    1
    19    60    61   ar
    20   135   138    1
    21   135   136    1
    22   139   138    1
    23   139   140    1
    24    44    43    2
    25    57    56    1
    26    57    59   ar
    27   133   132    1
    28   136   137    2
    29    43    42    1
    30   140   141    1
    31    61    59   ar
    32    61    63   ar
    33   143   142    1
    34    59    62   ar
    35    63    65   ar
    36   141   142    2
    37   142   144    1
    38    42    41    1
    39    42    45    1
    40    62    64   ar
    41    45    46    1
    42    65    64   ar
    43    16    14   am
    44    36    35    2
    45    39    38   ar
    46    35    34    1
    47   117   119   ar
    48   117   115   ar
    49    15    14    2
    50   119   118   ar
    51   151   153   ar
    52   151   150   ar
    53    14    13    1
    54   153   155   ar
    55    46    47   ar
    56    46    48   ar
    57    34    33    1
    58    34    37    1
    59   149   150    1
    60   149   146    1
    61    38    40   ar
    62    38    37    1
    63    47    49   ar
    64   145   146    1
    65   150   152   ar
    66   115   114   ar
    67   115   113   ar
    68   118   116   ar
    69   114   112   ar
    70    10    13    1
    71    10    11    1
    72    10     9    1
    73   155   156    1
    74   155   154   ar
    75    48    50   ar
    76   146   147    1
    77    11    12    2
    78   152   154   ar
    79   113   116   ar
    80   113   111   ar
    81    49    51   ar
    82    92    91    2
    83     4     3    2
    84   112   111   ar
    85    50    51   ar
    86   147   148    2
    87   111   110    1
    88   170   169   ar
    89   170   168   ar
    90     3     2    1
    91    91    90    1
    92    17    18    1
    93   169   167   ar
    94   168   166   ar
    95   110   107    1
    96     8     6   ar
    97    90    93    1
    98    90    89    1
    99    93    94    1
   100     2     5    1
   101     2     1    1
   102    23    22   ar
   103     5     6    1
   104     6     7   ar
   105    32    30   ar
   106    18    21    1
   107    18    19    1
   108   167   164   ar
   109    94    95    2
   110    94    96   am
   111    25    19   am
   112    25    26    1
   113   107   108    1
   114   107   106    1
   115    29    30    1
   116    29    26    1
   117    22    21    1
   118    22    24   ar
   119   166   164   ar
   120   166   165   ar
   121    30    31   ar
   122    19    20    2
   123   109   108    2
   124   164   162   ar
   125    27    26    1
   126    27    28    2
   127   108   120   am
   128   106    99   am
   129   165   163   ar
   130   126   125    2
   131   120   121    1
   132   178   176   ar
   133    99   100    2
   134    99    98    1
   135   162   163   ar
   136   162   161    1
   137   121   122    1
   138   121   124    1
   139    98    97    1
   140    98   101    1
   141   125   124    1
   142   125   127   am
   143   105   103   ar
   144   157   158    1
   145   176   177   ar
   146   176   175    1
   147   161   158    1
   148    77    76    2
   149   123   122    2
   150   102   103    1
   151   102   101    1
   152   103   104   ar
   153   175   172    1
   154   158   159    1
   155   171   172    1
   156   171   159   am
   157    76    75    1
   158    79    78    1
   159   172   173    1
   160   159   160    2
   161    87    88    1
   162    87    86    1
   163    78    75    1
   164    78    80    1
   165   173   174    2
   166    75    74    1
   167    86    85    1
   168    84    83    2
   169    85    82    1
   170    83    82    1
   171    82    81    1
