@<TRIPOS>MOLECULE
tmp/3epxA00.pdb
 183 177 0 0 0
SMALL
GASTEIGER

@<TRIPOS>ATOM
      1  N         38.3050   23.0730   49.8190 N.3     9  ASP9       -0.1239
      2  CA        37.8280   24.1630   48.9520 C.3     9  ASP9        0.1674
      3  C         37.0370   23.6980   47.7090 C.2     9  ASP9        0.2266
      4  O         37.0490   24.3630   46.6660 O.2     9  ASP9       -0.2867
      5  CB        38.9820   25.1150   48.5690 C.3     9  ASP9        0.1410
      6  CG        40.0050   24.4670   47.6530 C.2     9  ASP9        0.3668
      7  OD1       40.0950   23.2190   47.6070 O.co2   9  ASP9       -0.2456
      8  OD2       40.7250   25.2140   46.9690 O.co2   9  ASP9       -0.2456
      9  N         36.7550   21.5210   45.1830 N.3    11  ASN11      -0.1240
     10  CA        36.9800   20.9640   43.8590 C.3    11  ASN11       0.1653
     11  C         36.6970   19.4610   43.8540 C.2    11  ASN11       0.2266
     12  O         36.3480   18.8920   44.8920 O.2    11  ASN11      -0.2867
     13  CB        38.3710   21.2940   43.3070 C.3    11  ASN11       0.1155
     14  CG        38.3300   21.5560   41.8240 C.2    11  ASN11       0.2627
     15  OD1       38.5340   20.6520   41.0170 O.2    11  ASN11      -0.2716
     16  ND2       37.9750   22.7780   41.4570 N.am   11  ASN11      -0.0877
     17  N         38.4510   16.6330   43.6100 N.3    13  ASP13      -0.1225
     18  CA        39.2270   15.7710   44.5030 C.3    13  ASP13       0.1805
     19  C         38.9720   16.0630   45.9770 C.2    13  ASP13       0.2597
     20  O         39.0630   15.1630   46.7880 O.2    13  ASP13      -0.2718
     21  CB        40.7260   15.7610   44.1770 C.3    13  ASP13       0.1424
     22  CG        41.3910   17.0700   44.4430 C.2    13  ASP13       0.3668
     23  OD1       40.7060   18.1160   44.3590 O.co2  13  ASP13      -0.2456
     24  OD2       42.6170   17.0590   44.7430 O.co2  13  ASP13      -0.2456
     25  N         38.6420   17.3150   46.3160 N.am   14  ASP14      -0.1974
     26  CA        38.1970   17.6340   47.6810 C.3    14  ASP14       0.1709
     27  C         37.0440   16.7420   48.0830 C.2    14  ASP14       0.2293
     28  O         36.9720   16.2830   49.2330 O.2    14  ASP14      -0.2864
     29  CB        37.7600   19.1030   47.8250 C.3    14  ASP14       0.1436
     30  CG        38.8900   20.0660   47.5790 C.2    14  ASP14       0.3671
     31  OD1       39.5540   20.5060   48.5470 O.co2  14  ASP14      -0.2456
     32  OD2       39.1430   20.3670   46.3910 O.co2  14  ASP14      -0.2456
     33  N         39.0920   27.1670   45.3720 N.3    39  ASP39      -0.1239
     34  CA        38.9090   26.4100   44.1200 C.3    39  ASP39       0.1674
     35  C         37.4390   25.9760   43.9160 C.2    39  ASP39       0.2266
     36  O         37.1570   24.9290   43.3270 O.2    39  ASP39      -0.2867
     37  CB        39.8480   25.1980   44.1020 C.3    39  ASP39       0.1410
     38  CG        40.2790   24.7900   42.6990 C.2    39  ASP39       0.3668
     39  OD1       39.9680   25.4980   41.7330 O.co2  39  ASP39      -0.2456
     40  OD2       40.9290   23.7330   42.5760 O.co2  39  ASP39      -0.2456
     41  N         41.7440   31.6230   42.4810 N.3    78  PHE78      -0.1241
     42  CA        41.8270   30.5640   41.4740 C.3    78  PHE78       0.1605
     43  C         41.2050   30.9850   40.1310 C.2    78  PHE78       0.2264
     44  O         40.3430   31.8700   40.1010 O.2    78  PHE78      -0.2867
     45  CB        41.1210   29.2970   41.9710 C.3    78  PHE78       0.0534
     46  CG        41.9670   28.4270   42.8520 C.ar   78  PHE78      -0.0203
     47  CD1       42.7550   27.4260   42.3030 C.ar   78  PHE78      -0.0042
     48  CD2       41.9540   28.5830   44.2280 C.ar   78  PHE78      -0.0042
     49  CE1       43.5250   26.6100   43.1040 C.ar   78  PHE78      -0.0003
     50  CE2       42.7400   27.7610   45.0510 C.ar   78  PHE78      -0.0003
     51  CZ        43.5220   26.7680   44.4780 C.ar   78  PHE78      -0.0000
     52  N         38.0510   26.6130   36.8230 N.3    82  TRP82      -0.1241
     53  CA        38.2970   25.5520   37.7940 C.3    82  TRP82       0.1605
     54  C         37.3210   25.6220   38.9720 C.2    82  TRP82       0.2264
     55  O         36.9380   24.6000   39.5130 O.2    82  TRP82      -0.2867
     56  CB        39.7130   25.6330   38.3500 C.3    82  TRP82       0.0550
     57  CG        40.8230   25.4290   37.3630 C.ar   82  TRP82       0.0003
     58  CD1       40.7190   25.0760   36.0470 C.ar   82  TRP82       0.0946
     59  CD2       42.2190   25.5510   37.6370 C.ar   82  TRP82       0.0152
     60  NE1       41.9770   24.9780   35.4810 N.ar   82  TRP82      -0.2442
     61  CE2       42.9130   25.2580   36.4410 C.ar   82  TRP82       0.0810
     62  CE3       42.9560   25.8580   38.7900 C.ar   82  TRP82       0.0012
     63  CZ2       44.3120   25.2820   36.3600 C.ar   82  TRP82       0.0191
     64  CZ3       44.3390   25.8900   38.7110 C.ar   82  TRP82       0.0001
     65  CH2       45.0060   25.6000   37.5050 C.ar   82  TRP82       0.0015
     66  N         33.4680   23.7150   39.0840 N.3    85  LEU85      -0.1245
     67  CA        33.2490   22.2690   39.1140 C.3    85  LEU85       0.1561
     68  C         32.2440   21.8290   40.1950 C.2    85  LEU85       0.2260
     69  O         31.4790   20.8910   39.9740 O.2    85  LEU85      -0.2867
     70  CB        34.5800   21.5220   39.2040 C.3    85  LEU85       0.0270
     71  CG        35.4690   21.7190   37.9610 C.3    85  LEU85       0.0019
     72  CD1       36.7970   21.0100   38.1480 C.3    85  LEU85       0.0001
     73  CD2       34.7660   21.2110   36.6950 C.3    85  LEU85       0.0001
     74  N         42.7020   20.4480   52.5380 N.3   136  THR136     -0.1218
     75  CA        42.7620   20.1270   51.1150 C.3   136  THR136      0.1862
     76  C         42.5310   21.3700   50.2500 C.2   136  THR136      0.2287
     77  O         42.5320   21.2980   49.0100 O.2   136  THR136     -0.2866
     78  CB        41.7740   18.9970   50.7430 C.3   136  THR136      0.1770
     79  OG1       40.4440   19.4060   51.0550 O.3   136  THR136     -0.2211
     80  CG2       42.0960   17.6850   51.4920 C.3   136  THR136      0.0375
     81  N         47.3290   19.1080   51.9230 N.3   163  MET163     -0.1245
     82  CA        47.6750   19.0540   50.5030 C.3   163  MET163      0.1570
     83  C         48.1560   20.4450   50.1180 C.2   163  MET163      0.2261
     84  O         47.3950   21.4210   50.1700 O.2   163  MET163     -0.2867
     85  CB        46.5000   18.6120   49.6240 C.3   163  MET163      0.0387
     86  CG        46.9020   18.2370   48.1780 C.3   163  MET163      0.0595
     87  SD        47.2510   19.6870   47.1760 S.3   163  MET163     -0.1393
     88  CE        48.8530   19.2300   46.4630 C.3   163  MET163      0.0692
     89  N         52.6250   24.3220   40.1990 N.3   172  ASN172     -0.1240
     90  CA        51.5810   24.2580   39.1860 C.3   172  ASN172      0.1653
     91  C         50.8960   25.6050   38.9330 C.2   172  ASN172      0.2266
     92  O         49.8370   25.6540   38.3010 O.2   172  ASN172     -0.2867
     93  CB        50.5670   23.1330   39.5060 C.3   172  ASN172      0.1155
     94  CG        49.8360   23.3490   40.8290 C.2   172  ASN172      0.2627
     95  OD1       49.8650   24.4420   41.4040 O.2   172  ASN172     -0.2716
     96  ND2       49.1590   22.3090   41.3020 N.am  172  ASN172     -0.0877
     97  N         52.7650   26.1010   44.1820 N.3   183  GLU183     -0.1231
     98  CA        51.5730   25.2710   44.0600 C.3   183  GLU183      0.1699
     99  C         50.3660   26.1020   44.5030 C.2   183  GLU183      0.2592
    100  O         50.4930   26.9920   45.3570 O.2   183  GLU183     -0.2718
    101  CB        51.7320   24.0010   44.9120 C.3   183  GLU183      0.0402
    102  CG        50.5440   23.0420   44.9100 C.3   183  GLU183      0.1161
    103  CD        49.4420   23.4970   45.8720 C.2   183  GLU183      0.3649
    104  OE1       49.7740   24.1270   46.8940 O.co2 183  GLU183     -0.2457
    105  OE2       48.2520   23.2410   45.5930 O.co2 183  GLU183     -0.2457
    106  N         49.2100   25.8080   43.9100 N.am  184  TRP184     -0.1962
    107  CA        48.0350   26.6800   43.9780 C.3   184  TRP184      0.1771
    108  C         47.4560   26.9050   45.3760 C.2   184  TRP184      0.2619
    109  O         47.1070   28.0340   45.7190 O.2   184  TRP184     -0.2715
    110  CB        46.9620   26.2090   42.9860 C.3   184  TRP184      0.0590
    111  CG        46.9940   26.9790   41.6900 C.ar  184  TRP184      0.0006
    112  CD1       47.4600   26.5510   40.4770 C.ar  184  TRP184      0.0946
    113  CD2       46.5580   28.3240   41.5020 C.ar  184  TRP184      0.0152
    114  NE1       47.3130   27.5510   39.5320 N.ar  184  TRP184     -0.2442
    115  CE2       46.7680   28.6510   40.1400 C.ar  184  TRP184      0.0810
    116  CE3       45.9980   29.2870   42.3500 C.ar  184  TRP184      0.0012
    117  CZ2       46.4500   29.9140   39.6100 C.ar  184  TRP184      0.0191
    118  CZ3       45.6720   30.5500   41.8130 C.ar  184  TRP184      0.0001
    119  CH2       45.9030   30.8400   40.4600 C.ar  184  TRP184      0.0015
    120  N         47.3370   25.8520   46.1740 N.am  185  ASN185     -0.1972
    121  CA        46.7580   26.0110   47.5150 C.3   185  ASN185      0.1688
    122  C         47.5450   26.9990   48.3760 C.2   185  ASN185      0.2292
    123  O         46.9560   27.7990   49.0980 O.2   185  ASN185     -0.2864
    124  CB        46.6340   24.6660   48.2270 C.3   185  ASN185      0.1181
    125  CG        45.5480   23.7950   47.6360 C.2   185  ASN185      0.2629
    126  OD1       44.7490   24.2480   46.8150 O.2   185  ASN185     -0.2716
    127  ND2       45.5080   22.5380   48.0540 N.am  185  ASN185     -0.0877
    128  N         41.7900   16.7040   31.2100 N.3   247  CYS247     -0.1235
    129  CA        42.6060   17.8640   31.6010 C.3   247  CYS247      0.1677
    130  C         43.9910   17.9140   30.9660 C.2   247  CYS247      0.2270
    131  O         44.7590   16.9470   31.0330 O.2   247  CYS247     -0.2867
    132  CB        42.6970   17.9720   33.1230 C.3   247  CYS247      0.0956
    133  SG        41.1160   18.3300   33.9100 S.3   247  CYS247     -0.0801
    134  N         50.3790   22.1350   33.0840 N.3   249  GLY249     -0.1210
    135  CA        49.9430   22.6050   34.3970 C.3   249  GLY249      0.1956
    136  C         48.4630   22.4330   34.6830 C.2   249  GLY249      0.2612
    137  O         48.0290   22.5740   35.8330 O.2   249  GLY249     -0.2717
    138  N         47.6860   22.1300   33.6420 N.am  250  ASP250     -0.1959
    139  CA        46.2470   21.9390   33.7950 C.3   250  ASP250      0.1840
    140  C         45.8770   20.4970   34.1530 C.2   250  ASP250      0.2623
    141  O         44.7140   20.2260   34.4540 O.2   250  ASP250     -0.2715
    142  CB        45.4990   22.3720   32.5250 C.3   250  ASP250      0.1450
    143  CG        45.4470   23.8840   32.3540 C.2   250  ASP250      0.3671
    144  OD1       46.1200   24.6090   33.1170 O.co2 250  ASP250     -0.2456
    145  OD2       44.7290   24.3480   31.4390 O.co2 250  ASP250     -0.2456
    146  N         46.8630   19.5910   34.1320 N.am  251  GLY251     -0.1940
    147  CA        46.6430   18.1540   34.3870 C.3   251  GLY251      0.2014
    148  C         46.0380   17.8860   35.7570 C.2   251  GLY251      0.2638
    149  O         46.4050   18.5400   36.7280 O.2   251  GLY251     -0.2714
    150  N         45.1040   16.9380   35.8390 N.am  252  TYR252     -0.1973
    151  CA        44.4080   16.6640   37.1110 C.3   252  TYR252      0.1639
    152  C         44.9960   15.4240   37.7750 C.2   252  TYR252      0.2290
    153  O         45.2930   14.4260   37.1050 O.2   252  TYR252     -0.2864
    154  CB        42.8970   16.4800   36.8880 C.3   252  TYR252      0.0560
    155  CG        42.0260   16.9740   38.0420 C.ar  252  TYR252     -0.0198
    156  CD1       41.4280   18.2330   37.9940 C.ar  252  TYR252     -0.0009
    157  CD2       41.8000   16.1760   39.1660 C.ar  252  TYR252     -0.0009
    158  CE1       40.6250   18.6910   39.0540 C.ar  252  TYR252      0.0417
    159  CE2       41.0060   16.6190   40.2320 C.ar  252  TYR252      0.0417
    160  CZ        40.4240   17.8790   40.1650 C.ar  252  TYR252      0.1957
    161  OH        39.6300   18.3170   41.2070 O.3   252  TYR252     -0.2866
    162  N         45.2140   14.7340   44.0670 N.3   255  TRP255     -0.1227
    163  CA        45.9670   15.4640   45.0910 C.3   255  TRP255      0.1737
    164  C         45.3350   15.3010   46.4690 C.2   255  TRP255      0.2595
    165  O         45.9760   14.8310   47.3960 O.2   255  TRP255     -0.2718
    166  CB        46.0020   16.9700   44.8150 C.3   255  TRP255      0.0564
    167  CG        46.5320   17.4870   43.4880 C.ar  255  TRP255      0.0003
    168  CD1       47.8360   17.7270   43.1550 C.ar  255  TRP255      0.0946
    169  CD2       45.7460   17.9410   42.3800 C.ar  255  TRP255      0.0152
    170  NE1       47.9090   18.2720   41.8860 N.ar  255  TRP255     -0.2442
    171  CE2       46.6370   18.4090   41.3920 C.ar  255  TRP255      0.0810
    172  CE3       44.3670   17.9830   42.1200 C.ar  255  TRP255      0.0012
    173  CZ2       46.1940   18.9300   40.1630 C.ar  255  TRP255      0.0191
    174  CZ3       43.9260   18.4960   40.8980 C.ar  255  TRP255      0.0001
    175  CH2       44.8430   18.9540   39.9330 C.ar  255  TRP255      0.0015
    176  N         44.0760   15.7190   46.5970 N.am  256  ASP256     -0.1974
    177  CA        43.4220   15.7340   47.9140 C.3   256  ASP256      0.1709
    178  C         43.0370   14.3420   48.3610 C.2   256  ASP256      0.2293
    179  O         42.9730   14.0720   49.5630 O.2   256  ASP256     -0.2864
    180  CB        42.1860   16.6330   47.9000 C.3   256  ASP256      0.1436
    181  CG        42.5200   18.0820   47.5650 C.2   256  ASP256      0.3671
    182  OD1       43.7130   18.4630   47.6180 O.co2 256  ASP256     -0.2456
    183  OD2       41.5890   18.8400   47.2460 O.co2 256  ASP256     -0.2456
@<TRIPOS>BOND
     1   130   131    2
     2   130   129    1
     3   128   129    1
     4   145   143   ar
     5   129   132    1
     6   143   142    1
     7   143   144   ar
     8   142   139    1
     9   134   135    1
    10   132   133    1
    11   138   139    1
    12   138   136   am
    13   139   140    1
    14   146   140   am
    15   146   147    1
    16   140   141    2
    17   147   148    1
    18   135   136    1
    19   136   137    2
    20    60    58   ar
    21    60    61   ar
    22   148   150   am
    23   148   149    2
    24   150   151    1
    25    58    57   ar
    26    63    61   ar
    27    63    65   ar
    28    61    59   ar
    29    73    71    1
    30    52    53    1
    31   154   151    1
    32   154   155    1
    33   153   152    2
    34   151   152    1
    35    57    59   ar
    36    57    56    1
    37    65    64   ar
    38    59    62   ar
    39    53    56    1
    40    53    54    1
    41    71    72    1
    42    71    70    1
    43   156   155   ar
    44   156   158   ar
    45   155   157   ar
    46    92    91    2
    47    64    62   ar
    48    91    90    1
    49    54    55    2
    50   158   160   ar
    51    66    67    1
    52    67    70    1
    53    67    68    1
    54   157   159   ar
    55    90    93    1
    56    90    89    1
    57    93    94    1
    58   114   115   ar
    59   114   112   ar
    60   117   115   ar
    61   117   119   ar
    62   175   173   ar
    63   175   174   ar
    64    69    68    2
    65    44    43    2
    66    43    42    1
    67   115   113   ar
    68   173   171   ar
    69   160   159   ar
    70   160   161    1
    71   119   118   ar
    72   112   111   ar
    73    94    96   am
    74    94    95    2
    75   174   172   ar
    76    15    14    2
    77   171   170   ar
    78   171   169   ar
    79    16    14   am
    80    42    45    1
    81    42    41    1
    82   113   111   ar
    83   113   116   ar
    84   111   110    1
    85    39    38   ar
    86   118   116   ar
    87    14    13    1
    88   170   168   ar
    89    45    46    1
    90   172   169   ar
    91    47    46   ar
    92    47    49   ar
    93   169   167   ar
    94    40    38   ar
    95    38    37    1
    96    46    48   ar
    97   110   107    1
    98    49    51   ar
    99   168   167   ar
   100    13    10    1
   101    36    35    2
   102   167   166    1
   103    17    18    1
   104    11    10    1
   105    11    12    2
   106    10     9    1
   107   106   107    1
   108   106    99   am
   109    35    34    1
   110   107   108    1
   111    98    97    1
   112    98    99    1
   113    98   101    1
   114   162   163    1
   115    37    34    1
   116    34    33    1
   117    21    22    1
   118    21    18    1
   119    48    50   ar
   120    23    22   ar
   121    22    24   ar
   122    51    50   ar
   123    18    19    1
   124    99   100    2
   125   166   163    1
   126   102   101    1
   127   102   103    1
   128   163   164    1
   129   108   109    2
   130   108   120   am
   131   105   103   ar
   132   103   104   ar
   133    19    25   am
   134    19    20    2
   135   120   121    1
   136    25    26    1
   137    32    30   ar
   138    88    87    1
   139   164   176   am
   140   164   165    2
   141   176   177    1
   142     4     3    2
   143   126   125    2
   144     8     6   ar
   145    87    86    1
   146   183   181   ar
   147   121   124    1
   148   121   122    1
   149   181   182   ar
   150   181   180    1
   151    30    29    1
   152    30    31   ar
   153     7     6   ar
   154   125   127   am
   155   125   124    1
   156     6     5    1
   157    26    29    1
   158    26    27    1
   159     3     2    1
   160   180   177    1
   161   177   178    1
   162    27    28    2
   163    86    85    1
   164   178   179    2
   165   122   123    2
   166     5     2    1
   167     2     1    1
   168    77    76    2
   169    85    82    1
   170    83    84    2
   171    83    82    1
   172    76    75    1
   173    82    81    1
   174    78    79    1
   175    78    75    1
   176    78    80    1
   177    75    74    1
