@<TRIPOS>MOLECULE
tmp/3epyA01.pdb
 95 93 0 0 0
SMALL
GASTEIGER

@<TRIPOS>ATOM
      1  N         75.9750   11.5600  -20.2630 N.3    14  VAL14      -0.1231
      2  CA        76.2440   11.9020  -18.8770 C.3    14  VAL14       0.1692
      3  C         75.6150   10.8700  -17.9340 C.2    14  VAL14       0.2591
      4  O         75.9430   10.8160  -16.7510 O.2    14  VAL14      -0.2718
      5  CB        75.7790   13.3400  -18.5330 C.3    14  VAL14       0.0266
      6  CG1       74.2740   13.3730  -18.2740 C.3    14  VAL14       0.0020
      7  CG2       76.5420   13.8660  -17.3330 C.3    14  VAL14       0.0020
      8  N         74.7090   10.0540  -18.4660 N.am   15  ARG15      -0.1980
      9  CA        74.0980    8.9680  -17.6950 C.3    15  ARG15       0.1597
     10  C         75.0890    7.8370  -17.4420 C.2    15  ARG15       0.2287
     11  O         74.8660    6.9950  -16.5790 O.2    15  ARG15      -0.2864
     12  CB        72.8730    8.3950  -18.4250 C.3    15  ARG15       0.0334
     13  CG        71.6980    9.3530  -18.5360 C.3    15  ARG15       0.0492
     14  CD        70.9620    9.4400  -17.2150 C.3    15  ARG15       0.2205
     15  NE        69.7750   10.2800  -17.2960 N.pl3  15  ARG15      -0.0865
     16  CZ        68.9530   10.4950  -16.2760 C.cat  15  ARG15       0.5346
     17  NH1       69.1960    9.9180  -15.1070 N.pl3  15  ARG15       0.1354
     18  NH2       67.8910   11.2790  -16.4220 N.pl3  15  ARG15       0.1354
     19  N         78.2120    8.0330  -16.4060 N.3    17  LEU17      -0.1231
     20  CA        79.3250    8.4180  -15.5400 C.3    17  LEU17       0.1693
     21  C         79.6930    7.2800  -14.6080 C.2    17  LEU17       0.2592
     22  O         78.8190    6.5610  -14.1300 O.2    17  LEU17      -0.2718
     23  CB        78.9710    9.6510  -14.7180 C.3    17  LEU17       0.0284
     24  CG        78.8820   10.9760  -15.4740 C.3    17  LEU17       0.0019
     25  CD1       78.5610   12.1200  -14.5080 C.3    17  LEU17       0.0001
     26  CD2       80.1870   11.2380  -16.1780 C.3    17  LEU17       0.0001
     27  N         80.9860    7.1180  -14.3390 N.am   18  LYS18      -0.1966
     28  CA        81.4260    6.0370  -13.4590 C.3    18  LYS18       0.1728
     29  C         81.3750    6.4340  -11.9850 C.2    18  LYS18       0.2616
     30  O         81.5220    5.5920  -11.1050 O.2    18  LYS18      -0.2715
     31  CB        82.8140    5.5250  -13.8640 C.3    18  LYS18       0.0311
     32  CG        82.8730    5.0360  -15.3080 C.3    18  LYS18       0.0038
     33  CD        82.0900    3.7400  -15.4870 C.3    18  LYS18       0.0206
     34  CE        82.0710    3.2850  -16.9370 C.3    18  LYS18       0.1093
     35  NZ        81.5360    1.9030  -17.0980 N.3    18  LYS18      -0.1314
     36  N         81.1370    7.7180  -11.7280 N.am   19  ALA19      -0.1963
     37  CA        80.9950    8.2170  -10.3650 C.3    19  ALA19       0.1728
     38  C         79.9260    9.3050  -10.2950 C.2    19  ALA19       0.2616
     39  O         79.7040   10.0440  -11.2620 O.2    19  ALA19      -0.2715
     40  CB        82.3170    8.7600   -9.8680 C.3    19  ALA19       0.0334
     41  N         79.2710    9.4120   -9.1470 N.am   20  ARG20      -0.1964
     42  CA        78.2310   10.4140   -8.9720 C.3    20  ARG20       0.1714
     43  C         78.8470   11.7960   -8.7560 C.2    20  ARG20       0.2458
     44  O         79.6370   11.9850   -7.8310 O.2    20  ARG20      -0.2730
     45  CB        77.3400   10.0420   -7.7870 C.3    20  ARG20       0.0347
     46  CG        76.0970   10.9160   -7.6300 C.3    20  ARG20       0.0492
     47  CD        75.5340   10.7560   -6.2300 C.3    20  ARG20       0.2205
     48  NE        74.4640   11.7030   -5.9320 N.pl3  20  ARG20      -0.0865
     49  CZ        74.6550   12.9580   -5.5310 C.cat  20  ARG20       0.5346
     50  NH1       75.8840   13.4420   -5.3910 N.pl3  20  ARG20       0.1354
     51  NH2       73.6130   13.7360   -5.2760 N.pl3  20  ARG20       0.1354
     52  N         78.4940   12.7700   -9.6160 N.am   21  PRO21      -0.2727
     53  CA        78.9510   14.1500   -9.4270 C.3    21  PRO21       0.1402
     54  C         78.4650   14.7170   -8.0960 C.2    21  PRO21       0.2269
     55  O         77.4270   14.2850   -7.5960 O.2    21  PRO21      -0.2865
     56  CB        78.2970   14.8930  -10.5940 C.3    21  PRO21       0.0296
     57  CG        78.1100   13.8510  -11.6320 C.3    21  PRO21       0.0237
     58  CD        77.7470   12.6110  -10.8740 C.3    21  PRO21       0.0939
     59  N         75.5420   18.5640   -9.9860 N.3    26  LEU26      -0.1231
     60  CA        74.2430   18.0830  -10.4260 C.3    26  LEU26       0.1693
     61  C         73.2900   19.2530  -10.5900 C.2    26  LEU26       0.2591
     62  O         72.4610   19.2530  -11.4890 O.2    26  LEU26      -0.2718
     63  CB        73.6620   17.0730   -9.4310 C.3    26  LEU26       0.0284
     64  CG        74.3760   15.7270   -9.3660 C.3    26  LEU26       0.0019
     65  CD1       73.6860   14.8210   -8.3750 C.3    26  LEU26       0.0001
     66  CD2       74.4280   15.0790  -10.7460 C.3    26  LEU26       0.0001
     67  N         73.3940   20.2370   -9.7040 N.am   27  LYS27      -0.1980
     68  CA        72.5800   21.4460   -9.8360 C.3    27  LYS27       0.1596
     69  C         72.8820   22.2010  -11.1400 C.2    27  LYS27       0.2287
     70  O         71.9730   22.5670  -11.8750 O.2    27  LYS27      -0.2864
     71  CB        72.7680   22.3630   -8.6320 C.3    27  LYS27       0.0298
     72  CG        72.1350   21.8380   -7.3630 C.3    27  LYS27       0.0038
     73  CD        72.3410   22.7970   -6.1980 C.3    27  LYS27       0.0206
     74  CE        71.6590   24.1430   -6.4340 C.3    27  LYS27       0.1093
     75  NZ        71.8800   25.0720   -5.2790 N.3    27  LYS27      -0.1314
     76  N         74.2010   21.0820  -13.9100 N.3    29  LEU29      -0.1231
     77  CA        73.7540   20.2340  -14.9970 C.3    29  LEU29       0.1693
     78  C         72.2420   20.3290  -15.1820 C.2    29  LEU29       0.2592
     79  O         71.7350   20.4440  -16.2930 O.2    29  LEU29      -0.2718
     80  CB        74.1280   18.7930  -14.6500 C.3    29  LEU29       0.0284
     81  CG        74.1350   17.7770  -15.7670 C.3    29  LEU29       0.0019
     82  CD1       75.1200   18.2340  -16.8370 C.3    29  LEU29       0.0001
     83  CD2       74.4940   16.3970  -15.2030 C.3    29  LEU29       0.0001
     84  N         71.5220   20.2820  -14.0730 N.am   30  TYR30      -0.1976
     85  CA        70.0630   20.3060  -14.1330 C.3    30  TYR30       0.1639
     86  C         69.5690   21.6760  -14.6000 C.2    30  TYR30       0.2290
     87  O         68.6880   21.7820  -15.4400 O.2    30  TYR30      -0.2864
     88  CB        69.4890   19.9930  -12.7530 C.3    30  TYR30       0.0560
     89  CG        68.0090   20.2060  -12.6830 C.ar   30  TYR30      -0.0198
     90  CD1       67.1270   19.2030  -13.0690 C.ar   30  TYR30      -0.0009
     91  CD2       67.4850   21.4200  -12.2630 C.ar   30  TYR30      -0.0009
     92  CE1       65.7660   19.3990  -13.0200 C.ar   30  TYR30       0.0417
     93  CE2       66.1120   21.6330  -12.2170 C.ar   30  TYR30       0.0417
     94  CZ        65.2610   20.6160  -12.5870 C.ar   30  TYR30       0.1957
     95  OH        63.9040   20.8190  -12.5480 O.3    30  TYR30      -0.2866
@<TRIPOS>BOND
     1     1     2    1
     2     2     5    1
     3     2     3    1
     4    13    12    1
     5    13    14    1
     6     5     6    1
     7     5     7    1
     8     8     3   am
     9     8     9    1
    10    12     9    1
    11     3     4    2
    12     9    10    1
    13    10    11    2
    14    15    14    1
    15    15    16    2
    16    35    34    1
    17    34    33    1
    18    82    81    1
    19    18    16    1
    20    19    20    1
    21    79    78    2
    22    16    17    1
    23    26    24    1
    24    81    83    1
    25    81    80    1
    26    20    23    1
    27    20    21    1
    28    33    32    1
    29    24    23    1
    30    24    25    1
    31    87    86    2
    32    32    31    1
    33    78    77    1
    34    78    84   am
    35    77    80    1
    36    77    76    1
    37    21    27   am
    38    21    22    2
    39    86    85    1
    40    27    28    1
    41    85    84    1
    42    85    88    1
    43    31    28    1
    44    28    29    1
    45    90    92   ar
    46    90    89   ar
    47    92    94   ar
    48    88    89    1
    49    89    91   ar
    50    94    95    1
    51    94    93   ar
    52    91    93   ar
    53    29    36   am
    54    29    30    2
    55    70    69    2
    56    36    37    1
    57    57    58    1
    58    57    56    1
    59    62    61    2
    60    39    38    2
    61    69    68    1
    62    58    52    1
    63    66    64    1
    64    56    53    1
    65    61    60    1
    66    61    67   am
    67    60    59    1
    68    60    63    1
    69    37    38    1
    70    37    40    1
    71    38    41   am
    72    68    67    1
    73    68    71    1
    74    52    53    1
    75    52    43   am
    76    63    64    1
    77    53    54    1
    78    64    65    1
    79    41    42    1
    80    42    43    1
    81    42    45    1
    82    43    44    2
    83    71    72    1
    84    54    55    2
    85    45    46    1
    86    46    47    1
    87    72    73    1
    88    74    73    1
    89    74    75    1
    90    47    48    1
    91    48    49    2
    92    49    50    1
    93    49    51    1
