@<TRIPOS>MOLECULE
tmp/3epyB02.pdb
 95 93 0 0 0
SMALL
GASTEIGER

@<TRIPOS>ATOM
      1  N         76.7140   43.7700   19.8770 N.3    12  VAL12      -0.1231
      2  CA        76.9050   43.4820   18.4720 C.3    12  VAL12       0.1692
      3  C         76.2020   44.5420   17.6240 C.2    12  VAL12       0.2591
      4  O         76.4500   44.6600   16.4220 O.2    12  VAL12      -0.2718
      5  CB        76.3980   42.0670   18.1370 C.3    12  VAL12       0.0266
      6  CG1       74.9130   42.0990   17.8160 C.3    12  VAL12       0.0020
      7  CG2       77.1960   41.4720   16.9870 C.3    12  VAL12       0.0020
      8  N         75.3360   45.3330   18.2560 N.am   13  ARG13      -0.1980
      9  CA        74.6860   46.4590   17.5700 C.3    13  ARG13       0.1597
     10  C         75.6540   47.6150   17.3600 C.2    13  ARG13       0.2287
     11  O         75.3940   48.5290   16.5760 O.2    13  ARG13      -0.2864
     12  CB        73.4780   46.9540   18.3670 C.3    13  ARG13       0.0334
     13  CG        72.3130   45.9680   18.4130 C.3    13  ARG13       0.0492
     14  CD        71.7230   45.7990   17.0400 C.3    13  ARG13       0.2205
     15  NE        70.4780   45.0450   17.0560 N.pl3  13  ARG13      -0.0865
     16  CZ        69.6460   44.9780   16.0230 C.cat  13  ARG13       0.5346
     17  NH1       69.9320   45.6220   14.8980 N.pl3  13  ARG13       0.1354
     18  NH2       68.5310   44.2660   16.1080 N.pl3  13  ARG13       0.1354
     19  N         78.7560   47.4340   16.2010 N.3    15  LEU15      -0.1231
     20  CA        79.8420   47.0940   15.2910 C.3    15  LEU15       0.1693
     21  C         80.1450   48.2540   14.3690 C.2    15  LEU15       0.2592
     22  O         79.2360   48.9580   13.9420 O.2    15  LEU15      -0.2718
     23  CB        79.4960   45.8580   14.4730 C.3    15  LEU15       0.0284
     24  CG        79.5620   44.5330   15.2300 C.3    15  LEU15       0.0019
     25  CD1       79.2390   43.3820   14.2850 C.3    15  LEU15       0.0001
     26  CD2       80.9340   44.3460   15.8670 C.3    15  LEU15       0.0001
     27  N         81.4260   48.4520   14.0630 N.am   16  LYS16      -0.1966
     28  CA        81.8310   49.5720   13.2160 C.3    16  LYS16       0.1728
     29  C         81.7040   49.2500   11.7260 C.2    16  LYS16       0.2616
     30  O         81.7990   50.1340   10.8770 O.2    16  LYS16      -0.2715
     31  CB        83.2510   50.0190   13.5710 C.3    16  LYS16       0.0311
     32  CG        83.3960   50.4790   15.0220 C.3    16  LYS16       0.0038
     33  CD        82.7750   51.8700   15.2560 C.3    16  LYS16       0.0206
     34  CE        82.8960   52.2580   16.7270 C.3    16  LYS16       0.1093
     35  NZ        82.1400   53.4700   17.1170 N.3    16  LYS16      -0.1314
     36  N         81.4740   47.9810   11.4130 N.am   17  ALA17      -0.1963
     37  CA        81.2290   47.5790   10.0320 C.3    17  ALA17       0.1728
     38  C         80.2070   46.4520    9.9650 C.2    17  ALA17       0.2616
     39  O         80.0650   45.6610   10.9020 O.2    17  ALA17      -0.2715
     40  CB        82.5190   47.1720    9.3520 C.3    17  ALA17       0.0334
     41  N         79.4860   46.3880    8.8560 N.am   18  ARG18      -0.1964
     42  CA        78.4570   45.3630    8.6860 C.3    18  ARG18       0.1714
     43  C         79.0910   44.0050    8.3740 C.2    18  ARG18       0.2458
     44  O         79.8350   43.8780    7.4080 O.2    18  ARG18      -0.2730
     45  CB        77.4780   45.7700    7.5790 C.3    18  ARG18       0.0347
     46  CG        76.2650   44.8420    7.3990 C.3    18  ARG18       0.0492
     47  CD        75.7300   44.9640    5.9720 C.3    18  ARG18       0.2205
     48  NE        74.5350   44.1640    5.6950 N.pl3  18  ARG18      -0.0865
     49  CZ        74.5460   42.9090    5.2480 C.cat  18  ARG18       0.5346
     50  NH1       75.6960   42.2710    5.0440 N.pl3  18  ARG18       0.1354
     51  NH2       73.3990   42.2840    5.0140 N.pl3  18  ARG18       0.1354
     52  N         78.8100   42.9870    9.2080 N.am   19  PRO19      -0.2727
     53  CA        79.2670   41.6200    8.9200 C.3    19  PRO19       0.1402
     54  C         78.7220   41.1190    7.5840 C.2    19  PRO19       0.2269
     55  O         77.6680   41.5790    7.1420 O.2    19  PRO19      -0.2865
     56  CB        78.6640   40.8020   10.0640 C.3    19  PRO19       0.0296
     57  CG        78.4470   41.7830   11.1760 C.3    19  PRO19       0.0237
     58  CD        78.1110   43.0810   10.5020 C.3    19  PRO19       0.0939
     59  N         75.9490   37.1750    9.4450 N.3    24  LEU24      -0.1231
     60  CA        74.6430   37.5670    9.9600 C.3    24  LEU24       0.1693
     61  C         73.7220   36.3610   10.1100 C.2    24  LEU24       0.2591
     62  O         72.9540   36.2680   11.0550 O.2    24  LEU24      -0.2718
     63  CB        74.0070   38.6260    9.0600 C.3    24  LEU24       0.0284
     64  CG        74.7810   39.9440    9.1190 C.3    24  LEU24       0.0019
     65  CD1       74.3010   40.9190    8.0730 C.3    24  LEU24       0.0001
     66  CD2       74.6240   40.5330   10.4920 C.3    24  LEU24       0.0001
     67  N         73.8050   35.4350    9.1720 N.am   25  LYS25      -0.1980
     68  CA        73.0110   34.2120    9.2510 C.3    25  LYS25       0.1596
     69  C         73.3710   33.4040   10.5040 C.2    25  LYS25       0.2287
     70  O         72.4970   32.9940   11.2600 O.2    25  LYS25      -0.2864
     71  CB        73.1980   33.3810    7.9840 C.3    25  LYS25       0.0298
     72  CG        72.6420   34.0650    6.7260 C.3    25  LYS25       0.0038
     73  CD        72.9290   33.2070    5.4750 C.3    25  LYS25       0.0206
     74  CE        72.8820   34.2150    4.3550 C.3    25  LYS25       0.1093
     75  NZ        73.0710   33.6460    3.0120 N.3    25  LYS25      -0.1314
     76  N         74.7830   34.4260   13.2720 N.3    27  LEU27      -0.1231
     77  CA        74.3670   35.1930   14.4430 C.3    27  LEU27       0.1693
     78  C         72.8520   35.0970   14.6690 C.2    27  LEU27       0.2592
     79  O         72.3970   34.8940   15.7890 O.2    27  LEU27      -0.2718
     80  CB        74.7760   36.6580   14.2740 C.3    27  LEU27       0.0284
     81  CG        74.9180   37.5120   15.5260 C.3    27  LEU27       0.0019
     82  CD1       76.0310   36.9590   16.3890 C.3    27  LEU27       0.0001
     83  CD2       75.2050   38.9540   15.1410 C.3    27  LEU27       0.0001
     84  N         72.0820   35.2440   13.6000 N.am   28  TYR28      -0.1976
     85  CA        70.6210   35.1920   13.6860 C.3    28  TYR28       0.1639
     86  C         70.1340   33.8100   14.1080 C.2    28  TYR28       0.2290
     87  O         69.3140   33.6850   15.0130 O.2    28  TYR28      -0.2864
     88  CB        69.9830   35.5810   12.3450 C.3    28  TYR28       0.0560
     89  CG        68.5080   35.2990   12.3070 C.ar   28  TYR28      -0.0198
     90  CD1       67.5950   36.2470   12.7420 C.ar   28  TYR28      -0.0009
     91  CD2       68.0290   34.0730   11.8680 C.ar   28  TYR28      -0.0009
     92  CE1       66.2350   35.9900   12.7280 C.ar   28  TYR28       0.0417
     93  CE2       66.6630   33.7990   11.8370 C.ar   28  TYR28       0.0417
     94  CZ        65.7750   34.7660   12.2630 C.ar   28  TYR28       0.1957
     95  OH        64.4290   34.5240   12.2660 O.3    28  TYR28      -0.2866
@<TRIPOS>BOND
     1    75    74    1
     2    74    73    1
     3    51    49    1
     4    50    49    1
     5    49    48    2
     6    73    72    1
     7    48    47    1
     8    47    46    1
     9    72    71    1
    10    55    54    2
    11    46    45    1
    12    44    43    2
    13    45    42    1
    14    54    53    1
    15    71    68    1
    16    65    64    1
    17    43    42    1
    18    43    52   am
    19    42    41    1
    20    41    38   am
    21    53    52    1
    22    53    56    1
    23    63    64    1
    24    63    60    1
    25    64    66    1
    26    67    68    1
    27    67    61   am
    28    52    58    1
    29    68    69    1
    30    40    37    1
    31    59    60    1
    32    60    61    1
    33    38    37    1
    34    38    39    2
    35    37    36    1
    36    56    57    1
    37    61    62    2
    38    58    57    1
    39    69    70    2
    40    30    29    2
    41    36    29   am
    42    29    28    1
    43    93    91   ar
    44    93    94   ar
    45    91    89   ar
    46    94    95    1
    47    94    92   ar
    48    89    88    1
    49    89    90   ar
    50    88    85    1
    51    92    90   ar
    52    28    31    1
    53    28    27    1
    54    76    77    1
    55    31    32    1
    56    84    85    1
    57    84    78   am
    58    85    86    1
    59    22    21    2
    60    27    21   am
    61    86    87    2
    62    80    77    1
    63    80    81    1
    64    25    24    1
    65    21    20    1
    66    77    78    1
    67    23    24    1
    68    23    20    1
    69    78    79    2
    70    17    16    1
    71    32    33    1
    72    83    81    1
    73    24    26    1
    74    33    34    1
    75    20    19    1
    76    81    82    1
    77    16    18    1
    78    16    15    2
    79     4     3    2
    80    11    10    2
    81    34    35    1
    82     7     5    1
    83    14    15    1
    84    14    13    1
    85    10     9    1
    86     9     8    1
    87     9    12    1
    88     3     8   am
    89     3     2    1
    90     6     5    1
    91     5     2    1
    92    12    13    1
    93     2     1    1
