@<TRIPOS>MOLECULE
tmp/3epzA00.pdb
 92 87 0 0 0
SMALL
GASTEIGER

@<TRIPOS>ATOM
      1  N         44.5630    5.5560   77.1540 N.3    44  GLN44      -0.1245
      2  CA        44.5290    5.5410   78.6010 C.3    44  GLN44       0.1566
      3  C         45.7170    6.3630   79.1180 C.2    44  GLN44       0.2260
      4  O         46.6250    6.6990   78.3510 O.2    44  GLN44      -0.2867
      5  CB        44.5880    4.0980   79.1080 C.3    44  GLN44       0.0367
      6  CG        43.4270    3.2280   78.6160 C.3    44  GLN44       0.0905
      7  CD        43.4330    1.8370   79.2260 C.2    44  GLN44       0.2608
      8  OE1       44.4110    1.1040   79.1050 O.2    44  GLN44      -0.2717
      9  NE2       42.3410    1.4660   79.8800 N.am   44  GLN44      -0.0878
     10  N         33.9100    4.7750   88.2380 N.3    96  GLU96      -0.1245
     11  CA        34.1940    3.3810   88.5210 C.3    96  GLU96       0.1567
     12  C         35.6930    3.1910   88.7350 C.2    96  GLU96       0.2260
     13  O         36.5010    3.8420   88.0540 O.2    96  GLU96      -0.2867
     14  CB        33.7280    2.5020   87.3470 C.3    96  GLU96       0.0388
     15  CG        33.7350    1.0060   87.6660 C.3    96  GLU96       0.1160
     16  CD        33.3950    0.1220   86.4640 C.2    96  GLU96       0.3649
     17  OE1       32.9520    0.6610   85.4220 O.co2  96  GLU96      -0.2457
     18  OE2       33.5770   -1.1150   86.5630 O.co2  96  GLU96      -0.2457
     19  N         38.5500   -0.2420   88.9120 N.3    98  TRP98      -0.1227
     20  CA        38.6580   -1.5660   88.3170 C.3    98  TRP98       0.1737
     21  C         40.1200   -2.0350   88.3270 C.2    98  TRP98       0.2595
     22  O         41.0060   -1.3150   88.7920 O.2    98  TRP98      -0.2718
     23  CB        38.0730   -1.5760   86.8860 C.3    98  TRP98       0.0564
     24  CG        38.3750   -0.3320   86.0870 C.ar   98  TRP98       0.0003
     25  CD1       37.5690    0.7570   85.9360 C.ar   98  TRP98       0.0946
     26  CD2       39.5670   -0.0560   85.3420 C.ar   98  TRP98       0.0152
     27  NE1       38.1820    1.6970   85.1420 N.ar   98  TRP98      -0.2442
     28  CE2       39.4120    1.2270   84.7670 C.ar   98  TRP98       0.0810
     29  CE3       40.7490   -0.7750   85.0920 C.ar   98  TRP98       0.0012
     30  CZ2       40.4000    1.8180   83.9590 C.ar   98  TRP98       0.0191
     31  CZ3       41.7340   -0.1900   84.2930 C.ar   98  TRP98       0.0001
     32  CH2       41.5470    1.0970   83.7300 C.ar   98  TRP98       0.0015
     33  N         40.3480   -3.2470   87.8200 N.am   99  ILE99      -0.1966
     34  CA        41.6670   -3.8760   87.7900 C.3    99  ILE99       0.1727
     35  C         42.1310   -4.0620   86.3510 C.2    99  ILE99       0.2616
     36  O         41.3090   -4.2540   85.4590 O.2    99  ILE99      -0.2715
     37  CB        41.6450   -5.2040   88.6180 C.3    99  ILE99       0.0290
     38  CG1       42.4130   -5.0140   89.9150 C.3    99  ILE99       0.0022
     39  CG2       42.1860   -6.4180   87.8610 C.3    99  ILE99       0.0023
     40  CD1       41.8810   -3.9160   90.7620 C.3    99  ILE99       0.0001
     41  N         43.4400   -3.9760   86.1240 N.am  100  THR100     -0.1951
     42  CA        44.0150   -4.2330   84.7970 C.3   100  THR100      0.1897
     43  C         45.4570   -4.7460   84.8760 C.2   100  THR100      0.2313
     44  O         46.1060   -4.6230   85.9130 O.2   100  THR100     -0.2863
     45  CB        43.9170   -2.9900   83.8770 C.3   100  THR100      0.1794
     46  OG1       43.9840   -3.4050   82.5090 O.3   100  THR100     -0.2208
     47  CG2       45.0210   -1.9770   84.1710 C.3   100  THR100      0.0378
     48  N         37.9110    5.1190   85.9640 N.3   110  SER110     -0.1217
     49  CA        37.2040    5.7330   84.8300 C.3   110  SER110      0.1889
     50  C         36.5430    7.0130   85.2940 C.2   110  SER110      0.2288
     51  O         35.8810    7.0430   86.3290 O.2   110  SER110     -0.2866
     52  CB        36.1000    4.8300   84.2890 C.3   110  SER110      0.2089
     53  OG        36.6120    3.6190   83.8080 O.3   110  SER110     -0.2183
     54  N         40.5280    7.3320   81.1460 N.3   115  GLU115     -0.1245
     55  CA        40.9330    6.2330   82.0150 C.3   115  GLU115      0.1567
     56  C         42.3430    6.4510   82.5200 C.2   115  GLU115      0.2260
     57  O         43.1980    6.9760   81.8040 O.2   115  GLU115     -0.2867
     58  CB        40.8040    4.8890   81.2950 C.3   115  GLU115      0.0388
     59  CG        39.3400    4.5180   81.0440 C.3   115  GLU115      0.1160
     60  CD        39.1540    3.2120   80.2920 C.2   115  GLU115      0.3649
     61  OE1       40.1550    2.6220   79.8320 O.co2 115  GLU115     -0.2457
     62  OE2       37.9900    2.7670   80.1720 O.co2 115  GLU115     -0.2457
     63  N         37.1070   -8.9450   86.8610 N.3   142  GLU142     -0.1245
     64  CA        37.9740   -8.7860   85.6960 C.3   142  GLU142      0.1567
     65  C         38.2290  -10.1220   84.9700 C.2   142  GLU142      0.2260
     66  O         38.0460  -10.2320   83.7510 O.2   142  GLU142     -0.2867
     67  CB        39.2750   -8.0870   86.1220 C.3   142  GLU142      0.0388
     68  CG        40.5150   -8.4040   85.2850 C.3   142  GLU142      0.1160
     69  CD        40.3240   -8.0570   83.8400 C.2   142  GLU142      0.3649
     70  OE1       39.6240   -7.0440   83.5850 O.co2 142  GLU142     -0.2457
     71  OE2       40.8440   -8.8070   82.9750 O.co2 142  GLU142     -0.2457
     72  N         34.8880  -11.4870   83.1670 N.3   145  GLN145     -0.1245
     73  CA        34.5410  -10.7070   81.9680 C.3   145  GLN145      0.1566
     74  C         35.2950  -11.2270   80.7480 C.2   145  GLN145      0.2260
     75  O         34.7300  -11.3670   79.6740 O.2   145  GLN145     -0.2867
     76  CB        34.9100   -9.2300   82.1490 C.3   145  GLN145      0.0367
     77  CG        33.8200   -8.2980   82.6330 C.3   145  GLN145      0.0905
     78  CD        34.3860   -6.9200   83.0000 C.2   145  GLN145      0.2608
     79  OE1       35.2970   -6.8130   83.8140 O.2   145  GLN145     -0.2717
     80  NE2       33.8510   -5.8670   82.3900 N.am  145  GLN145     -0.0878
     81  N         27.5850   -6.1760   90.1270 N.3   192  TYR192     -0.1241
     82  CA        28.1020   -5.8630   88.8040 C.3   192  TYR192      0.1605
     83  C         27.1280   -6.2480   87.6920 C.2   192  TYR192      0.2264
     84  O         26.8820   -5.4590   86.7780 O.2   192  TYR192     -0.2867
     85  CB        29.4690   -6.5180   88.5890 C.3   192  TYR192      0.0534
     86  CG        30.0660   -6.2250   87.2380 C.ar  192  TYR192     -0.0201
     87  CD1       30.7010   -5.0110   86.9830 C.ar  192  TYR192     -0.0009
     88  CD2       29.9820   -7.1550   86.2070 C.ar  192  TYR192     -0.0009
     89  CE1       31.2430   -4.7330   85.7270 C.ar  192  TYR192      0.0417
     90  CE2       30.5230   -6.8970   84.9600 C.ar  192  TYR192      0.0417
     91  CZ        31.1500   -5.6870   84.7270 C.ar  192  TYR192      0.1957
     92  OH        31.6740   -5.4330   83.4830 O.3   192  TYR192     -0.2866
@<TRIPOS>BOND
     1     1     2    1
     2     4     3    2
     3     2     5    1
     4     2     3    1
     5     6     5    1
     6     6     7    1
     7     8     7    2
     8     7     9   am
     9    75    74    2
    10    61    60   ar
    11    62    60   ar
    12    60    59    1
    13    74    73    1
    14    59    58    1
    15    54    55    1
    16    58    55    1
    17    57    56    2
    18    73    76    1
    19    73    72    1
    20    55    56    1
    21    76    77    1
    22    80    78   am
    23    46    45    1
    24    77    78    1
    25    71    69   ar
    26    78    79    2
    27    92    91    1
    28    70    69   ar
    29    32    30   ar
    30    32    31   ar
    31    66    65    2
    32    53    52    1
    33    69    68    1
    34    45    47    1
    35    45    42    1
    36    30    28   ar
    37    52    49    1
    38    31    29   ar
    39    91    90   ar
    40    91    89   ar
    41    28    27   ar
    42    28    26   ar
    43    42    43    1
    44    42    41    1
    45    49    50    1
    46    49    48    1
    47    43    44    2
    48    90    88   ar
    49    65    64    1
    50    29    26   ar
    51    27    25   ar
    52    68    67    1
    53    50    51    2
    54    26    24   ar
    55    17    16   ar
    56    36    35    2
    57    64    67    1
    58    64    63    1
    59    89    87   ar
    60    25    24   ar
    61    24    23    1
    62    41    35   am
    63    88    86   ar
    64    35    34    1
    65    16    18   ar
    66    16    15    1
    67    84    83    2
    68    23    20    1
    69    87    86   ar
    70    86    85    1
    71    14    15    1
    72    14    11    1
    73    83    82    1
    74    34    33    1
    75    34    37    1
    76    33    21   am
    77    39    37    1
    78    13    12    2
    79    10    11    1
    80    20    21    1
    81    20    19    1
    82    21    22    2
    83    11    12    1
    84    85    82    1
    85    37    38    1
    86    82    81    1
    87    38    40    1
