@<TRIPOS>MOLECULE
tmp/3eq0B01.pdb
 192 189 0 0 0
SMALL
GASTEIGER

@<TRIPOS>ATOM
      1  N         22.5300   -5.9550   18.1160 N.3    43  HIS43      -0.1241
      2  CA        22.3960   -7.3290   17.6710 C.3    43  HIS43       0.1621
      3  C         21.6770   -7.3230   16.3160 C.2    43  HIS43       0.2264
      4  O         21.7260   -8.3500   15.6330 O.2    43  HIS43      -0.2867
      5  CB        21.7230   -8.2590   18.6660 C.3    43  HIS43       0.0745
      6  CG        20.2460   -8.1630   18.8090 C.ar   43  HIS43       0.0817
      7  ND1       19.6090   -7.4600   19.8170 N.ar   43  HIS43      -0.2268
      8  CD2       19.2580   -8.7090   18.0760 C.ar   43  HIS43       0.1154
      9  CE1       18.2880   -7.5840   19.6680 C.ar   43  HIS43       0.1986
     10  NE2       18.0340   -8.3420   18.5870 N.ar   43  HIS43      -0.2212
     11  N         25.7860   -9.9280   15.2080 N.3    47  TYR47      -0.1241
     12  CA        25.5120  -11.0310   16.1100 C.3    47  TYR47       0.1605
     13  C         26.1900  -12.3010   15.5920 C.2    47  TYR47       0.2264
     14  O         25.6070  -13.1750   14.9620 O.2    47  TYR47      -0.2867
     15  CB        24.0120  -11.2600   16.3370 C.3    47  TYR47       0.0534
     16  CG        23.7510  -12.1510   17.5260 C.ar   47  TYR47      -0.0201
     17  CD1       24.1490  -11.7390   18.7950 C.ar   47  TYR47      -0.0009
     18  CD2       23.1340  -13.3850   17.3940 C.ar   47  TYR47      -0.0009
     19  CE1       23.9160  -12.5560   19.8800 C.ar   47  TYR47       0.0417
     20  CE2       22.9040  -14.1890   18.4970 C.ar   47  TYR47       0.0417
     21  CZ        23.3040  -13.7530   19.7410 C.ar   47  TYR47       0.1957
     22  OH        23.0970  -14.5400   20.8350 O.3    47  TYR47      -0.2866
     23  N         25.0010  -16.0520   15.1400 N.3    50  TRP50      -0.1241
     24  CA        24.1350  -16.3330   14.0000 C.3    50  TRP50       0.1605
     25  C         24.7090  -15.8200   12.6970 C.2    50  TRP50       0.2264
     26  O         23.9580  -15.7000   11.7200 O.2    50  TRP50      -0.2867
     27  CB        22.7750  -15.6670   14.2450 C.3    50  TRP50       0.0550
     28  CG        21.9730  -16.2050   15.3870 C.ar   50  TRP50       0.0003
     29  CD1       22.2090  -17.2710   16.2020 C.ar   50  TRP50       0.0946
     30  CD2       20.7290  -15.6390   15.8470 C.ar   50  TRP50       0.0152
     31  NE1       21.2020  -17.4200   17.1400 N.ar   50  TRP50      -0.2442
     32  CE2       20.2850  -16.4200   16.9310 C.ar   50  TRP50       0.0810
     33  CE3       19.9670  -14.5460   15.4250 C.ar   50  TRP50       0.0012
     34  CZ2       19.0990  -16.1380   17.6080 C.ar   50  TRP50       0.0191
     35  CZ3       18.7860  -14.2640   16.0980 C.ar   50  TRP50       0.0001
     36  CH2       18.3760  -15.0580   17.1720 C.ar   50  TRP50       0.0015
     37  N         24.2110   -9.7210   25.8450 N.3    96  LEU96      -0.1245
     38  CA        23.8020   -8.5340   25.1020 C.3    96  LEU96       0.1561
     39  C         23.8320   -7.2550   25.8950 C.2    96  LEU96       0.2260
     40  O         23.1000   -6.3060   25.6180 O.2    96  LEU96      -0.2867
     41  CB        22.3920   -8.7190   24.5130 C.3    96  LEU96       0.0270
     42  CG        22.2210   -9.8960   23.5580 C.3    96  LEU96       0.0019
     43  CD1       20.7750  -10.0680   23.0990 C.3    96  LEU96       0.0001
     44  CD2       23.1570   -9.7380   22.3610 C.3    96  LEU96       0.0001
     45  N          5.4080  -16.7160   19.3710 N.3   146  GLU146     -0.1245
     46  CA         6.6960  -17.3930   19.3790 C.3   146  GLU146      0.1567
     47  C          6.7720  -18.4480   18.2740 C.2   146  GLU146      0.2260
     48  O          5.7400  -19.1030   18.1030 O.2   146  GLU146     -0.2867
     49  CB         6.9380  -18.0450   20.7460 C.3   146  GLU146      0.0388
     50  CG         8.3870  -17.9040   21.1880 C.3   146  GLU146      0.1160
     51  CD         8.6580  -18.8240   22.3720 C.2   146  GLU146      0.3649
     52  OE1        8.0560  -18.6050   23.4400 O.co2 146  GLU146     -0.2457
     53  OE2        9.4700  -19.7540   22.1920 O.co2 146  GLU146     -0.2457
     54  N         20.3950  -15.7550   33.0350 N.3   170  ILE170     -0.1245
     55  CA        21.3010  -14.7730   32.4350 C.3   170  ILE170      0.1561
     56  C         21.6600  -13.6790   33.4300 C.2   170  ILE170      0.2260
     57  O         20.8550  -13.2450   34.2930 O.2   170  ILE170     -0.2867
     58  CB        20.6720  -14.2150   31.1430 C.3   170  ILE170      0.0252
     59  CG1       20.3820  -15.2950   30.0970 C.3   170  ILE170      0.0019
     60  CG2       21.4900  -13.0890   30.5420 C.3   170  ILE170      0.0019
     61  CD1       21.6460  -15.9240   29.5420 C.3   170  ILE170      0.0001
     62  N          4.2660   -8.9320   24.8230 N.3   190  ASP190     -0.1225
     63  CA         5.7300   -8.9510   24.7560 C.3   190  ASP190      0.1805
     64  C          6.1360   -8.5350   23.3570 C.2   190  ASP190      0.2598
     65  O          5.3190   -8.5940   22.4410 O.2   190  ASP190     -0.2718
     66  CB         6.2640  -10.3450   25.0660 C.3   190  ASP190      0.1424
     67  CG         7.7190  -10.4900   25.4040 C.2   190  ASP190      0.3668
     68  OD1        8.4460   -9.4820   25.5130 O.co2 190  ASP190     -0.2456
     69  OD2        8.1920  -11.6510   25.5930 O.co2 190  ASP190     -0.2456
     70  N          7.4080   -8.1780   23.2050 N.am  191  ALA191     -0.1966
     71  CA         8.0970   -8.1350   21.9480 C.3   191  ALA191      0.1728
     72  C          8.3990   -9.5700   21.4940 C.2   191  ALA191      0.2616
     73  O          8.2830  -10.5190   22.2630 O.2   191  ALA191     -0.2715
     74  CB         9.3700   -7.2940   22.0240 C.3   191  ALA191      0.0334
     75  N          8.7080   -9.7110   20.2270 N.am  192  CYS192     -0.1954
     76  CA         9.0930  -11.0280   19.6830 C.3   192  CYS192      0.1843
     77  C         10.1220  -10.8490   18.5960 C.2   192  CYS192      0.2625
     78  O         10.6600   -9.7540   18.3290 O.2   192  CYS192     -0.2714
     79  CB         7.8340  -11.7390   19.2130 C.3   192  CYS192      0.0997
     80  SG         7.9290  -13.5390   19.0680 S.3   192  CYS192     -0.0797
     81  N         10.4010  -11.9390   17.8910 N.am  193  GLU193     -0.1977
     82  CA        11.3430  -11.8910   16.7750 C.3   193  GLU193      0.1602
     83  C         10.9430  -10.8440   15.7300 C.2   193  GLU193      0.2287
     84  O          9.8060  -10.8290   15.2590 O.2   193  GLU193     -0.2864
     85  CB        11.4660  -13.2680   16.1180 C.3   193  GLU193      0.0415
     86  CG        12.3980  -13.3010   14.9180 C.3   193  GLU193      0.1163
     87  CD        12.7300  -14.7130   14.4770 C.2   193  GLU193      0.3649
     88  OE1       12.2390  -15.1350   13.4090 O.co2 193  GLU193     -0.2457
     89  OE2       13.4820  -15.4020   15.1990 O.co2 193  GLU193     -0.2457
     90  N         13.0840   -6.6120   17.6370 N.3   196  SER196     -0.1217
     91  CA        14.4190   -6.1690   18.0070 C.3   196  SER196      0.1889
     92  C         14.7440   -4.7880   17.4600 C.2   196  SER196      0.2288
     93  O         14.5160   -4.4820   16.2910 O.2   196  SER196     -0.2866
     94  CB        15.4770   -7.1420   17.4410 C.3   196  SER196      0.2089
     95  OG        15.4810   -8.3750   18.1230 O.3   196  SER196     -0.2183
     96  N         14.2150   -2.5720   22.3440 N.3   216  VAL216     -0.1231
     97  CA        13.9130   -3.9940   22.3250 C.3   216  VAL216      0.1692
     98  C         15.1980   -4.7920   22.1740 C.2   216  VAL216      0.2593
     99  O         15.8430   -4.6310   21.1430 O.2   216  VAL216     -0.2718
    100  CB        12.9530   -4.3360   21.1990 C.3   216  VAL216      0.0266
    101  CG1       12.6140   -5.8240   21.2070 C.3   216  VAL216      0.0020
    102  CG2       11.6490   -3.5530   21.3360 C.3   216  VAL216      0.0020
    103  N         15.5090   -5.6210   23.1880 N.am  217  SER217     -0.1938
    104  CA        16.7860   -6.3140   23.1290 C.3   217  SER217      0.2055
    105  C         16.6220   -7.8290   23.1840 C.2   217  SER217      0.2643
    106  O         16.9710   -8.5060   22.2120 O.2   217  SER217     -0.2714
    107  CB        17.6720   -5.8520   24.2850 C.3   217  SER217      0.2130
    108  OG        18.9490   -6.4600   24.2920 O.3   217  SER217     -0.2179
    109  N         16.1460   -8.3890   24.2930 N.am  218  TRP218     -0.1959
    110  CA        16.0920   -9.8640   24.3350 C.3   218  TRP218      0.1771
    111  C         14.9970  -10.3860   25.2430 C.2   218  TRP218      0.2620
    112  O         14.4910   -9.7230   26.1430 O.2   218  TRP218     -0.2715
    113  CB        17.4920  -10.3850   24.6810 C.3   218  TRP218      0.0590
    114  CG        18.0230   -9.9940   26.0260 C.ar  218  TRP218      0.0006
    115  CD1       18.7080   -8.9020   26.4000 C.ar  218  TRP218      0.0946
    116  CD2       17.8460  -10.7900   27.2230 C.ar  218  TRP218      0.0152
    117  NE1       18.9940   -8.9430   27.7580 N.ar  218  TRP218     -0.2442
    118  CE2       18.4750  -10.0910   28.2600 C.ar  218  TRP218      0.0810
    119  CE3       17.2280  -12.0120   27.4910 C.ar  218  TRP218      0.0012
    120  CZ2       18.5260  -10.5580   29.5870 C.ar  218  TRP218      0.0191
    121  CZ3       17.2740  -12.4790   28.8070 C.ar  218  TRP218      0.0001
    122  CH2       17.9140  -11.7490   29.8220 C.ar  218  TRP218      0.0015
    123  N         14.5870  -11.6320   24.9610 N.am  219  GLY219     -0.1940
    124  CA        13.6340  -12.3410   25.7760 C.3   219  GLY219      0.2014
    125  C         13.7430  -13.8420   25.5310 C.2   219  GLY219      0.2639
    126  O         13.9840  -14.2560   24.4140 O.2   219  GLY219     -0.2714
    127  N         13.5820  -14.6200   26.5980 N.am  220  GLU220     -0.1963
    128  CA        13.5980  -16.0730   26.4280 C.3   220  GLU220      0.1733
    129  C         12.2730  -16.5410   25.8780 C.2   220  GLU220      0.2617
    130  O         11.2580  -16.6840   26.5560 O.2   220  GLU220     -0.2715
    131  CB        13.9710  -16.7400   27.7730 C.3   220  GLU220      0.0429
    132  CG        15.3380  -16.3160   28.2650 C.3   220  GLU220      0.1163
    133  CD        15.7670  -16.8360   29.6280 C.2   220  GLU220      0.3649
    134  OE1       15.7190  -18.0540   29.8730 O.co2 220  GLU220     -0.2457
    135  OE2       16.1850  -16.0170   30.4630 O.co2 220  GLU220     -0.2457
    136  N         12.2340  -16.7670   24.5660 N.am  221  GLY221     -0.1940
    137  CA        10.9250  -17.0630   23.9960 C.3   221  GLY221      0.2014
    138  C         10.2230  -15.7280   23.7280 C.2   221  GLY221      0.2639
    139  O         10.9140  -14.7020   23.7020 O.2   221  GLY221     -0.2714
    140  N          8.9110  -15.8130   23.5340 N.am  222  CYS222     -0.1967
    141  CA         8.1030  -14.6110   23.3800 C.3   222  CYS222      0.1712
    142  C          6.8440  -14.7680   24.2100 C.2   222  CYS222      0.2296
    143  O          6.1490  -15.7840   24.0820 O.2   222  CYS222     -0.2864
    144  CB         7.7420  -14.2600   21.9490 C.3   222  CYS222      0.0983
    145  SG         8.9880  -14.2110   20.6940 S.3   222  CYS222     -0.0798
    146  N          6.2570  -15.6110   27.2160 N.3   224  ARG224     -0.1245
    147  CA         6.2020  -16.7900   28.0570 C.3   224  ARG224      0.1563
    148  C          5.8480  -16.4100   29.4880 C.2   224  ARG224      0.2260
    149  O          6.3290  -15.4080   30.0210 O.2   224  ARG224     -0.2867
    150  CB         7.5520  -17.5250   28.0740 C.3   224  ARG224      0.0307
    151  CG         7.8950  -18.2310   26.7700 C.3   224  ARG224      0.0489
    152  CD         9.1530  -19.0710   26.9640 C.3   224  ARG224      0.2205
    153  NE         9.4420  -19.8480   25.7600 N.pl3 224  ARG224     -0.0865
    154  CZ        10.2000  -20.9210   25.6850 C.cat 224  ARG224      0.5346
    155  NH1       10.8090  -21.4190   26.7420 N.pl3 224  ARG224      0.1354
    156  NH2       10.3610  -21.5180   24.5200 N.pl3 224  ARG224      0.1354
    157  N          8.4430  -15.2180   32.2470 N.3   227  LYS227     -0.1245
    158  CA         9.6030  -14.6060   31.5950 C.3   227  LYS227      0.1561
    159  C          9.2720  -13.1380   31.3400 C.2   227  LYS227      0.2260
    160  O          8.1060  -12.7650   31.4210 O.2   227  LYS227     -0.2867
    161  CB         9.9660  -15.3170   30.2970 C.3   227  LYS227      0.0271
    162  CG        10.2040  -16.8110   30.4510 C.3   227  LYS227      0.0035
    163  CD        11.2610  -17.1270   31.5070 C.3   227  LYS227      0.0206
    164  CE        11.6800  -18.5880   31.3940 C.3   227  LYS227      0.1093
    165  NZ        12.2610  -19.1360   32.6520 N.3   227  LYS227     -0.1314
    166  N         10.4040   -9.3380   28.9490 N.3   229  GLY229     -0.1210
    167  CA        11.1700   -8.6770   27.9260 C.3   229  GLY229      0.1956
    168  C         12.2390   -7.7930   28.5250 C.2   229  GLY229      0.2612
    169  O         12.0630   -7.1010   29.5300 O.2   229  GLY229     -0.2717
    170  N         13.4400   -7.8180   27.9580 N.am  230  PHE230     -0.1962
    171  CA        14.5950   -7.0540   28.3520 C.3   230  PHE230      0.1771
    172  C         14.9420   -6.0170   27.2720 C.2   230  PHE230      0.2619
    173  O         15.0300   -6.2910   26.0730 O.2   230  PHE230     -0.2715
    174  CB        15.8250   -7.9250   28.6280 C.3   230  PHE230      0.0574
    175  CG        15.6760   -8.6860   29.9370 C.ar  230  PHE230     -0.0200
    176  CD1       14.9440   -9.8530   29.9740 C.ar  230  PHE230     -0.0042
    177  CD2       16.2340   -8.2230   31.1140 C.ar  230  PHE230     -0.0042
    178  CE1       14.7250  -10.5510   31.1590 C.ar  230  PHE230     -0.0003
    179  CE2       16.0550   -8.8980   32.3170 C.ar  230  PHE230     -0.0003
    180  CZ        15.2950  -10.0510   32.3220 C.ar  230  PHE230     -0.0000
    181  N         15.1590   -4.8070   27.7550 N.am  231  TYR231     -0.1974
    182  CA        15.3460   -3.6030   27.0020 C.3   231  TYR231      0.1639
    183  C         16.6480   -2.9030   27.3890 C.2   231  TYR231      0.2290
    184  O         16.9560   -2.7820   28.5840 O.2   231  TYR231     -0.2864
    185  CB        14.1320   -2.7130   27.2890 C.3   231  TYR231      0.0560
    186  CG        12.8350   -3.3840   26.9390 C.ar  231  TYR231     -0.0198
    187  CD1       12.1200   -4.2220   27.7790 C.ar  231  TYR231     -0.0009
    188  CD2       12.3400   -3.1460   25.6510 C.ar  231  TYR231     -0.0009
    189  CE1       10.9360   -4.8130   27.4050 C.ar  231  TYR231      0.0417
    190  CE2       11.1530   -3.7560   25.2900 C.ar  231  TYR231      0.0417
    191  CZ        10.4730   -4.5830   26.1510 C.ar  231  TYR231      0.1957
    192  OH         9.3000   -5.1390   25.6980 O.3   231  TYR231     -0.2866
@<TRIPOS>BOND
     1    26    25    2
     2    25    24    1
     3    88    87   ar
     4    24    27    1
     5    24    23    1
     6    27    28    1
     7    87    86    1
     8    87    89   ar
     9    86    85    1
    10    14    13    2
    11    11    12    1
    12    84    83    2
    13    28    30   ar
    14    28    29   ar
    15    33    30   ar
    16    33    35   ar
    17    13    12    1
    18     4     3    2
    19    83    82    1
    20    30    32   ar
    21    35    36   ar
    22    12    15    1
    23    85    82    1
    24    29    31   ar
    25    93    92    2
    26     3     2    1
    27    15    16    1
    28    82    81    1
    29    32    31   ar
    30    32    34   ar
    31    36    34   ar
    32    18    16   ar
    33    18    20   ar
    34    94    91    1
    35    94    95    1
    36    92    91    1
    37    16    17   ar
    38    90    91    1
    39     2     1    1
    40     2     5    1
    41    81    77   am
    42     8    10   ar
    43     8     6   ar
    44    48    47    2
    45    47    46    1
    46    78    77    2
    47    20    21   ar
    48    10     9   ar
    49    77    76    1
    50     5     6    1
    51    17    19   ar
    52     6     7   ar
    53    80    79    1
    54    80   145    1
    55    79    76    1
    56    45    46    1
    57    46    49    1
    58     9     7   ar
    59    76    75    1
    60    21    19   ar
    61    21    22    1
    62    75    72   am
    63   145   144    1
    64    49    50    1
    65    99    98    2
    66    50    51    1
    67   100   101    1
    68   100   102    1
    69   100    97    1
    70    72    71    1
    71    72    73    2
    72    71    74    1
    73    71    70    1
    74   144   141    1
    75    98    97    1
    76    98   103   am
    77    53    51   ar
    78   106   105    2
    79    97    96    1
    80    44    42    1
    81    51    52   ar
    82    65    64    2
    83    43    42    1
    84   104   105    1
    85   104   103    1
    86   104   107    1
    87   105   109   am
    88    70    64   am
    89    64    63    1
    90   141   140    1
    91   141   142    1
    92   140   138   am
    93    42    41    1
    94   139   138    2
    95   138   137    1
    96   137   136    1
    97   143   142    2
    98   107   108    1
    99   109   110    1
   100   110   113    1
   101   110   111    1
   102   126   125    2
   103    41    38    1
   104   156   154    1
   105   136   129   am
   106   113   114    1
   107    63    62    1
   108    63    66    1
   109   123   111   am
   110   123   124    1
   111    66    67    1
   112    38    37    1
   113    38    39    1
   114   111   112    2
   115   190   188   ar
   116   190   191   ar
   117    67    68   ar
   118    67    69   ar
   119   125   124    1
   120   125   127   am
   121    40    39    2
   122   188   186   ar
   123   154   153    2
   124   154   155    1
   125   192   191    1
   126   153   152    1
   127   129   128    1
   128   129   130    2
   129   114   115   ar
   130   114   116   ar
   131   173   172    2
   132   191   189   ar
   133   115   117   ar
   134   128   127    1
   135   128   131    1
   136   151   152    1
   137   151   150    1
   138   186   185    1
   139   186   187   ar
   140   182   185    1
   141   182   183    1
   142   182   181    1
   143   146   147    1
   144   116   119   ar
   145   116   118   ar
   146   172   181   am
   147   172   171    1
   148   183   184    2
   149   189   187   ar
   150   119   121   ar
   151   117   118   ar
   152   131   132    1
   153   167   168    1
   154   167   166    1
   155   170   171    1
   156   170   168   am
   157   147   150    1
   158   147   148    1
   159   118   120   ar
   160   132   133    1
   161   171   174    1
   162   168   169    2
   163   174   175    1
   164   121   122   ar
   165   148   149    2
   166    61    59    1
   167   120   122   ar
   168   133   134   ar
   169   133   135   ar
   170   175   176   ar
   171   175   177   ar
   172   176   178   ar
   173    59    58    1
   174   161   162    1
   175   161   158    1
   176   162   163    1
   177    60    58    1
   178   177   179   ar
   179    58    55    1
   180   178   180   ar
   181   159   160    2
   182   159   158    1
   183   164   163    1
   184   164   165    1
   185   158   157    1
   186   179   180   ar
   187    55    54    1
   188    55    56    1
   189    56    57    2
