@<TRIPOS>MOLECULE
tmp/3eq0B00.pdb
 164 157 0 0 0
SMALL
GASTEIGER

@<TRIPOS>ATOM
      1  N         11.7680    1.0320   10.1970 N.3    17  MET17      -0.1245
      2  CA        11.9370   -0.3600    9.8180 C.3    17  MET17       0.1570
      3  C         13.3350   -0.5160    9.2190 C.2    17  MET17       0.2261
      4  O         13.6410    0.2060    8.2960 O.2    17  MET17      -0.2867
      5  CB        10.9280   -0.8200    8.7620 C.3    17  MET17       0.0387
      6  CG        11.0810   -2.2900    8.3560 C.3    17  MET17       0.0595
      7  SD         9.9020   -2.7590    7.0510 S.3    17  MET17      -0.1393
      8  CE         8.3930   -2.6620    7.9870 C.3    17  MET17       0.0692
      9  N         15.5270   -2.4840    6.8790 N.3    19  PHE19      -0.1241
     10  CA        15.1560   -3.3300    5.7420 C.3    19  PHE19       0.1605
     11  C         16.3490   -3.9170    5.0120 C.2    19  PHE19       0.2264
     12  O         17.3170   -3.2110    4.7220 O.2    19  PHE19      -0.2867
     13  CB        14.3490   -2.4610    4.7770 C.3    19  PHE19       0.0534
     14  CG        13.6440   -3.2500    3.6880 C.ar   19  PHE19      -0.0203
     15  CD1       14.1060   -3.1240    2.3800 C.ar   19  PHE19      -0.0042
     16  CD2       12.5740   -4.0780    3.9480 C.ar   19  PHE19      -0.0042
     17  CE1       13.4830   -3.8440    1.3750 C.ar   19  PHE19      -0.0003
     18  CE2       11.9490   -4.7960    2.9550 C.ar   19  PHE19      -0.0003
     19  CZ        12.3980   -4.6550    1.6610 C.ar   19  PHE19      -0.0000
     20  N         18.1680   -5.2960    1.8230 N.3    21  LYS21      -0.1245
     21  CA        18.1550   -4.9320    0.4040 C.3    21  LYS21       0.1561
     22  C         18.0350   -6.1740   -0.4870 C.2    21  LYS21       0.2260
     23  O         17.4530   -6.0550   -1.5710 O.2    21  LYS21      -0.2867
     24  CB        19.4000   -4.1760   -0.0380 C.3    21  LYS21       0.0271
     25  CG        19.5290   -2.6890    0.1790 C.3    21  LYS21       0.0035
     26  CD        20.6880   -2.0990   -0.6120 C.3    21  LYS21       0.0206
     27  CE        21.1760   -0.7730   -0.0700 C.3    21  LYS21       0.1093
     28  NZ        22.4600   -0.2940   -0.6370 N.3    21  LYS21      -0.1314
     29  N         18.0820  -10.6930    0.3760 N.3    23  PRO23      -0.2102
     30  CA        16.6750  -10.7630    0.0210 C.3    23  PRO23       0.1504
     31  C         15.8530   -9.6650    0.7030 C.2    23  PRO23       0.2576
     32  O         16.0460   -9.4100    1.8890 O.2    23  PRO23      -0.2718
     33  CB        16.1960  -12.0890    0.6130 C.3    23  PRO23       0.0282
     34  CG        17.4120  -12.8520    0.9620 C.3    23  PRO23       0.0208
     35  CD        18.5050  -11.8570    1.1850 C.3    23  PRO23       0.0893
     36  N         14.9490   -9.0330   -0.0310 N.am   24  GLN24      -0.1966
     37  CA        14.1640   -7.9580    0.5800 C.3    24  GLN24       0.1733
     38  C         13.3720   -8.5190    1.7450 C.2    24  GLN24       0.2616
     39  O         12.4860   -9.3570    1.5980 O.2    24  GLN24      -0.2715
     40  CB        13.2690   -7.2770   -0.4580 C.3    24  GLN24       0.0408
     41  CG        14.0050   -6.2020   -1.2460 C.3    24  GLN24       0.0908
     42  CD        13.1630   -5.4480   -2.2500 C.2    24  GLN24       0.2608
     43  OE1       13.7090   -4.6660   -3.0340 O.2    24  GLN24      -0.2717
     44  NE2       11.8500   -5.6390   -2.2650 N.am   24  GLN24      -0.0878
     45  N         13.7120   -8.0460    2.9460 N.am   25  GLU25      -0.1963
     46  CA        12.9170   -8.4570    4.0950 C.3    25  GLU25       0.1733
     47  C         13.1400   -7.5460    5.3190 C.2    25  GLU25       0.2616
     48  O         14.1100   -6.7960    5.3320 O.2    25  GLU25      -0.2715
     49  CB        13.2560   -9.9020    4.4440 C.3    25  GLU25       0.0429
     50  CG        14.7180  -10.2330    4.6910 C.3    25  GLU25       0.1163
     51  CD        14.9660  -11.7280    4.5530 C.2    25  GLU25       0.3649
     52  OE1       14.2490  -12.3920    3.7720 O.co2  25  GLU25      -0.2457
     53  OE2       15.8740  -12.2580    5.2240 O.co2  25  GLU25      -0.2457
     54  N         12.2410   -7.6910    6.2670 N.am   26  LEU26      -0.1977
     55  CA        12.3830   -7.0610    7.5720 C.3    26  LEU26       0.1596
     56  C         13.5760   -7.6350    8.3250 C.2    26  LEU26       0.2287
     57  O         13.7350   -8.8440    8.4900 O.2    26  LEU26      -0.2864
     58  CB        11.1580   -7.2750    8.4540 C.3    26  LEU26       0.0297
     59  CG        11.4070   -6.8330    9.9140 C.3    26  LEU26       0.0022
     60  CD1       10.5900   -5.5950   10.2050 C.3    26  LEU26       0.0001
     61  CD2       11.0660   -7.9470   10.8810 C.3    26  LEU26       0.0001
     62  N         18.6890   -0.6420    4.1630 N.3    60  LEU60      -0.1245
     63  CA        17.8580    0.5290    4.0280 C.3    60  LEU60       0.1561
     64  C         17.0510    0.8060    5.3160 C.2    60  LEU60       0.2260
     65  O         16.7360   -0.1600    6.0200 O.2    60  LEU60      -0.2867
     66  CB        16.8870    0.3520    2.8640 C.3    60  LEU60       0.0270
     67  CG        17.4970    0.1920    1.4630 C.3    60  LEU60       0.0019
     68  CD1       16.4740   -0.3820    0.5000 C.3    60  LEU60       0.0001
     69  CD2       18.0080    1.5110    0.9290 C.3    60  LEU60       0.0001
     70  N         13.4490    2.4810    6.3820 N.3    62  ARG62      -0.1245
     71  CA        12.0950    2.8220    5.9540 C.3    62  ARG62       0.1563
     72  C         11.3350    3.5190    7.1130 C.2    62  ARG62       0.2260
     73  O         11.0560    2.8690    8.1320 O.2    62  ARG62      -0.2867
     74  CB        11.3250    1.6200    5.4080 C.3    62  ARG62       0.0307
     75  CG        12.0610    0.9020    4.2720 C.3    62  ARG62       0.0489
     76  CD        11.3370   -0.3070    3.7630 C.3    62  ARG62       0.2205
     77  NE        10.0510   -0.0360    3.0800 N.pl3  62  ARG62      -0.0865
     78  CZ         9.3480   -0.9910    2.4980 C.cat  62  ARG62       0.5346
     79  NH1        9.7450   -2.2650    2.4750 N.pl3  62  ARG62       0.1354
     80  NH2        8.2020   -0.6590    1.9150 N.pl3  62  ARG62       0.1354
     81  N          3.1820   -3.5630    7.1300 N.3    68  ARG68      -0.1231
     82  CA         4.4770   -4.2690    7.1670 C.3    68  ARG68       0.1694
     83  C          5.0560   -4.4320    5.7740 C.2    68  ARG68       0.2593
     84  O          6.2100   -4.0720    5.4850 O.2    68  ARG68      -0.2718
     85  CB         4.2660   -5.6020    7.8910 C.3    68  ARG68       0.0321
     86  CG         5.5710   -6.3910    8.0010 C.3    68  ARG68       0.0489
     87  CD         5.3890   -7.6600    8.8160 C.3    68  ARG68       0.2205
     88  NE         4.4670   -8.5550    8.1300 N.pl3  68  ARG68      -0.0865
     89  CZ         4.7590   -9.4190    7.1710 C.cat  68  ARG68       0.5346
     90  NH1        3.8070  -10.1770    6.6250 N.pl3  68  ARG68       0.1354
     91  NH2        6.0010   -9.5240    6.7480 N.pl3  68  ARG68       0.1354
     92  N          4.2450   -4.9770    4.8500 N.am   69  THR69      -0.1939
     93  CA         4.8030   -5.4140    3.5700 C.3    69  THR69       0.2028
     94  C          4.6590   -4.4330    2.4180 C.2    69  THR69       0.2642
     95  O          5.4610   -4.4460    1.4680 O.2    69  THR69      -0.2714
     96  CB         4.2000   -6.7590    3.1190 C.3    69  THR69       0.1808
     97  OG1        2.7890   -6.7430    3.0720 O.3    69  THR69      -0.2208
     98  CG2        4.5910   -7.8190    4.1570 C.3    69  THR69       0.0379
     99  N          3.6640   -3.5560    2.4630 N.am   70  ARG70      -0.1963
    100  CA         3.4320   -2.6850    1.3130 C.3    70  ARG70       0.1729
    101  C          4.4020   -1.5360    1.1540 C.2    70  ARG70       0.2616
    102  O          4.9840   -0.9670    2.0910 O.2    70  ARG70      -0.2715
    103  CB         2.0070   -2.1270    1.3810 C.3    70  ARG70       0.0348
    104  CG         1.0160   -3.2650    1.0570 C.3    70  ARG70       0.0492
    105  CD        -0.3390   -2.6760    0.7400 C.3    70  ARG70       0.2205
    106  NE        -0.5560   -1.8560    1.9490 N.pl3  70  ARG70      -0.0865
    107  CZ        -1.6980   -1.2720    2.2660 C.cat  70  ARG70       0.5346
    108  NH1       -2.7810   -1.4270    1.4930 N.pl3  70  ARG70       0.1354
    109  NH2       -1.7090   -0.4620    3.3140 N.pl3  70  ARG70       0.1354
    110  N          4.6030   -1.1190   -0.1010 N.am   71  TYR71      -0.1974
    111  CA         5.2680    0.1420   -0.3570 C.3    71  TYR71       0.1639
    112  C          4.2340    1.2660   -0.2110 C.2    71  TYR71       0.2290
    113  O          3.3140    1.3550   -1.0260 O.2    71  TYR71      -0.2864
    114  CB         5.9520    0.1890   -1.7450 C.3    71  TYR71       0.0560
    115  CG         6.6010    1.5380   -1.9900 C.ar   71  TYR71      -0.0198
    116  CD1        7.6510    1.9890   -1.2110 C.ar   71  TYR71      -0.0009
    117  CD2        6.1490    2.3820   -3.0070 C.ar   71  TYR71      -0.0009
    118  CE1        8.2820    3.2020   -1.3820 C.ar   71  TYR71       0.0417
    119  CE2        6.7670    3.6060   -3.1810 C.ar   71  TYR71       0.0417
    120  CZ         7.8010    4.0260   -2.3970 C.ar   71  TYR71       0.1957
    121  OH         8.4070    5.2350   -2.5940 O.3    71  TYR71      -0.2866
    122  N          5.6930    6.7670    3.2630 N.3    76  GLU76      -0.1231
    123  CA         7.0260    6.4250    3.7810 C.3    76  GLU76       0.1699
    124  C          8.1000    7.0750    2.9320 C.2    76  GLU76       0.2592
    125  O          7.9700    7.5430    1.7940 O.2    76  GLU76      -0.2718
    126  CB         7.1970    4.9090    3.8880 C.3    76  GLU76       0.0402
    127  CG         7.2630    4.1800    2.5620 C.3    76  GLU76       0.1161
    128  CD         7.7360    2.7480    2.6280 C.2    76  GLU76       0.3649
    129  OE1        8.9680    2.5500    2.8410 O.co2  76  GLU76      -0.2457
    130  OE2        6.8540    1.9010    2.4870 O.co2  76  GLU76      -0.2457
    131  N          9.2600    7.1290    3.5750 N.am   77  LYS77      -0.1966
    132  CA        10.4980    7.5840    3.0030 C.3    77  LYS77       0.1728
    133  C         11.5860    6.5400    3.2620 C.2    77  LYS77       0.2616
    134  O         11.6520    6.0220    4.3740 O.2    77  LYS77      -0.2715
    135  CB        10.9000    8.9500    3.5520 C.3    77  LYS77       0.0311
    136  CG         9.8390   10.0050    3.2500 C.3    77  LYS77       0.0038
    137  CD         9.7560   10.3890    1.7940 C.3    77  LYS77       0.0206
    138  CE         8.9670   11.6780    1.6230 C.3    77  LYS77       0.1093
    139  NZ         7.8130   11.4780    0.6990 N.3    77  LYS77      -0.1314
    140  N         12.3970    6.2640    2.2450 N.am   78  ILE78      -0.1977
    141  CA        13.4050    5.2100    2.2890 C.3    78  ILE78       0.1596
    142  C         14.7780    5.8360    2.2230 C.2    78  ILE78       0.2287
    143  O         15.1500    6.6270    1.3600 O.2    78  ILE78      -0.2864
    144  CB        13.1940    4.1580    1.1770 C.3    78  ILE78       0.0276
    145  CG1       11.7760    3.6280    1.0810 C.3    78  ILE78       0.0022
    146  CG2       14.1980    3.0220    1.3630 C.3    78  ILE78       0.0022
    147  CD1       11.5000    2.2200    0.6390 C.3    78  ILE78       0.0001
    148  N         19.1570    5.7080    2.8120 N.3    80  MET80      -0.1245
    149  CA        20.3560    4.8720    2.7880 C.3    80  MET80       0.1570
    150  C         21.2340    5.2300    3.9720 C.2    80  MET80       0.2261
    151  O         21.2260    6.3380    4.5050 O.2    80  MET80      -0.2867
    152  CB        21.1420    5.0040    1.4890 C.3    80  MET80       0.0387
    153  CG        20.3080    4.6890    0.2540 C.3    80  MET80       0.0595
    154  SD        21.2860    4.8610   -1.2670 S.3    80  MET80      -0.1393
    155  CE        22.0190    6.4530   -0.9990 C.3    80  MET80       0.0692
    156  N         21.2570   11.3480    3.8430 N.3   107  LYS107     -0.1245
    157  CA        20.5800   12.6230    3.7470 C.3   107  LYS107      0.1561
    158  C         19.5390   12.7910    4.8660 C.2   107  LYS107      0.2260
    159  O         18.9240   11.7800    5.1960 O.2   107  LYS107     -0.2867
    160  CB        19.8500   12.7950    2.4280 C.3   107  LYS107      0.0271
    161  CG        18.6930   11.9240    2.2370 C.3   107  LYS107      0.0035
    162  CD        18.1150   12.0870    0.8180 C.3   107  LYS107      0.0206
    163  CE        16.8510   11.4150    0.4550 C.3   107  LYS107      0.1093
    164  NZ        16.7430   10.0280    0.7830 N.3   107  LYS107     -0.1314
@<TRIPOS>BOND
     1   119   117   ar
     2   119   120   ar
     3    43    42    2
     4   117   115   ar
     5   121   120    1
     6   120   118   ar
     7    44    42   am
     8    42    41    1
     9   115   114    1
    10   115   116   ar
    11   114   111    1
    12    23    22    2
    13   118   116   ar
    14   154   155    1
    15   154   153    1
    16    41    40    1
    17   113   112    2
    18    28    27    1
    19    26    27    1
    20    26    25    1
    21    22    21    1
    22    40    37    1
    23   111   112    1
    24   111   110    1
    25   110   101   am
    26    24    25    1
    27    24    21    1
    28    36    37    1
    29    36    31   am
    30    30    29    1
    31    30    33    1
    32    30    31    1
    33   153   152    1
    34    29    35    1
    35    21    20    1
    36   163   164    1
    37   163   162    1
    38    68    67    1
    39    37    38    1
    40    33    34    1
    41   147   145    1
    42   139   138    1
    43    31    32    2
    44   105   104    1
    45   105   106    1
    46   162   161    1
    47    69    67    1
    48    34    35    1
    49   104   103    1
    50   145   144    1
    51   101   100    1
    52   101   102    2
    53   144   146    1
    54   144   141    1
    55   100   103    1
    56   100    99    1
    57   143   142    2
    58    17    19   ar
    59    17    15   ar
    60    67    66    1
    61    95    94    2
    62   152   149    1
    63   108   107    1
    64    39    38    2
    65   138   137    1
    66    19    18   ar
    67    38    45   am
    68   137   136    1
    69   125   124    2
    70    80    78    1
    71   106   107    2
    72   142   141    1
    73   161   160    1
    74   140   141    1
    75   140   133   am
    76   107   109    1
    77    15    14   ar
    78    94    99   am
    79    94    93    1
    80   160   157    1
    81    79    78    1
    82   130   128   ar
    83    78    77    2
    84   127   128    1
    85   127   126    1
    86   128   129   ar
    87   149   148    1
    88   149   150    1
    89    66    63    1
    90   124   131   am
    91   124   123    1
    92    45    46    1
    93    18    16   ar
    94   132   133    1
    95   132   135    1
    96   132   131    1
    97    97    96    1
    98    77    76    1
    99    96    93    1
   100    96    98    1
   101   136   135    1
   102   133   134    2
   103   122   123    1
   104    93    92    1
   105    14    16   ar
   106    14    13    1
   107   157   156    1
   108   157   158    1
   109    76    75    1
   110    52    51   ar
   111   123   126    1
   112   150   151    2
   113    63    62    1
   114    63    64    1
   115    46    49    1
   116    46    47    1
   117    75    74    1
   118    49    50    1
   119    51    50    1
   120    51    53   ar
   121    12    11    2
   122    13    10    1
   123    92    83   am
   124   158   159    2
   125    11    10    1
   126    64    65    2
   127    47    48    2
   128    47    54   am
   129    74    71    1
   130    84    83    2
   131    10     9    1
   132    83    82    1
   133    71    70    1
   134    71    72    1
   135    54    55    1
   136    90    89    1
   137    91    89    1
   138     7     8    1
   139     7     6    1
   140    72    73    2
   141    81    82    1
   142    82    85    1
   143    89    88    2
   144    55    56    1
   145    55    58    1
   146    85    86    1
   147    86    87    1
   148    88    87    1
   149     4     3    2
   150    56    57    2
   151     6     5    1
   152    58    59    1
   153     5     2    1
   154     3     2    1
   155     2     1    1
   156    59    60    1
   157    59    61    1
