@<TRIPOS>MOLECULE
tmp/3eq6A00.pdb
 142 134 0 0 0
SMALL
GASTEIGER

@<TRIPOS>ATOM
      1  N        -12.2780   19.8210   -8.1110 N.3   230  ILE230     -0.1245
      2  CA       -12.2880   19.2510   -6.7750 C.3   230  ILE230      0.1561
      3  C        -11.0450   19.6250   -5.9760 C.2   230  ILE230      0.2260
      4  O        -11.0940   19.6300   -4.7450 O.2   230  ILE230     -0.2867
      5  CB       -12.4530   17.7170   -6.8130 C.3   230  ILE230      0.0252
      6  CG1      -12.9290   17.2010   -5.4510 C.3   230  ILE230      0.0019
      7  CG2      -11.1400   17.0380   -7.3530 C.3   230  ILE230      0.0019
      8  CD1      -13.5380   15.7650   -5.4890 C.3   230  ILE230      0.0001
      9  N         -0.6800   18.0050   -7.7150 N.3   301  VAL301     -0.1231
     10  CA        -1.5630   16.9070   -8.1210 C.3   301  VAL301      0.1692
     11  C         -2.0770   17.2080   -9.5270 C.2   301  VAL301      0.2593
     12  O         -1.9260   18.3120   -9.9980 O.2   301  VAL301     -0.2718
     13  CB        -2.7270   16.7120   -7.1140 C.3   301  VAL301      0.0266
     14  CG1       -3.7380   17.8060   -7.2580 C.3   301  VAL301      0.0020
     15  CG2       -3.4080   15.3280   -7.2880 C.3   301  VAL301      0.0020
     16  N         -2.6190   16.2210  -10.2310 N.am  302  GLY302     -0.1942
     17  CA        -3.3110   16.4550  -11.5200 C.3   302  GLY302      0.2014
     18  C         -2.6390   15.9120  -12.7770 C.2   302  GLY302      0.2639
     19  O         -3.2900   15.6510  -13.8000 O.2   302  GLY302     -0.2714
     20  N         -1.3370   15.6660  -12.6710 N.am  303  GLU303     -0.1963
     21  CA        -0.5020   15.3450  -13.8170 C.3   303  GLU303      0.1733
     22  C          0.7050   14.6490  -13.2450 C.2   303  GLU303      0.2617
     23  O          1.0770   14.9050  -12.1160 O.2   303  GLU303     -0.2715
     24  CB        -0.0170   16.6670  -14.4450 C.3   303  GLU303      0.0429
     25  CG        -0.5320   17.1160  -15.7640 C.3   303  GLU303      0.1163
     26  CD        -0.0240   18.5530  -16.1060 C.2   303  GLU303      0.3649
     27  OE1       -0.2280   19.5360  -15.3110 O.co2 303  GLU303     -0.2457
     28  OE2        0.6010   18.6870  -17.1780 O.co2 303  GLU303     -0.2457
     29  N          1.3600   13.8340  -14.0300 N.am  304  SER304     -0.1950
     30  CA         2.6700   13.3400  -13.6230 C.3   304  SER304      0.1924
     31  C          3.7150   14.4540  -13.3680 C.2   304  SER304      0.2314
     32  O          3.9270   15.3340  -14.2040 O.2   304  SER304     -0.2863
     33  CB         3.1910   12.3800  -14.6690 C.3   304  SER304      0.2116
     34  OG         3.3390   11.1310  -14.0760 O.3   304  SER304     -0.2180
     35  N          4.6770   15.1140   -4.6610 N.3   323  GLU323     -0.1231
     36  CA         3.5860   14.7750   -5.5270 C.3   323  GLU323      0.1699
     37  C          2.4490   14.0890   -4.7560 C.2   323  GLU323      0.2593
     38  O          2.6660   13.4650   -3.7040 O.2   323  GLU323     -0.2718
     39  CB         4.1130   13.8560   -6.6440 C.3   323  GLU323      0.0402
     40  CG         3.1650   13.6210   -7.8120 C.3   323  GLU323      0.1161
     41  CD         3.8130   12.8220   -8.9490 C.2   323  GLU323      0.3649
     42  OE1        4.9760   12.3960   -8.7720 O.co2 323  GLU323     -0.2457
     43  OE2        3.1350   12.6450  -10.0130 O.co2 323  GLU323     -0.2457
     44  N          1.2470   14.2380   -5.2960 N.am  324  SER324     -0.1938
     45  CA         0.1000   13.4300   -4.9410 C.3   324  SER324      0.2055
     46  C         -0.7090   13.1170   -6.1770 C.2   324  SER324      0.2643
     47  O         -0.5250   13.7430   -7.2090 O.2   324  SER324     -0.2714
     48  CB        -0.7750   14.1830   -3.9620 C.3   324  SER324      0.2130
     49  OG        -1.1450   15.4420   -4.4940 O.3   324  SER324     -0.2179
     50  N         -1.6250   12.1590   -6.0310 N.am  325  TYR325     -0.1959
     51  CA        -2.3770   11.5500   -7.1200 C.3   325  TYR325      0.1771
     52  C         -3.8130   11.2750   -6.6560 C.2   325  TYR325      0.2620
     53  O         -4.0640   10.8380   -5.5280 O.2   325  TYR325     -0.2715
     54  CB        -1.7060   10.2100   -7.4790 C.3   325  TYR325      0.0574
     55  CG        -2.5620    9.2390   -8.2860 C.ar  325  TYR325     -0.0198
     56  CD1       -2.7830    9.4280   -9.6370 C.ar  325  TYR325     -0.0009
     57  CD2       -3.1190    8.1220   -7.6920 C.ar  325  TYR325     -0.0009
     58  CE1       -3.5220    8.5220  -10.3860 C.ar  325  TYR325      0.0417
     59  CE2       -3.8720    7.2030   -8.4300 C.ar  325  TYR325      0.0417
     60  CZ        -4.0780    7.4260   -9.7660 C.ar  325  TYR325      0.1957
     61  OH        -4.8280    6.5360  -10.4700 O.3   325  TYR325     -0.2866
     62  N         -4.7530   11.4930   -7.5460 N.am  326  GLY326     -0.1940
     63  CA        -6.1520   11.2500   -7.2230 C.3   326  GLY326      0.2014
     64  C         -7.0350   11.5710   -8.3900 C.2   326  GLY326      0.2639
     65  O         -6.5580   11.9950   -9.4360 O.2   326  GLY326     -0.2714
     66  N         -8.3280   11.3640   -8.2230 N.am  327  GLN327     -0.1963
     67  CA        -9.2590   11.8050   -9.2370 C.3   327  GLN327      0.1733
     68  C        -10.5040   12.3490   -8.5160 C.2   327  GLN327      0.2617
     69  O        -10.6440   12.1880   -7.3250 O.2   327  GLN327     -0.2715
     70  CB        -9.5910   10.6380  -10.1780 C.3   327  GLN327      0.0408
     71  CG       -10.3700    9.5390   -9.4830 C.3   327  GLN327      0.0908
     72  CD       -10.7290    8.3350  -10.3540 C.2   327  GLN327      0.2608
     73  OE1      -11.6010    7.5580   -9.9710 O.2   327  GLN327     -0.2717
     74  NE2      -10.0440    8.1590  -11.4950 N.am  327  GLN327     -0.0878
     75  N        -11.4070   12.9510   -9.2590 N.am  328  THR328     -0.1951
     76  CA       -12.6750   13.4960   -8.7150 C.3   328  THR328      0.1897
     77  C        -13.3930   12.4880   -7.8030 C.2   328  THR328      0.2313
     78  O        -13.8250   12.8300   -6.7310 O.2   328  THR328     -0.2863
     79  CB       -13.6140   13.9180   -9.8980 C.3   328  THR328      0.1794
     80  OG1      -12.9160   14.8460  -10.7450 O.3   328  THR328     -0.2208
     81  CG2      -14.8600   14.5620   -9.4530 C.3   328  THR328      0.0378
     82  N          4.5290    8.7710   -7.4110 N.3   347  MET347     -0.1245
     83  CA         3.5430    9.6940   -6.7950 C.3   347  MET347      0.1570
     84  C          3.1620    9.3770   -5.3370 C.2   347  MET347      0.2261
     85  O          2.1620    9.8620   -4.7870 O.2   347  MET347     -0.2867
     86  CB         2.3330    9.8160   -7.6850 C.3   347  MET347      0.0387
     87  CG         1.5070    8.5560   -7.8350 C.3   347  MET347      0.0595
     88  SD         0.6890    8.6350   -9.4530 S.3   347  MET347     -0.1393
     89  CE        -0.2590    7.0850   -9.4230 C.3   347  MET347      0.0692
     90  N         -6.3320    4.2040  -14.2690 N.3   410  ASP410     -0.1239
     91  CA        -4.9130    4.4170  -14.5970 C.3   410  ASP410      0.1674
     92  C         -4.1450    3.1230  -14.4160 C.2   410  ASP410      0.2266
     93  O         -4.4400    2.3600  -13.4990 O.2   410  ASP410     -0.2867
     94  CB        -4.3050    5.4650  -13.6570 C.3   410  ASP410      0.1410
     95  CG        -5.0390    6.7740  -13.6660 C.2   410  ASP410      0.3668
     96  OD1       -5.2720    7.3370  -14.7460 O.co2 410  ASP410     -0.2456
     97  OD2       -5.3530    7.2500  -12.5830 O.co2 410  ASP410     -0.2456
     98  N          2.8900    5.9460  -11.8800 N.3   422  PHE422     -0.1241
     99  CA         1.8410    6.0540  -12.8650 C.3   422  PHE422      0.1605
    100  C          2.3680    5.5760  -14.1800 C.2   422  PHE422      0.2264
    101  O          3.4200    6.0210  -14.5750 O.2   422  PHE422     -0.2867
    102  CB         1.4280    7.5310  -12.9700 C.3   422  PHE422      0.0534
    103  CG         0.4640    7.8300  -14.0650 C.ar  422  PHE422     -0.0203
    104  CD1       -0.8950    7.6420  -13.8640 C.ar  422  PHE422     -0.0042
    105  CD2        0.9070    8.3050  -15.2830 C.ar  422  PHE422     -0.0042
    106  CE1       -1.8000    7.9240  -14.8530 C.ar  422  PHE422     -0.0003
    107  CE2        0.0070    8.5980  -16.2880 C.ar  422  PHE422     -0.0003
    108  CZ        -1.3550    8.4010  -16.0750 C.ar  422  PHE422     -0.0000
    109  N         -3.0040    6.3110  -18.5260 N.3   425  ARG425     -0.1245
    110  CA        -4.4320    6.1010  -18.6000 C.3   425  ARG425      0.1563
    111  C         -4.7290    4.8790  -19.4030 C.2   425  ARG425      0.2260
    112  O         -4.2280    4.6960  -20.5100 O.2   425  ARG425     -0.2867
    113  CB        -5.1350    7.2170  -19.3830 C.3   425  ARG425      0.0307
    114  CG        -5.8760    8.2470  -18.6540 C.3   425  ARG425      0.0489
    115  CD        -6.6080    7.8160  -17.4330 C.3   425  ARG425      0.2205
    116  NE        -8.0090    7.4860  -17.6070 N.pl3 425  ARG425     -0.0865
    117  CZ        -8.8000    7.2240  -16.5720 C.cat 425  ARG425      0.5346
    118  NH1       -8.3070    7.3360  -15.3310 N.pl3 425  ARG425      0.1354
    119  NH2      -10.0670    6.8840  -16.7450 N.pl3 425  ARG425      0.1354
    120  N         -5.5550   13.7180  -20.7500 N.3   431  ASN431     -0.1240
    121  CA        -5.0590   14.6020  -19.6680 C.3   431  ASN431      0.1653
    122  C         -4.1580   15.6420  -20.2880 C.2   431  ASN431      0.2266
    123  O         -3.0700   15.3530  -20.7330 O.2   431  ASN431     -0.2867
    124  CB        -4.2530   13.8760  -18.5660 C.3   431  ASN431      0.1155
    125  CG        -3.7570   14.8630  -17.3760 C.2   431  ASN431      0.2627
    126  OD1       -3.7180   16.0960  -17.5210 O.2   431  ASN431     -0.2716
    127  ND2       -3.4400   14.2800  -16.1980 N.am  431  ASN431     -0.0877
    128  N         -3.2920   18.9450  -16.8030 N.3   434  GLY434     -0.1225
    129  CA        -4.0540   18.7270  -15.5980 C.3   434  GLY434      0.1811
    130  C         -5.5320   18.7820  -15.8270 C.2   434  GLY434      0.2280
    131  O         -6.2570   18.7070  -14.8920 O.2   434  GLY434     -0.2866
    132  N         -9.0130   16.9000  -17.3230 N.3   436  ARG436     -0.1245
    133  CA        -9.5230   15.5780  -17.6710 C.3   436  ARG436      0.1563
    134  C        -10.5610   15.8110  -18.7600 C.2   436  ARG436      0.2260
    135  O        -11.6000   16.3990  -18.5020 O.2   436  ARG436     -0.2867
    136  CB       -10.1520   14.9550  -16.4350 C.3   436  ARG436      0.0307
    137  CG       -10.6730   13.5770  -16.5840 C.3   436  ARG436      0.0489
    138  CD       -11.1450   13.0760  -15.2010 C.3   436  ARG436      0.2205
    139  NE       -12.1680   12.0570  -15.2910 N.pl3 436  ARG436     -0.0865
    140  CZ       -12.5910   11.3050  -14.2780 C.cat 436  ARG436      0.5346
    141  NH1      -12.0860   11.4700  -13.0680 N.pl3 436  ARG436      0.1354
    142  NH2      -13.5700   10.4150  -14.4770 N.pl3 436  ARG436      0.1354
@<TRIPOS>BOND
     1   120   121    1
     2   123   122    2
     3   112   111    2
     4   122   121    1
     5   121   124    1
     6   111   110    1
     7   113   114    1
     8   113   110    1
     9   134   135    2
    10   134   133    1
    11   114   115    1
    12   110   109    1
    13   124   125    1
    14   133   132    1
    15   133   136    1
    16   116   115    1
    17   116   117    2
    18   126   125    2
    19   125   127   am
    20    28    26   ar
    21   128   129    1
    22   119   117    1
    23   137   136    1
    24   137   138    1
    25   117   118    1
    26   107   108   ar
    27   107   105   ar
    28    26    25    1
    29    26    27   ar
    30   108   106   ar
    31   130   129    1
    32   130   131    2
    33    25    24    1
    34   139   138    1
    35   139   140    2
    36   105   103   ar
    37   106   104   ar
    38    96    95   ar
    39    33    34    1
    40    33    30    1
    41    91    92    1
    42    91    90    1
    43    91    94    1
    44   101   100    2
    45   142   140    1
    46    24    21    1
    47    92    93    2
    48   140   141    1
    49    32    31    2
    50   100    99    1
    51   103   104   ar
    52   103   102    1
    53    29    30    1
    54    29    22   am
    55    21    22    1
    56    21    20    1
    57    19    18    2
    58    95    94    1
    59    95    97   ar
    60    30    31    1
    61    22    23    2
    62   102    99    1
    63    99    98    1
    64    18    20   am
    65    18    17    1
    66    17    16    1
    67    74    72   am
    68    80    79    1
    69    61    60    1
    70    58    60   ar
    71    58    56   ar
    72    72    73    2
    73    72    71    1
    74    16    11   am
    75    70    71    1
    76    70    67    1
    77    43    41   ar
    78    12    11    2
    79    79    81    1
    80    79    76    1
    81    60    59   ar
    82    56    55   ar
    83    11    10    1
    84    88    89    1
    85    88    87    1
    86    65    64    2
    87    75    76    1
    88    75    68   am
    89    67    68    1
    90    67    66    1
    91    41    42   ar
    92    41    40    1
    93    76    77    1
    94    68    69    2
    95    59    57   ar
    96    64    66   am
    97    64    63    1
    98    55    57   ar
    99    55    54    1
   100    10     9    1
   101    10    13    1
   102     1     2    1
   103    87    86    1
   104    40    39    1
   105    77    78    2
   106    86    83    1
   107    62    63    1
   108    62    52   am
   109    54    51    1
   110    82    83    1
   111     7     5    1
   112    15    13    1
   113    14    13    1
   114    47    46    2
   115    51    52    1
   116    51    50    1
   117     5     2    1
   118     5     6    1
   119    83    84    1
   120     2     3    1
   121    52    53    2
   122    39    36    1
   123    46    50   am
   124    46    45    1
   125     3     4    2
   126    36    37    1
   127    36    35    1
   128     8     6    1
   129    84    85    2
   130    44    45    1
   131    44    37   am
   132    45    48    1
   133    37    38    2
   134    49    48    1
