@<TRIPOS>MOLECULE
tmp/3eq7A00.pdb
 169 161 0 0 0
SMALL
GASTEIGER

@<TRIPOS>ATOM
      1  N         13.7890   43.5690   34.6520 N.3   170  PHE170     -0.1227
      2  CA        13.2050   42.4190   35.3450 C.3   170  PHE170      0.1736
      3  C         14.0440   42.0230   36.5460 C.2   170  PHE170      0.2596
      4  O         14.4420   40.8610   36.6600 O.2   170  PHE170     -0.2718
      5  CB        13.1180   41.2110   34.4150 C.3   170  PHE170      0.0547
      6  CG        12.5870   41.5290   33.0480 C.ar  170  PHE170     -0.0202
      7  CD1       13.3260   41.2100   31.9140 C.ar  170  PHE170     -0.0042
      8  CD2       11.3600   42.1450   32.8930 C.ar  170  PHE170     -0.0042
      9  CE1       12.8500   41.5050   30.6570 C.ar  170  PHE170     -0.0003
     10  CE2       10.8880   42.4380   31.6440 C.ar  170  PHE170     -0.0003
     11  CZ        11.6440   42.1130   30.5240 C.ar  170  PHE170     -0.0000
     12  N         14.3050   42.9740   37.4420 N.am  171  SER171     -0.1952
     13  CA        15.1300   42.6860   38.6130 C.3   171  SER171      0.1924
     14  C         14.4010   42.7250   39.9480 C.2   171  SER171      0.2314
     15  O         13.3420   43.3380   40.0990 O.2   171  SER171     -0.2863
     16  CB        16.3370   43.6480   38.6770 C.3   171  SER171      0.2116
     17  OG        16.2690   44.5170   39.8130 O.3   171  SER171     -0.2180
     18  N         17.0180   33.3020   35.2040 N.3   232  MET232     -0.1245
     19  CA        16.9050   34.5940   35.8580 C.3   232  MET232      0.1570
     20  C         16.6060   34.3030   37.3250 C.2   232  MET232      0.2261
     21  O         15.5560   33.7660   37.6570 O.2   232  MET232     -0.2867
     22  CB        15.7620   35.3950   35.2410 C.3   232  MET232      0.0387
     23  CG        16.0220   35.8680   33.8210 C.3   232  MET232      0.0595
     24  SD        14.5570   36.6050   33.0560 S.3   232  MET232     -0.1393
     25  CE        13.9410   35.1800   32.1750 C.3   232  MET232      0.0692
     26  N         15.9790   35.6530   41.1490 N.3   234  GLY234     -0.1225
     27  CA        15.6860   36.7840   42.0000 C.3   234  GLY234      0.1811
     28  C         16.0220   36.3690   43.4150 C.2   234  GLY234      0.2280
     29  O         15.9920   35.1830   43.7350 O.2   234  GLY234     -0.2866
     30  N         14.2490   31.2570   37.7040 N.3   249  ARG249     -0.1245
     31  CA        13.2220   31.1020   36.6900 C.3   249  ARG249      0.1563
     32  C         13.8390   30.9150   35.3200 C.2   249  ARG249      0.2260
     33  O         14.9730   31.3010   35.0740 O.2   249  ARG249     -0.2867
     34  CB        12.3140   32.3300   36.6580 C.3   249  ARG249      0.0307
     35  CG        11.8220   32.7700   38.0160 C.3   249  ARG249      0.0489
     36  CD        10.3340   33.0380   38.0090 C.3   249  ARG249      0.2205
     37  NE         9.7840   33.0360   39.3600 N.pl3 249  ARG249     -0.0865
     38  CZ         9.0610   32.0430   39.8720 C.cat 249  ARG249      0.5346
     39  NH1        8.7980   30.9660   39.1450 N.pl3 249  ARG249      0.1354
     40  NH2        8.5940   32.1230   41.1100 N.pl3 249  ARG249      0.1354
     41  N         11.6110   30.9510   31.7420 N.3   251  GLY251     -0.1210
     42  CA        10.3250   30.8540   31.0930 C.3   251  GLY251      0.1956
     43  C          9.2780   31.4080   32.0400 C.2   251  GLY251      0.2612
     44  O          9.5840   31.6890   33.2040 O.2   251  GLY251     -0.2717
     45  N          8.0420   31.5500   31.5640 N.am  252  CYS252     -0.1970
     46  CA         6.9890   32.1160   32.3960 C.3   252  CYS252      0.1712
     47  C          6.1560   31.1530   33.2230 C.2   252  CYS252      0.2296
     48  O          5.1480   31.5550   33.8000 O.2   252  CYS252     -0.2864
     49  CB         6.0600   32.9600   31.5310 C.3   252  CYS252      0.0983
     50  SG         6.8500   34.4630   30.9790 S.3   252  CYS252     -0.0798
     51  N         -8.2240   37.0470   27.6780 N.3   470  TYR470     -0.1241
     52  CA        -6.7570   36.9980   27.6400 C.3   470  TYR470      0.1605
     53  C         -6.3040   35.5500   27.3720 C.2   470  TYR470      0.2264
     54  O         -5.6350   35.2720   26.3790 O.2   470  TYR470     -0.2867
     55  CB        -6.1840   37.4900   28.9820 C.3   470  TYR470      0.0534
     56  CG        -4.6720   37.5740   29.0500 C.ar  470  TYR470     -0.0201
     57  CD1       -4.0020   38.6890   28.5770 C.ar  470  TYR470     -0.0009
     58  CD2       -3.9150   36.5330   29.5840 C.ar  470  TYR470     -0.0009
     59  CE1       -2.6250   38.7730   28.6280 C.ar  470  TYR470      0.0417
     60  CE2       -2.5230   36.6050   29.6410 C.ar  470  TYR470      0.0417
     61  CZ        -1.8880   37.7300   29.1590 C.ar  470  TYR470      0.1957
     62  OH        -0.5110   37.8260   29.1880 O.3   470  TYR470     -0.2866
     63  N         -0.7820   32.1530   30.4270 N.3   473  PHE473     -0.1241
     64  CA         0.2370   32.5450   31.3840 C.3   473  PHE473      0.1605
     65  C         -0.2580   32.5040   32.8010 C.2   473  PHE473      0.2264
     66  O          0.2210   33.2350   33.6700 O.2   473  PHE473     -0.2867
     67  CB         0.7740   33.9250   31.0270 C.3   473  PHE473      0.0534
     68  CG         1.5540   33.9330   29.7480 C.ar  473  PHE473     -0.0203
     69  CD1        0.9290   34.1690   28.5450 C.ar  473  PHE473     -0.0042
     70  CD2        2.8960   33.6190   29.7440 C.ar  473  PHE473     -0.0042
     71  CE1        1.6240   34.0830   27.3570 C.ar  473  PHE473     -0.0003
     72  CE2        3.5960   33.5320   28.5580 C.ar  473  PHE473     -0.0003
     73  CZ         2.9590   33.7610   27.3650 C.ar  473  PHE473     -0.0000
     74  N         -2.5150   33.7620   34.1160 N.3   475  ILE475     -0.1245
     75  CA        -3.1320   35.0190   34.5320 C.3   475  ILE475      0.1561
     76  C         -4.6270   34.7430   34.6730 C.2   475  ILE475      0.2260
     77  O         -5.1910   33.9940   33.8870 O.2   475  ILE475     -0.2867
     78  CB        -2.9230   36.1080   33.4600 C.3   475  ILE475      0.0252
     79  CG1       -1.4440   36.1580   33.0610 C.3   475  ILE475      0.0019
     80  CG2       -3.4200   37.4510   33.9480 C.3   475  ILE475      0.0019
     81  CD1       -0.5900   37.1160   33.8770 C.3   475  ILE475      0.0001
     82  N         -1.7240   42.1170   24.3600 N.3   551  SER551     -0.1202
     83  CA        -0.6360   41.2130   24.7310 C.3   551  SER551      0.2020
     84  C         -1.1400   39.8360   24.3190 C.2   551  SER551      0.2618
     85  O         -1.5450   39.6320   23.1770 O.2   551  SER551     -0.2717
     86  CB        -0.4180   41.2460   26.2510 C.3   551  SER551      0.2103
     87  OG         0.9480   41.3970   26.5990 O.3   551  SER551     -0.2182
     88  N         -1.1230   38.8850   25.2450 N.am  552  ASN552     -0.1974
     89  CA        -1.6450   37.5610   24.9310 C.3   552  ASN552      0.1688
     90  C         -3.0900   37.7620   24.4710 C.2   552  ASN552      0.2292
     91  O         -3.5990   37.0120   23.6490 O.2   552  ASN552     -0.2864
     92  CB        -1.6210   36.6760   26.1770 C.3   552  ASN552      0.1181
     93  CG        -1.7150   35.2100   25.8480 C.2   552  ASN552      0.2629
     94  OD1       -2.2930   34.4230   26.6010 O.2   552  ASN552     -0.2716
     95  ND2       -1.1470   34.8290   24.7150 N.am  552  ASN552     -0.0877
     96  N          0.8300   39.9240   20.2080 N.3   577  VAL577     -0.1245
     97  CA         1.8250   39.0760   19.5650 C.3   577  VAL577      0.1561
     98  C          1.1880   38.6170   18.2570 C.2   577  VAL577      0.2260
     99  O          0.0570   38.1450   18.2610 O.2   577  VAL577     -0.2867
    100  CB         2.1450   37.8360   20.4250 C.3   577  VAL577      0.0252
    101  CG1        3.2540   37.0320   19.7840 C.3   577  VAL577      0.0019
    102  CG2        2.5530   38.2580   21.8250 C.3   577  VAL577      0.0019
    103  N         12.4980   39.9100   25.4570 N.3   588  ILE588     -0.1245
    104  CA        12.3170   38.7920   26.3790 C.3   588  ILE588      0.1561
    105  C         11.3770   37.6930   25.8620 C.2   588  ILE588      0.2260
    106  O         10.9300   36.8130   26.6110 O.2   588  ILE588     -0.2867
    107  CB        11.8570   39.3240   27.7730 C.3   588  ILE588      0.0252
    108  CG1       11.9650   38.2310   28.8210 C.3   588  ILE588      0.0019
    109  CG2       10.4480   39.8550   27.7040 C.3   588  ILE588      0.0019
    110  CD1       13.2920   38.1950   29.5340 C.3   588  ILE588      0.0001
    111  N         11.0920   33.7590   26.7740 N.3   591  ALA591     -0.1231
    112  CA        10.4360   33.2920   27.9980 C.3   591  ALA591      0.1694
    113  C          8.9920   32.8210   27.8050 C.2   591  ALA591      0.2592
    114  O          8.4210   32.1680   28.6920 O.2   591  ALA591     -0.2718
    115  CB        10.4730   34.3950   29.0550 C.3   591  ALA591      0.0304
    116  N          8.4090   33.1420   26.6520 N.am  592  TRP592     -0.1976
    117  CA         7.0270   32.7860   26.3660 C.3   592  TRP592      0.1640
    118  C          6.8740   31.3890   25.7720 C.2   592  TRP592      0.2290
    119  O          5.7710   30.8130   25.7520 O.2   592  TRP592     -0.2864
    120  CB         6.4110   33.8080   25.4090 C.3   592  TRP592      0.0576
    121  CG         6.5700   35.2480   25.8440 C.ar  592  TRP592      0.0006
    122  CD1        6.7450   35.7160   27.1220 C.ar  592  TRP592      0.0946
    123  CD2        6.6010   36.3990   24.9940 C.ar  592  TRP592      0.0152
    124  NE1        6.8850   37.0900   27.1150 N.ar  592  TRP592     -0.2442
    125  CE2        6.8000   37.5290   25.8180 C.ar  592  TRP592      0.0810
    126  CE3        6.4790   36.5860   23.6160 C.ar  592  TRP592      0.0012
    127  CZ2        6.8800   38.8260   25.2990 C.ar  592  TRP592      0.0191
    128  CZ3        6.5590   37.8650   23.1060 C.ar  592  TRP592      0.0001
    129  CH2        6.7570   38.9670   23.9420 C.ar  592  TRP592      0.0015
    130  N          3.5300   28.9140   24.3430 N.3   596  TYR596     -0.1241
    131  CA         3.2990   28.6810   22.9160 C.3   596  TYR596      0.1605
    132  C          4.0500   27.5090   22.2610 C.2   596  TYR596      0.2264
    133  O          3.4500   26.6850   21.5600 O.2   596  TYR596     -0.2867
    134  CB         3.6230   29.9480   22.1240 C.3   596  TYR596      0.0534
    135  CG         2.9210   31.1990   22.6070 C.ar  596  TYR596     -0.0201
    136  CD1        3.6330   32.3750   22.8060 C.ar  596  TYR596     -0.0009
    137  CD2        1.5590   31.2180   22.8520 C.ar  596  TYR596     -0.0009
    138  CE1        3.0210   33.5380   23.2340 C.ar  596  TYR596      0.0417
    139  CE2        0.9290   32.3860   23.2850 C.ar  596  TYR596      0.0417
    140  CZ         1.6720   33.5460   23.4740 C.ar  596  TYR596      0.1957
    141  OH         1.0890   34.7180   23.9100 O.3   596  TYR596     -0.2866
    142  N          8.4910   45.1410   25.5040 N.3   640  ARG640     -0.1231
    143  CA         7.9560   43.8710   25.9920 C.3   640  ARG640      0.1694
    144  C          7.5040   43.0870   24.7660 C.2   640  ARG640      0.2591
    145  O          7.9150   41.9370   24.5610 O.2   640  ARG640     -0.2718
    146  CB         6.7780   44.1070   26.9280 C.3   640  ARG640      0.0321
    147  CG         6.0570   42.8370   27.3270 C.3   640  ARG640      0.0489
    148  CD         6.9040   42.0160   28.2620 C.3   640  ARG640      0.2205
    149  NE         7.1980   42.7600   29.4740 N.pl3 640  ARG640     -0.0865
    150  CZ         6.6360   42.4980   30.6460 C.cat 640  ARG640      0.5346
    151  NH1        5.7550   41.5090   30.7470 N.pl3 640  ARG640      0.1354
    152  NH2        6.9450   43.2260   31.7100 N.pl3 640  ARG640      0.1354
    153  N          6.6590   43.7160   23.9530 N.am  641  VAL641     -0.1980
    154  CA         6.1900   43.1090   22.7160 C.3   641  VAL641      0.1595
    155  C          6.4670   44.1220   21.6070 C.2   641  VAL641      0.2287
    156  O          5.6160   44.9450   21.2560 O.2   641  VAL641     -0.2864
    157  CB         4.6940   42.8050   22.7490 C.3   641  VAL641      0.0276
    158  CG1        4.3600   41.8110   21.6580 C.3   641  VAL641      0.0022
    159  CG2        4.2980   42.2540   24.1020 C.3   641  VAL641      0.0022
    160  N          4.6810   48.9850   26.5590 N.3   677  HIS677     -0.1241
    161  CA         3.7070   47.9010   26.5960 C.3   677  HIS677      0.1621
    162  C          2.4290   48.2020   27.3640 C.2   677  HIS677      0.2264
    163  O          1.4000   47.5760   27.1230 O.2   677  HIS677     -0.2867
    164  CB         4.3510   46.6330   27.1470 C.3   677  HIS677      0.0745
    165  CG         3.4810   45.4250   27.0290 C.ar  677  HIS677      0.0817
    166  ND1        2.9350   45.0180   25.8290 N.ar  677  HIS677     -0.2268
    167  CD2        3.0420   44.5460   27.9620 C.ar  677  HIS677      0.1154
    168  CE1        2.1970   43.9410   26.0300 C.ar  677  HIS677      0.1986
    169  NE2        2.2450   43.6330   27.3140 N.ar  677  HIS677     -0.2212
@<TRIPOS>BOND
     1    98    99    2
     2    98    97    1
     3    97    96    1
     4    97   100    1
     5   101   100    1
     6   100   102    1
     7   156   155    2
     8   133   132    2
     9   155   154    1
    10   158   157    1
    11   134   135    1
    12   134   131    1
    13   132   131    1
    14   135   136   ar
    15   135   137   ar
    16   154   157    1
    17   154   153    1
    18   157   159    1
    19   136   138   ar
    20   137   139   ar
    21   131   130    1
    22   128   126   ar
    23   128   129   ar
    24    85    84    2
    25   138   140   ar
    26   139   140   ar
    27   140   141    1
    28   126   123   ar
    29    91    90    2
    30   129   127   ar
    31   153   144   am
    32    84    83    1
    33    84    88   am
    34    82    83    1
    35    90    89    1
    36   145   144    2
    37    95    93   am
    38    83    86    1
    39   144   143    1
    40    89    88    1
    41    89    92    1
    42   123   125   ar
    43   123   121   ar
    44   127   125   ar
    45   120   121    1
    46   120   117    1
    47   103   104    1
    48   142   143    1
    49   119   118    2
    50   118   117    1
    51   125   124   ar
    52   166   168   ar
    53   166   165   ar
    54   121   122   ar
    55    93    92    1
    56    93    94    2
    57   105   104    1
    58   105   106    2
    59   143   146    1
    60   168   169   ar
    61    86    87    1
    62   117   116    1
    63   104   107    1
    64    54    53    2
    65   160   161    1
    66   161   164    1
    67   161   162    1
    68   116   113   am
    69   111   112    1
    70   146   147    1
    71   165   164    1
    72   165   167   ar
    73   124   122   ar
    74   163   162    2
    75   169   167   ar
    76   147   148    1
    77    71    73   ar
    78    71    69   ar
    79    73    72   ar
    80    53    52    1
    81    52    51    1
    82    52    55    1
    83   109   107    1
    84   107   108    1
    85   113   112    1
    86   113   114    2
    87   112   115    1
    88   148   149    1
    89    69    68   ar
    90    72    70   ar
    91    57    59   ar
    92    57    56   ar
    93    59    61   ar
    94   108   110    1
    95    55    56    1
    96    56    58   ar
    97    61    62    1
    98    61    60   ar
    99   149   150    2
   100    58    60   ar
   101    70    68   ar
   102    68    67    1
   103    63    64    1
   104    11     9   ar
   105    11    10   ar
   106   150   151    1
   107   150   152    1
   108     9     7   ar
   109    50    49    1
   110    67    64    1
   111    42    41    1
   112    42    43    1
   113    64    65    1
   114    49    46    1
   115    45    43   am
   116    45    46    1
   117    10     8   ar
   118     7     6   ar
   119    43    44    2
   120    25    24    1
   121    46    47    1
   122    65    66    2
   123     8     6   ar
   124     6     5    1
   125    24    23    1
   126    79    78    1
   127    79    81    1
   128    47    48    2
   129    78    80    1
   130    78    75    1
   131    23    22    1
   132    77    76    2
   133    74    75    1
   134     5     2    1
   135    75    76    1
   136     1     2    1
   137    33    32    2
   138    18    19    1
   139    22    19    1
   140    32    31    1
   141     2     3    1
   142    19    20    1
   143     3     4    2
   144     3    12   am
   145    34    31    1
   146    34    35    1
   147    31    30    1
   148    20    21    2
   149    12    13    1
   150    36    35    1
   151    36    37    1
   152    13    16    1
   153    13    14    1
   154    16    17    1
   155    39    38    1
   156    37    38    2
   157    38    40    1
   158    14    15    2
   159    26    27    1
   160    27    28    1
   161    28    29    2
