@<TRIPOS>MOLECULE
tmp/3eq8A00.pdb
 191 184 0 0 0
SMALL
GASTEIGER

@<TRIPOS>ATOM
      1  N          8.8030   52.1830   38.9760 N.3   127  ARG127     -0.1245
      2  CA         8.6640   50.7590   38.6770 C.3   127  ARG127      0.1563
      3  C          9.3630   49.9130   39.7350 C.2   127  ARG127      0.2260
      4  O         10.5230   49.5090   39.5690 O.2   127  ARG127     -0.2867
      5  CB         9.2440   50.4300   37.2940 C.3   127  ARG127      0.0307
      6  CG         8.8050   49.0720   36.7430 C.3   127  ARG127      0.0489
      7  CD         9.4320   48.7640   35.3880 C.3   127  ARG127      0.2205
      8  NE         8.5820   49.1860   34.2780 N.pl3 127  ARG127     -0.0865
      9  CZ         7.7930   48.3720   33.5800 C.cat 127  ARG127      0.5346
     10  NH1        7.7370   47.0750   33.8750 N.pl3 127  ARG127      0.1354
     11  NH2        7.0630   48.8550   32.5790 N.pl3 127  ARG127      0.1354
     12  N         13.8240   43.6740   34.9980 N.3   172  PHE172     -0.1227
     13  CA        13.2950   42.4740   35.6200 C.3   172  PHE172      0.1736
     14  C         14.0980   42.1670   36.8710 C.2   172  PHE172      0.2596
     15  O         14.4880   41.0150   37.1090 O.2   172  PHE172     -0.2718
     16  CB        13.3760   41.3110   34.6320 C.3   172  PHE172      0.0547
     17  CG        12.5960   41.5440   33.3660 C.ar  172  PHE172     -0.0202
     18  CD1       13.1790   41.3380   32.1260 C.ar  172  PHE172     -0.0042
     19  CD2       11.2750   41.9650   33.4190 C.ar  172  PHE172     -0.0042
     20  CE1       12.4590   41.5480   30.9670 C.ar  172  PHE172     -0.0003
     21  CE2       10.5520   42.1730   32.2650 C.ar  172  PHE172     -0.0003
     22  CZ        11.1420   41.9650   31.0390 C.ar  172  PHE172     -0.0000
     23  N         14.3240   43.2030   37.6780 N.am  173  SER173     -0.1938
     24  CA        15.0910   43.0480   38.9010 C.3   173  SER173      0.2055
     25  C         14.3240   42.9590   40.1990 C.2   173  SER173      0.2643
     26  O         13.1680   43.3850   40.3080 O.2   173  SER173     -0.2714
     27  CB        16.0940   44.1750   39.0900 C.3   173  SER173      0.2130
     28  OG        16.4530   44.2350   40.4780 O.3   173  SER173     -0.2179
     29  N         15.0240   42.3940   41.1810 N.am  174  CYS174     -0.1967
     30  CA        14.5260   42.2310   42.5260 C.3   174  CYS174      0.1712
     31  C         15.1990   43.3600   43.2640 C.2   174  CYS174      0.2296
     32  O         16.1560   43.9540   42.7540 O.2   174  CYS174     -0.2864
     33  CB        14.9810   40.8980   43.1240 C.3   174  CYS174      0.0983
     34  SG        16.7870   40.6160   43.1620 S.3   174  CYS174     -0.0798
     35  N         17.0870   33.3340   35.1060 N.3   234  MET234     -0.1245
     36  CA        16.9720   34.5940   35.8240 C.3   234  MET234      0.1570
     37  C         16.8230   34.3440   37.3210 C.2   234  MET234      0.2261
     38  O         15.7810   33.8890   37.7780 O.2   234  MET234     -0.2867
     39  CB        15.7670   35.3750   35.3030 C.3   234  MET234      0.0387
     40  CG        15.8850   35.7790   33.8370 C.3   234  MET234      0.0595
     41  SD        14.3260   36.2770   33.0730 S.3   234  MET234     -0.1393
     42  CE        13.9950   37.7560   33.9980 C.3   234  MET234      0.0692
     43  N         14.7190   31.1540   37.6470 N.3   251  ARG251     -0.1231
     44  CA        13.6380   30.9240   36.6980 C.3   251  ARG251      0.1694
     45  C         14.0740   30.8390   35.2500 C.2   251  ARG251      0.2592
     46  O         15.1440   31.3040   34.8780 O.2   251  ARG251     -0.2718
     47  CB        12.6030   32.0440   36.8160 C.3   251  ARG251      0.0321
     48  CG        12.0340   32.2440   38.2000 C.3   251  ARG251      0.0489
     49  CD        10.5760   32.6550   38.1330 C.3   251  ARG251      0.2205
     50  NE         9.8800   32.3760   39.3850 N.pl3 251  ARG251     -0.0865
     51  CZ         8.6620   31.8490   39.4560 C.cat 251  ARG251      0.5346
     52  NH1        8.0060   31.5450   38.3420 N.pl3 251  ARG251      0.1354
     53  NH2        8.1010   31.6190   40.6370 N.pl3 251  ARG251      0.1354
     54  N         13.2140   30.2390   34.4390 N.am  252  GLU252     -0.1966
     55  CA        13.4350   30.1000   33.0080 C.3   252  GLU252      0.1733
     56  C         12.0560   29.9840   32.3870 C.2   252  GLU252      0.2617
     57  O         11.4000   28.9520   32.4990 O.2   252  GLU252     -0.2715
     58  CB        14.2540   28.8500   32.6870 C.3   252  GLU252      0.0429
     59  CG        14.9770   28.9510   31.3580 C.3   252  GLU252      0.1163
     60  CD        15.5920   27.6430   30.9250 C.2   252  GLU252      0.3649
     61  OE1       15.3180   26.6180   31.5790 O.co2 252  GLU252     -0.2457
     62  OE2       16.3520   27.6380   29.9320 O.co2 252  GLU252     -0.2457
     63  N         11.6040   31.0510   31.7450 N.am  253  GLY253     -0.1940
     64  CA        10.2890   31.0120   31.1480 C.3   253  GLY253      0.2014
     65  C          9.3040   31.6540   32.0970 C.2   253  GLY253      0.2639
     66  O          9.7020   32.1780   33.1350 O.2   253  GLY253     -0.2714
     67  N          8.0220   31.6110   31.7500 N.am  254  CYS254     -0.1967
     68  CA         6.9830   32.2120   32.5720 C.3   254  CYS254      0.1712
     69  C          6.1130   31.1610   33.2350 C.2   254  CYS254      0.2296
     70  O          4.9350   31.4000   33.5200 O.2   254  CYS254     -0.2864
     71  CB         6.1100   33.1140   31.7070 C.3   254  CYS254      0.0983
     72  SG         6.9490   34.5880   31.1500 S.3   254  CYS254     -0.0798
     73  N         -8.0020   37.1020   27.7550 N.3   472  TYR472     -0.1241
     74  CA        -6.5320   37.0630   27.6600 C.3   472  TYR472      0.1605
     75  C         -6.1140   35.6120   27.3310 C.2   472  TYR472      0.2264
     76  O         -5.6570   35.3190   26.2290 O.2   472  TYR472     -0.2867
     77  CB        -5.9220   37.5180   28.9940 C.3   472  TYR472      0.0534
     78  CG        -4.4120   37.6720   29.0220 C.ar  472  TYR472     -0.0201
     79  CD1       -3.8040   38.8430   28.6080 C.ar  472  TYR472     -0.0009
     80  CD2       -3.5930   36.6410   29.4940 C.ar  472  TYR472     -0.0009
     81  CE1       -2.4200   38.9880   28.6600 C.ar  472  TYR472      0.0417
     82  CE2       -2.2030   36.7760   29.5520 C.ar  472  TYR472      0.0417
     83  CZ        -1.6230   37.9520   29.1330 C.ar  472  TYR472      0.1957
     84  OH        -0.2480   38.1060   29.1980 O.3   472  TYR472     -0.2866
     85  N         -0.3820   32.2620   30.1780 N.3   475  PHE475     -0.1241
     86  CA         0.5370   32.6150   31.2430 C.3   475  PHE475      0.1605
     87  C         -0.0010   32.6000   32.6610 C.2   475  PHE475      0.2264
     88  O          0.4500   33.3720   33.5030 O.2   475  PHE475     -0.2867
     89  CB         1.1470   33.9730   30.9320 C.3   475  PHE475      0.0534
     90  CG         1.8980   33.9920   29.6500 C.ar  475  PHE475     -0.0203
     91  CD1        1.2530   34.3010   28.4610 C.ar  475  PHE475     -0.0042
     92  CD2        3.2370   33.6340   29.6160 C.ar  475  PHE475     -0.0042
     93  CE1        1.9270   34.2490   27.2600 C.ar  475  PHE475     -0.0003
     94  CE2        3.9140   33.5790   28.4240 C.ar  475  PHE475     -0.0003
     95  CZ         3.2640   33.8850   27.2410 C.ar  475  PHE475     -0.0000
     96  N         -2.3740   33.8550   33.9440 N.3   477  ILE477     -0.1245
     97  CA        -2.9910   35.1060   34.3620 C.3   477  ILE477      0.1561
     98  C         -4.5000   34.9430   34.5300 C.2   477  ILE477      0.2260
     99  O         -5.1980   34.4820   33.6230 O.2   477  ILE477     -0.2867
    100  CB        -2.7170   36.2140   33.3380 C.3   477  ILE477      0.0252
    101  CG1       -1.2110   36.3210   33.0880 C.3   477  ILE477      0.0019
    102  CG2       -3.2780   37.5150   33.8210 C.3   477  ILE477      0.0019
    103  CD1       -0.4910   37.2190   34.0540 C.3   477  ILE477      0.0001
    104  N         -1.5610   42.2580   24.6480 N.3   553  SER553     -0.1202
    105  CA        -0.4580   41.3360   24.8080 C.3   553  SER553      0.2020
    106  C         -0.8500   39.9550   24.3140 C.2   553  SER553      0.2618
    107  O         -1.2750   39.7980   23.1760 O.2   553  SER553     -0.2717
    108  CB        -0.0530   41.2680   26.2800 C.3   553  SER553      0.2103
    109  OG         1.3390   41.4640   26.4430 O.3   553  SER553     -0.2182
    110  N         -0.7020   38.9440   25.1650 N.am  554  ASN554     -0.1974
    111  CA        -1.0610   37.5960   24.7590 C.3   554  ASN554      0.1688
    112  C         -2.5470   37.6070   24.4190 C.2   554  ASN554      0.2292
    113  O         -3.0370   36.7440   23.6940 O.2   554  ASN554     -0.2864
    114  CB        -0.7760   36.6070   25.8860 C.3   554  ASN554      0.1181
    115  CG        -1.3800   35.2410   25.6300 C.2   554  ASN554      0.2629
    116  OD1       -2.3420   34.8460   26.2810 O.2   554  ASN554     -0.2716
    117  ND2       -0.8160   34.5110   24.6800 N.am  554  ASN554     -0.0877
    118  N          1.0480   40.0070   20.2470 N.3   579  VAL579     -0.1245
    119  CA         2.0840   39.1610   19.6550 C.3   579  VAL579      0.1561
    120  C          1.4560   38.6070   18.3860 C.2   579  VAL579      0.2260
    121  O          0.4480   37.9120   18.4570 O.2   579  VAL579     -0.2867
    122  CB         2.4480   37.9580   20.5560 C.3   579  VAL579      0.0252
    123  CG1        3.1890   36.9140   19.7330 C.3   579  VAL579      0.0019
    124  CG2        3.3050   38.4000   21.7190 C.3   579  VAL579      0.0019
    125  N         12.6600   40.1100   25.5430 N.3   590  ILE590     -0.1245
    126  CA        12.3060   39.0520   26.4820 C.3   590  ILE590      0.1561
    127  C         11.3430   37.9770   25.9430 C.2   590  ILE590      0.2260
    128  O         10.7000   37.2640   26.7180 O.2   590  ILE590     -0.2867
    129  CB        11.7290   39.6940   27.7700 C.3   590  ILE590      0.0252
    130  CG1       11.7470   38.7020   28.9380 C.3   590  ILE590      0.0019
    131  CG2       10.3320   40.1980   27.5050 C.3   590  ILE590      0.0019
    132  CD1       13.0910   38.5380   29.5660 C.3   590  ILE590      0.0001
    133  N         11.3470   34.0020   26.9380 N.3   593  ALA593     -0.1231
    134  CA        10.6730   33.6210   28.1630 C.3   593  ALA593      0.1694
    135  C          9.2850   33.0240   27.9350 C.2   593  ALA593      0.2592
    136  O          8.7870   32.2630   28.7790 O.2   593  ALA593     -0.2718
    137  CB        10.5760   34.8300   29.0830 C.3   593  ALA593      0.0304
    138  N          8.6560   33.3430   26.8090 N.am  594  TRP594     -0.1976
    139  CA         7.3090   32.8440   26.5440 C.3   594  TRP594      0.1640
    140  C          7.2130   31.4910   25.8380 C.2   594  TRP594      0.2290
    141  O          6.1040   30.9950   25.5910 O.2   594  TRP594     -0.2864
    142  CB         6.5220   33.8730   25.7290 C.3   594  TRP594      0.0576
    143  CG         6.8000   35.3080   26.0860 C.ar  594  TRP594      0.0006
    144  CD1        7.1120   35.8090   27.3160 C.ar  594  TRP594      0.0946
    145  CD2        6.7600   36.4230   25.2000 C.ar  594  TRP594      0.0152
    146  NE1        7.2700   37.1760   27.2540 N.ar  594  TRP594     -0.2442
    147  CE2        7.0560   37.5780   25.9620 C.ar  594  TRP594      0.0810
    148  CE3        6.5020   36.5620   23.8350 C.ar  594  TRP594      0.0012
    149  CZ2        7.0990   38.8530   25.4000 C.ar  594  TRP594      0.0191
    150  CZ3        6.5480   37.8320   23.2800 C.ar  594  TRP594      0.0001
    151  CH2        6.8440   38.9600   24.0630 C.ar  594  TRP594      0.0015
    152  N          3.8960   28.9640   24.3890 N.3   598  TYR598     -0.1241
    153  CA         3.6530   28.8130   22.9470 C.3   598  TYR598      0.1605
    154  C          4.4840   27.7290   22.2710 C.2   598  TYR598      0.2264
    155  O          4.0110   27.0170   21.3780 O.2   598  TYR598     -0.2867
    156  CB         3.9600   30.1140   22.2020 C.3   598  TYR598      0.0534
    157  CG         3.2750   31.3650   22.6990 C.ar  598  TYR598     -0.0201
    158  CD1        3.9680   32.5640   22.7490 C.ar  598  TYR598     -0.0009
    159  CD2        1.9300   31.3710   23.0490 C.ar  598  TYR598     -0.0009
    160  CE1        3.3520   33.7400   23.1270 C.ar  598  TYR598      0.0417
    161  CE2        1.2980   32.5550   23.4330 C.ar  598  TYR598      0.0417
    162  CZ         2.0210   33.7360   23.4670 C.ar  598  TYR598      0.1957
    163  OH         1.4360   34.9250   23.8440 O.3   598  TYR598     -0.2866
    164  N          8.5610   45.1350   25.5100 N.3   642  ARG642     -0.1231
    165  CA         8.0300   43.8480   25.9470 C.3   642  ARG642      0.1694
    166  C          7.6730   43.0340   24.7220 C.2   642  ARG642      0.2591
    167  O          8.2270   41.9620   24.4830 O.2   642  ARG642     -0.2718
    168  CB         6.7840   44.0340   26.7950 C.3   642  ARG642      0.0321
    169  CG         6.2650   42.7230   27.3350 C.3   642  ARG642      0.0489
    170  CD         7.1170   42.3000   28.4930 C.3   642  ARG642      0.2205
    171  NE         7.2330   43.4020   29.4310 N.pl3 642  ARG642     -0.0865
    172  CZ         6.8600   43.3340   30.7020 C.cat 642  ARG642      0.5346
    173  NH1        6.3480   42.2100   31.1820 N.pl3 642  ARG642      0.1354
    174  NH2        6.9970   44.3930   31.4890 N.pl3 642  ARG642      0.1354
    175  N          6.7230   43.5510   23.9530 N.am  643  VAL643     -0.1980
    176  CA         6.2880   42.9170   22.7160 C.3   643  VAL643      0.1595
    177  C          6.6210   43.9280   21.6260 C.2   643  VAL643      0.2287
    178  O          5.7900   44.7730   21.2770 O.2   643  VAL643     -0.2864
    179  CB         4.7730   42.6560   22.7280 C.3   643  VAL643      0.0276
    180  CG1        4.3440   42.0850   21.3950 C.3   643  VAL643      0.0022
    181  CG2        4.4110   41.6810   23.8510 C.3   643  VAL643      0.0022
    182  N          4.7710   49.0370   26.8220 N.3   679  HIS679     -0.1241
    183  CA         3.8120   47.9670   26.9260 C.3   679  HIS679      0.1621
    184  C          2.5220   48.3460   27.6390 C.2   679  HIS679      0.2264
    185  O          1.4680   47.8040   27.3210 O.2   679  HIS679     -0.2867
    186  CB         4.4550   46.7600   27.5950 C.3   679  HIS679      0.0745
    187  CG         3.7520   45.4800   27.2940 C.ar  679  HIS679      0.0817
    188  ND1        3.0640   45.2770   26.1220 N.ar  679  HIS679     -0.2268
    189  CD2        3.5900   44.3570   28.0270 C.ar  679  HIS679      0.1154
    190  CE1        2.5000   44.0830   26.1460 C.ar  679  HIS679      0.1986
    191  NE2        2.8050   43.5050   27.2910 N.ar  679  HIS679     -0.2212
@<TRIPOS>BOND
     1   120   121    2
     2   120   119    1
     3   119   118    1
     4   119   122    1
     5   123   122    1
     6   122   124    1
     7   178   177    2
     8   155   154    2
     9   180   179    1
    10   177   176    1
    11   156   157    1
    12   156   153    1
    13   154   153    1
    14   157   158   ar
    15   157   159   ar
    16   176   179    1
    17   176   175    1
    18   179   181    1
    19   158   160   ar
    20   153   152    1
    21   159   161   ar
    22   160   162   ar
    23   107   106    2
    24   150   148   ar
    25   150   151   ar
    26   161   162   ar
    27   162   163    1
    28   113   112    2
    29   148   145   ar
    30   175   166   am
    31   151   149   ar
    32   106   105    1
    33   106   110   am
    34   112   111    1
    35   167   166    2
    36   104   105    1
    37   117   115   am
    38   166   165    1
    39   111   110    1
    40   111   114    1
    41   105   108    1
    42   145   147   ar
    43   145   143   ar
    44   149   147   ar
    45   164   165    1
    46   125   126    1
    47   141   140    2
    48   115   114    1
    49   115   116    2
    50   142   143    1
    51   142   139    1
    52   140   139    1
    53   127   126    1
    54   127   128    2
    55   165   168    1
    56   147   146   ar
    57   143   144   ar
    58   188   190   ar
    59   188   187   ar
    60   190   191   ar
    61    76    75    2
    62   108   109    1
    63   126   129    1
    64   139   138    1
    65   168   169    1
    66   138   135   am
    67   182   183    1
    68   183   186    1
    69   183   184    1
    70   133   134    1
    71    95    93   ar
    72    95    94   ar
    73   146   144   ar
    74    93    91   ar
    75   191   189   ar
    76   187   186    1
    77   187   189   ar
    78   185   184    2
    79    75    74    1
    80   169   170    1
    81   131   129    1
    82    74    73    1
    83    74    77    1
    84   129   130    1
    85   135   134    1
    86   135   136    2
    87   134   137    1
    88    94    92   ar
    89    91    90   ar
    90   170   171    1
    91    79    81   ar
    92    79    78   ar
    93    81    83   ar
    94   130   132    1
    95    77    78    1
    96    78    80   ar
    97    83    84    1
    98    83    82   ar
    99   171   172    2
   100    80    82   ar
   101    92    90   ar
   102    90    89    1
   103    62    60   ar
   104    85    86    1
   105   172   173    1
   106   172   174    1
   107    60    59    1
   108    60    61   ar
   109    89    86    1
   110    20    22   ar
   111    20    18   ar
   112    22    21   ar
   113    64    63    1
   114    64    65    1
   115    72    71    1
   116    86    87    1
   117    59    58    1
   118    71    68    1
   119    63    56   am
   120    67    65   am
   121    67    68    1
   122    65    66    2
   123    18    17   ar
   124    21    19   ar
   125    56    57    2
   126    56    55    1
   127    68    69    1
   128    11     9    1
   129    87    88    2
   130    58    55    1
   131    55    54    1
   132    41    40    1
   133    41    42    1
   134   101   100    1
   135   101   103    1
   136    69    70    2
   137   100   102    1
   138   100    97    1
   139    17    19   ar
   140    17    16    1
   141     9    10    1
   142     9     8    2
   143    99    98    2
   144    40    39    1
   145    96    97    1
   146     8     7    1
   147    97    98    1
   148    54    45   am
   149    16    13    1
   150    46    45    2
   151    12    13    1
   152    35    36    1
   153    45    44    1
   154    39    36    1
   155     7     6    1
   156    13    14    1
   157    36    37    1
   158    44    47    1
   159    44    43    1
   160     6     5    1
   161    47    48    1
   162    14    15    2
   163    14    23   am
   164     5     2    1
   165    37    38    2
   166    23    24    1
   167    49    48    1
   168    49    50    1
   169    52    51    1
   170     2     1    1
   171     2     3    1
   172    24    27    1
   173    24    25    1
   174    27    28    1
   175    50    51    2
   176    51    53    1
   177     4     3    2
   178    25    26    2
   179    25    29   am
   180    29    30    1
   181    30    33    1
   182    30    31    1
   183    32    31    2
   184    33    34    1
