@<TRIPOS>MOLECULE
tmp/3eq9A00.pdb
 197 189 0 0 0
SMALL
GASTEIGER

@<TRIPOS>ATOM
      1  N         13.6680   43.5660   34.9380 N.3   171  PHE171     -0.1241
      2  CA        13.0610   42.4080   35.6010 C.3   171  PHE171      0.1605
      3  C         13.8910   42.0430   36.8070 C.2   171  PHE171      0.2264
      4  O         14.2570   40.8860   36.9870 O.2   171  PHE171     -0.2867
      5  CB        13.0120   41.1960   34.6590 C.3   171  PHE171      0.0534
      6  CG        12.3630   41.4770   33.3340 C.ar  171  PHE171     -0.0203
      7  CD1       13.0860   41.3580   32.1530 C.ar  171  PHE171     -0.0042
      8  CD2       11.0300   41.8380   33.2620 C.ar  171  PHE171     -0.0042
      9  CE1       12.4940   41.5890   30.9320 C.ar  171  PHE171     -0.0003
     10  CE2       10.4340   42.0680   32.0390 C.ar  171  PHE171     -0.0003
     11  CZ        11.1690   41.9420   30.8740 C.ar  171  PHE171     -0.0000
     12  N         21.2380   37.5500   32.6090 N.3   206  GLN206     -0.1245
     13  CA        20.9130   38.4430   33.7060 C.3   206  GLN206      0.1566
     14  C         21.6860   37.8900   34.8880 C.2   206  GLN206      0.2260
     15  O         21.6560   36.6800   35.1470 O.2   206  GLN206     -0.2867
     16  CB        19.4140   38.4070   34.0160 C.3   206  GLN206      0.0367
     17  CG        18.9840   39.4320   35.0540 C.3   206  GLN206      0.0905
     18  CD        17.6320   39.1190   35.6450 C.2   206  GLN206      0.2608
     19  OE1       17.4080   38.0190   36.1450 O.2   206  GLN206     -0.2717
     20  NE2       16.7140   40.0910   35.5950 N.am  206  GLN206     -0.0878
     21  N         16.9820   33.3100   35.2090 N.3   233  MET233     -0.1230
     22  CA        16.8780   34.5730   35.9300 C.3   233  MET233      0.1702
     23  C         16.7290   34.2360   37.3970 C.2   233  MET233      0.2593
     24  O         15.9000   33.4130   37.7740 O.2   233  MET233     -0.2718
     25  CB        15.6670   35.3490   35.4230 C.3   233  MET233      0.0401
     26  CG        15.7050   35.5400   33.9160 C.3   233  MET233      0.0596
     27  SD        14.2240   36.2940   33.2300 S.3   233  MET233     -0.1393
     28  CE        14.1680   37.8170   34.1370 C.3   233  MET233      0.0692
     29  N         17.5490   34.8560   38.2310 N.am  234  GLY234     -0.1942
     30  CA        17.4920   34.5590   39.6440 C.3   234  GLY234      0.2014
     31  C         17.1240   35.7380   40.5000 C.2   234  GLY234      0.2639
     32  O         17.8910   36.6910   40.6300 O.2   234  GLY234     -0.2714
     33  N         15.9340   35.6810   41.0770 N.am  235  GLY235     -0.1954
     34  CA        15.4980   36.7460   41.9490 C.3   235  GLY235      0.1869
     35  C         15.8660   36.3540   43.3690 C.2   235  GLY235      0.2309
     36  O         15.8700   35.1680   43.7100 O.2   235  GLY235     -0.2863
     37  N         15.4200   32.3110   43.9360 N.3   248  SER248     -0.1217
     38  CA        14.4710   31.5870   43.0950 C.3   248  SER248      0.1889
     39  C         14.9520   31.6920   41.6680 C.2   248  SER248      0.2288
     40  O         14.9950   32.7690   41.1110 O.2   248  SER248     -0.2866
     41  CB        13.0770   32.1980   43.2110 C.3   248  SER248      0.2089
     42  OG        12.8050   32.5390   44.5620 O.3   248  SER248     -0.2183
     43  N         14.4790   31.0090   37.7800 N.3   250  ARG250     -0.1245
     44  CA        13.4210   30.8140   36.8050 C.3   250  ARG250      0.1563
     45  C         13.8880   30.7790   35.3550 C.2   250  ARG250      0.2260
     46  O         14.8810   31.3930   34.9980 O.2   250  ARG250     -0.2867
     47  CB        12.3950   31.9380   36.9530 C.3   250  ARG250      0.0307
     48  CG        11.8320   32.0940   38.3530 C.3   250  ARG250      0.0489
     49  CD        10.3610   32.4520   38.3020 C.3   250  ARG250      0.2205
     50  NE         9.7250   32.3120   39.6060 N.pl3 250  ARG250     -0.0865
     51  CZ         8.5250   31.7750   39.7890 C.cat 250  ARG250      0.5346
     52  NH1        7.8370   31.3310   38.7510 N.pl3 250  ARG250      0.1354
     53  NH2        8.0170   31.6720   41.0060 N.pl3 250  ARG250      0.1354
     54  N         11.7390   31.1650   31.8580 N.3   252  GLY252     -0.1210
     55  CA        10.4700   31.2750   31.1780 C.3   252  GLY252      0.1956
     56  C          9.4030   31.7970   32.1110 C.2   252  GLY252      0.2612
     57  O          9.7110   32.3520   33.1720 O.2   252  GLY252     -0.2717
     58  N          8.1440   31.6120   31.7310 N.am  253  CYS253     -0.1956
     59  CA         7.0410   32.1030   32.5420 C.3   253  CYS253      0.1843
     60  C          6.2330   31.0190   33.2500 C.2   253  CYS253      0.2625
     61  O          5.1320   31.2780   33.7440 O.2   253  CYS253     -0.2714
     62  CB         6.1220   32.9570   31.6710 C.3   253  CYS253      0.0997
     63  SG         6.9370   34.4310   31.0410 S.3   253  CYS253     -0.0797
     64  N          6.7850   29.8110   33.3150 N.am  254  ASP254     -0.1958
     65  CA         6.0920   28.7030   33.9640 C.3   254  ASP254      0.1825
     66  C          6.0810   28.8280   35.4800 C.2   254  ASP254      0.2464
     67  O          7.0400   29.3140   36.0830 O.2   254  ASP254     -0.2730
     68  CB         6.7430   27.3800   33.5690 C.3   254  ASP254      0.1450
     69  CG         5.8550   26.5450   32.6790 C.2   254  ASP254      0.3671
     70  OD1        4.8100   27.0650   32.2370 O.co2 254  ASP254     -0.2456
     71  OD2        6.2030   25.3720   32.4220 O.co2 254  ASP254     -0.2456
     72  N          4.9840   28.3930   36.1190 N.am  255  PRO255     -0.2727
     73  CA         4.8480   28.4510   37.5790 C.3   255  PRO255      0.1402
     74  C          5.7660   27.4280   38.2510 C.2   255  PRO255      0.2269
     75  O          5.3040   26.5430   38.9680 O.2   255  PRO255     -0.2865
     76  CB         3.3680   28.1410   37.8250 C.3   255  PRO255      0.0296
     77  CG         2.7230   28.1340   36.4690 C.3   255  PRO255      0.0237
     78  CD         3.7880   27.8220   35.4860 C.3   255  PRO255      0.0939
     79  N         -8.0440   37.3710   27.7930 N.3   471  TYR471     -0.1241
     80  CA        -6.5790   37.2680   27.6940 C.3   471  TYR471      0.1605
     81  C         -6.2620   35.8450   27.2410 C.2   471  TYR471      0.2264
     82  O         -5.9820   35.5940   26.0610 O.2   471  TYR471     -0.2867
     83  CB        -5.9490   37.5260   29.0630 C.3   471  TYR471      0.0534
     84  CG        -4.4370   37.6410   29.0740 C.ar  471  TYR471     -0.0201
     85  CD1       -3.8090   38.7900   28.6410 C.ar  471  TYR471     -0.0009
     86  CD2       -3.6450   36.6100   29.5720 C.ar  471  TYR471     -0.0009
     87  CE1       -2.4370   38.9180   28.7030 C.ar  471  TYR471      0.0417
     88  CE2       -2.2720   36.7240   29.6410 C.ar  471  TYR471      0.0417
     89  CZ        -1.6680   37.8820   29.2060 C.ar  471  TYR471      0.1957
     90  OH        -0.2910   38.0200   29.2850 O.3   471  TYR471     -0.2866
     91  N         -0.5460   32.4050   30.2170 N.3   474  PHE474     -0.1241
     92  CA         0.4300   32.6050   31.2620 C.3   474  PHE474      0.1605
     93  C         -0.0740   32.5390   32.6960 C.2   474  PHE474      0.2264
     94  O          0.4130   33.2600   33.5630 O.2   474  PHE474     -0.2867
     95  CB         1.1570   33.9220   31.0110 C.3   474  PHE474      0.0534
     96  CG         1.8420   33.9770   29.6780 C.ar  474  PHE474     -0.0203
     97  CD1        1.1700   34.4410   28.5570 C.ar  474  PHE474     -0.0042
     98  CD2        3.1460   33.5250   29.5310 C.ar  474  PHE474     -0.0042
     99  CE1        1.7830   34.4510   27.3180 C.ar  474  PHE474     -0.0003
    100  CE2        3.7680   33.5330   28.2820 C.ar  474  PHE474     -0.0003
    101  CZ         3.0870   33.9940   27.1800 C.ar  474  PHE474     -0.0000
    102  N         -2.5010   33.7640   34.0090 N.3   476  ILE476     -0.1245
    103  CA        -3.1190   35.0210   34.4300 C.3   476  ILE476      0.1561
    104  C         -4.6480   34.8870   34.5140 C.2   476  ILE476      0.2260
    105  O         -5.3010   34.4460   33.5580 O.2   476  ILE476     -0.2867
    106  CB        -2.7970   36.1820   33.4540 C.3   476  ILE476      0.0252
    107  CG1       -1.2860   36.3010   33.2490 C.3   476  ILE476      0.0019
    108  CG2       -3.3510   37.4800   33.9950 C.3   476  ILE476      0.0019
    109  CD1       -0.6040   37.2860   34.1840 C.3   476  ILE476      0.0001
    110  N         -1.8000   42.4470   24.5360 N.3   552  SER552     -0.1202
    111  CA        -0.6250   41.5880   24.6870 C.3   552  SER552      0.2020
    112  C         -0.9200   40.1590   24.2530 C.2   552  SER552      0.2618
    113  O         -1.1480   39.9090   23.0770 O.2   552  SER552     -0.2717
    114  CB        -0.1500   41.5980   26.1370 C.3   552  SER552      0.2103
    115  OG         0.8450   40.6180   26.3480 O.3   552  SER552     -0.2182
    116  N         -0.9050   39.2120   25.1890 N.am  553  ASN553     -0.1974
    117  CA        -1.2040   37.8240   24.8300 C.3   553  ASN553      0.1688
    118  C         -2.6520   37.7680   24.3550 C.2   553  ASN553      0.2292
    119  O         -3.0080   36.9330   23.5390 O.2   553  ASN553     -0.2864
    120  CB        -1.0150   36.8890   26.0290 C.3   553  ASN553      0.1181
    121  CG        -1.4700   35.4570   25.7370 C.2   553  ASN553      0.2629
    122  OD1       -2.3900   34.9420   26.3710 O.2   553  ASN553     -0.2716
    123  ND2       -0.8200   34.8140   24.7800 N.am  553  ASN553     -0.0877
    124  N          0.9140   39.9620   20.1670 N.3   578  VAL578     -0.1245
    125  CA         1.9180   39.1060   19.5440 C.3   578  VAL578      0.1561
    126  C          1.2990   38.6680   18.2260 C.2   578  VAL578      0.2260
    127  O          0.1680   38.2010   18.2140 O.2   578  VAL578     -0.2867
    128  CB         2.2310   37.8400   20.4020 C.3   578  VAL578      0.0252
    129  CG1        3.6020   37.2820   20.0250 C.3   578  VAL578      0.0019
    130  CG2        2.2050   38.1800   21.8890 C.3   578  VAL578      0.0019
    131  N         12.7380   39.9710   25.4030 N.3   589  ILE589     -0.1245
    132  CA        12.4150   38.9120   26.3500 C.3   589  ILE589      0.1561
    133  C         11.4380   37.8540   25.8040 C.2   589  ILE589      0.2260
    134  O         10.9010   37.0370   26.5490 O.2   589  ILE589     -0.2867
    135  CB        11.8730   39.5410   27.6690 C.3   589  ILE589      0.0252
    136  CG1       11.9510   38.5390   28.8130 C.3   589  ILE589      0.0019
    137  CG2       10.4560   40.0370   27.4700 C.3   589  ILE589      0.0019
    138  CD1       13.3740   38.1250   29.1580 C.3   589  ILE589      0.0001
    139  N         11.1750   34.0270   26.6410 N.3   592  ALA592     -0.1231
    140  CA        10.5180   33.6190   27.8740 C.3   592  ALA592      0.1694
    141  C          9.1030   33.0670   27.6850 C.2   592  ALA592      0.2592
    142  O          8.6010   32.3210   28.5270 O.2   592  ALA592     -0.2718
    143  CB        10.4820   34.7970   28.8310 C.3   592  ALA592      0.0304
    144  N          8.4600   33.4320   26.5870 N.am  593  TRP593     -0.1976
    145  CA         7.0970   32.9950   26.3290 C.3   593  TRP593      0.1640
    146  C          6.9590   31.6100   25.6990 C.2   593  TRP593      0.2290
    147  O          5.8340   31.1400   25.4670 O.2   593  TRP593     -0.2864
    148  CB         6.3900   34.0240   25.4370 C.3   593  TRP593      0.0576
    149  CG         6.6380   35.4330   25.8600 C.ar  593  TRP593      0.0006
    150  CD1        6.9130   35.8730   27.1230 C.ar  593  TRP593      0.0946
    151  CD2        6.6910   36.5870   25.0130 C.ar  593  TRP593      0.0152
    152  NE1        7.1430   37.2290   27.1150 N.ar  593  TRP593     -0.2442
    153  CE2        7.0140   37.6920   25.8300 C.ar  593  TRP593      0.0810
    154  CE3        6.5020   36.7930   23.6410 C.ar  593  TRP593      0.0012
    155  CZ2        7.1520   38.9730   25.3250 C.ar  593  TRP593      0.0191
    156  CZ3        6.6370   38.0680   23.1420 C.ar  593  TRP593      0.0001
    157  CH2        6.9610   39.1450   23.9820 C.ar  593  TRP593      0.0015
    158  N          3.7990   28.9470   24.4490 N.3   597  TYR597     -0.1241
    159  CA         3.5470   28.7560   23.0150 C.3   597  TYR597      0.1605
    160  C          4.4300   27.7200   22.3530 C.2   597  TYR597      0.2264
    161  O          4.0190   27.0470   21.4110 O.2   597  TYR597     -0.2867
    162  CB         3.7800   30.0430   22.2120 C.3   597  TYR597      0.0534
    163  CG         3.1650   31.3130   22.7320 C.ar  597  TYR597     -0.0201
    164  CD1        3.9420   32.4560   22.8940 C.ar  597  TYR597     -0.0009
    165  CD2        1.8010   31.4060   22.9710 C.ar  597  TYR597     -0.0009
    166  CE1        3.3740   33.6590   23.2710 C.ar  597  TYR597      0.0417
    167  CE2        1.2280   32.6020   23.3490 C.ar  597  TYR597      0.0417
    168  CZ         2.0160   33.7240   23.4950 C.ar  597  TYR597      0.1957
    169  OH         1.4470   34.9230   23.8600 O.3   597  TYR597     -0.2866
    170  N          8.5510   45.1210   25.5370 N.3   641  ARG641     -0.1231
    171  CA         8.0400   43.8560   26.0570 C.3   641  ARG641      0.1694
    172  C          7.6360   43.0220   24.8640 C.2   641  ARG641      0.2591
    173  O          8.1210   41.9020   24.6800 O.2   641  ARG641     -0.2718
    174  CB         6.8340   44.0960   26.9680 C.3   641  ARG641      0.0321
    175  CG         6.2480   42.8280   27.5900 C.3   641  ARG641      0.0489
    176  CD         7.2610   42.1390   28.4930 C.3   641  ARG641      0.2205
    177  NE         7.5040   42.9310   29.6910 N.pl3 641  ARG641     -0.0865
    178  CZ         6.7670   42.8680   30.7970 C.cat 641  ARG641      0.5346
    179  NH1        5.7300   42.0470   30.8810 N.pl3 641  ARG641      0.1354
    180  NH2        7.0560   43.6510   31.8150 N.pl3 641  ARG641      0.1354
    181  N          6.7350   43.5760   24.0550 N.am  642  VAL642     -0.1980
    182  CA         6.2660   42.9300   22.8290 C.3   642  VAL642      0.1595
    183  C          6.6020   43.8830   21.6840 C.2   642  VAL642      0.2287
    184  O          5.7840   44.7180   21.3230 O.2   642  VAL642     -0.2864
    185  CB         4.7290   42.6970   22.8550 C.3   642  VAL642      0.0276
    186  CG1        4.2730   42.0900   21.5310 C.3   642  VAL642      0.0022
    187  CG2        4.3560   41.7720   24.0090 C.3   642  VAL642      0.0022
    188  N          4.6050   49.0650   26.8470 N.3   678  HIS678     -0.1241
    189  CA         3.6280   47.9990   26.9650 C.3   678  HIS678      0.1621
    190  C          2.3480   48.3850   27.6940 C.2   678  HIS678      0.2264
    191  O          1.2870   47.8350   27.4110 O.2   678  HIS678     -0.2867
    192  CB         4.2510   46.7840   27.6330 C.3   678  HIS678      0.0745
    193  CG         3.5850   45.4960   27.2650 C.ar  678  HIS678      0.0817
    194  ND1        3.4660   45.0710   25.9590 N.ar  678  HIS678     -0.2268
    195  CD2        3.0370   44.5230   28.0300 C.ar  678  HIS678      0.1154
    196  CE1        2.8740   43.8870   25.9380 C.ar  678  HIS678      0.1986
    197  NE2        2.6050   43.5330   27.1810 N.ar  678  HIS678     -0.2212
@<TRIPOS>BOND
     1   127   126    2
     2   126   125    1
     3   125   124    1
     4   125   128    1
     5   129   128    1
     6   128   130    1
     7   184   183    2
     8   161   160    2
     9   186   185    1
    10   183   182    1
    11   162   163    1
    12   162   159    1
    13   160   159    1
    14   163   164   ar
    15   163   165   ar
    16   182   185    1
    17   182   181    1
    18   185   187    1
    19   164   166   ar
    20   165   167   ar
    21   159   158    1
    22   113   112    2
    23   156   154   ar
    24   156   157   ar
    25   166   168   ar
    26   167   168   ar
    27   168   169    1
    28   119   118    2
    29   154   151   ar
    30   157   155   ar
    31   181   172   am
    32   112   111    1
    33   112   116   am
    34   118   117    1
    35   110   111    1
    36   173   172    2
    37   111   114    1
    38   123   121   am
    39   117   116    1
    40   117   120    1
    41   172   171    1
    42   151   153   ar
    43   151   149   ar
    44   155   153   ar
    45   131   132    1
    46   148   149    1
    47   148   145    1
    48   147   146    2
    49   170   171    1
    50   146   145    1
    51   121   120    1
    52   121   122    2
    53   133   132    1
    54   133   134    2
    55   153   152   ar
    56   149   150   ar
    57   196   194   ar
    58   196   197   ar
    59   194   193   ar
    60   171   174    1
    61    82    81    2
    62   114   115    1
    63   145   144    1
    64   132   135    1
    65   144   141   am
    66   139   140    1
    67   188   189    1
    68   189   192    1
    69   189   190    1
    70   174   175    1
    71   152   150   ar
    72   101    99   ar
    73   101   100   ar
    74   197   195   ar
    75    81    80    1
    76   193   192    1
    77   193   195   ar
    78    99    97   ar
    79   191   190    2
    80   137   135    1
    81   175   176    1
    82   135   136    1
    83   141   140    1
    84   141   142    2
    85    80    79    1
    86    80    83    1
    87   140   143    1
    88   100    98   ar
    89   176   177    1
    90    97    96   ar
    91    85    87   ar
    92    85    84   ar
    93    87    89   ar
    94   136   138    1
    95    83    84    1
    96    84    86   ar
    97    89    90    1
    98    89    88   ar
    99    98    96   ar
   100    86    88   ar
   101    96    95    1
   102   177   178    2
   103    91    92    1
   104   178   179    1
   105   178   180    1
   106    11     9   ar
   107    11    10   ar
   108     9     7   ar
   109    95    92    1
   110    63    62    1
   111    55    54    1
   112    55    56    1
   113    92    93    1
   114    62    59    1
   115    58    56   am
   116    58    59    1
   117    10     8   ar
   118    56    57    2
   119     7     6   ar
   120    70    69   ar
   121    71    69   ar
   122    59    60    1
   123    12    13    1
   124    69    68    1
   125    93    94    2
   126    27    26    1
   127    27    28    1
   128   107   106    1
   129   107   109    1
   130    60    64   am
   131    60    61    2
   132     8     6   ar
   133    64    65    1
   134     6     5    1
   135   106   108    1
   136   106   103    1
   137   105   104    2
   138    68    65    1
   139    13    16    1
   140    13    14    1
   141    26    25    1
   142    65    66    1
   143   102   103    1
   144    16    17    1
   145   103   104    1
   146     5     2    1
   147    14    15    2
   148     1     2    1
   149    46    45    2
   150    17    18    1
   151    21    22    1
   152    45    44    1
   153    25    22    1
   154    66    67    2
   155    66    72   am
   156    78    72    1
   157    78    77    1
   158    20    18   am
   159     2     3    1
   160    18    19    2
   161    22    23    1
   162    72    73    1
   163    77    76    1
   164    44    47    1
   165    44    43    1
   166     3     4    2
   167    47    48    1
   168    23    24    2
   169    23    29   am
   170    73    76    1
   171    73    74    1
   172    29    30    1
   173    74    75    2
   174    49    48    1
   175    49    50    1
   176    52    51    1
   177    50    51    2
   178    30    31    1
   179    51    53    1
   180    31    32    2
   181    31    33   am
   182    33    34    1
   183    40    39    2
   184    39    38    1
   185    34    35    1
   186    38    41    1
   187    38    37    1
   188    41    42    1
   189    35    36    2
