@<TRIPOS>MOLECULE
tmp/3eqaA08.pdb
 137 136 0 0 0
SMALL
GASTEIGER

@<TRIPOS>ATOM
      1  N          2.4320   -4.1990   30.1310 N.3    34  ALA34      -0.1245
      2  CA         3.0290   -3.9210   28.8200 C.3    34  ALA34       0.1562
      3  C          4.5000   -4.3550   28.7340 C.2    34  ALA34       0.2260
      4  O          4.9580   -4.7910   27.6800 O.2    34  ALA34      -0.2867
      5  CB         2.8900   -2.4460   28.4740 C.3    34  ALA34       0.0290
      6  N          7.0400    1.1630   32.0460 N.3    43  TYR43      -0.1241
      7  CA         5.9000    0.5520   31.3430 C.3    43  TYR43       0.1605
      8  C          5.1600   -0.4410   32.2320 C.2    43  TYR43       0.2264
      9  O          4.3430   -1.2370   31.7550 O.2    43  TYR43      -0.2867
     10  CB         6.3700   -0.1730   30.0850 C.3    43  TYR43       0.0534
     11  CG         6.5960    0.6840   28.8530 C.ar   43  TYR43      -0.0201
     12  CD1        7.1220    1.9680   28.9450 C.ar   43  TYR43      -0.0009
     13  CD2        6.3090    0.1820   27.5860 C.ar   43  TYR43      -0.0009
     14  CE1        7.3500    2.7450   27.7960 C.ar   43  TYR43       0.0417
     15  CE2        6.5320    0.9370   26.4440 C.ar   43  TYR43       0.0417
     16  CZ         7.0520    2.2230   26.5530 C.ar   43  TYR43       0.1957
     17  OH         7.2770    2.9700   25.4160 O.3    43  TYR43      -0.2866
     18  N         -2.2790   -1.4930   29.7670 N.3    47  TRP47      -0.1241
     19  CA        -2.9970   -0.7190   28.7660 C.3    47  TRP47       0.1605
     20  C         -4.1360   -1.5650   28.2210 C.2    47  TRP47       0.2264
     21  O         -3.9750   -2.7690   27.9730 O.2    47  TRP47      -0.2867
     22  CB        -2.0820   -0.3350   27.6070 C.3    47  TRP47       0.0550
     23  CG        -1.2770    0.9250   27.7740 C.ar   47  TRP47       0.0003
     24  CD1       -1.5500    2.1460   27.2220 C.ar   47  TRP47       0.0946
     25  CD2       -0.0390    1.0760   28.4840 C.ar   47  TRP47       0.0152
     26  NE1       -0.5750    3.0540   27.5600 N.ar   47  TRP47      -0.2442
     27  CE2        0.3670    2.4250   28.3340 C.ar   47  TRP47       0.0810
     28  CE3        0.7600    0.2080   29.2420 C.ar   47  TRP47       0.0012
     29  CZ2        1.5420    2.9270   28.9060 C.ar   47  TRP47       0.0191
     30  CZ3        1.9380    0.7060   29.8110 C.ar   47  TRP47       0.0001
     31  CH2        2.3110    2.0550   29.6460 C.ar   47  TRP47       0.0015
     32  N         -5.4980   -1.3530   25.2350 N.3    49  ARG49      -0.1231
     33  CA        -5.0850   -1.7480   23.8850 C.3    49  ARG49       0.1694
     34  C         -4.1130   -2.9370   23.8860 C.2    49  ARG49       0.2592
     35  O         -4.3640   -3.9430   23.2130 O.2    49  ARG49      -0.2718
     36  CB        -4.4850   -0.5550   23.1240 C.3    49  ARG49       0.0321
     37  CG        -3.6730   -0.9240   21.8260 C.3    49  ARG49       0.0489
     38  CD        -3.0060    0.3030   21.1740 C.3    49  ARG49       0.2205
     39  NE        -2.3060    1.1080   22.1760 N.pl3  49  ARG49      -0.0865
     40  CZ        -2.8020    2.1980   22.7530 C.cat  49  ARG49       0.5346
     41  NH1       -3.9960    2.6730   22.4070 N.pl3  49  ARG49       0.1354
     42  NH2       -2.0920    2.8170   23.6810 N.pl3  49  ARG49       0.1354
     43  N         -3.0000   -2.8200   24.6180 N.am   50  ASP50      -0.1974
     44  CA        -1.9930   -3.8880   24.6190 C.3    50  ASP50       0.1709
     45  C         -2.5990   -5.1950   25.1160 C.2    50  ASP50       0.2293
     46  O         -2.3940   -6.2450   24.5120 O.2    50  ASP50      -0.2864
     47  CB        -0.7720   -3.5290   25.4910 C.3    50  ASP50       0.1436
     48  CG        -0.0100   -2.3390   24.9700 C.2    50  ASP50       0.3671
     49  OD1       -0.6560   -1.3540   24.5790 O.co2  50  ASP50      -0.2456
     50  OD2        1.2360   -2.3850   24.9730 O.co2  50  ASP50      -0.2456
     51  N         -3.2190    5.5170   18.8360 N.3   172  LEU172     -0.1231
     52  CA        -2.6070    4.3500   19.4850 C.3   172  LEU172      0.1693
     53  C         -1.1960    4.6280   20.0180 C.2   172  LEU172      0.2592
     54  O         -0.7470    3.9590   20.9370 O.2   172  LEU172     -0.2718
     55  CB        -2.5890    3.1290   18.5430 C.3   172  LEU172      0.0284
     56  CG        -1.5020    2.9710   17.4640 C.3   172  LEU172      0.0019
     57  CD1       -1.5370    1.5520   16.8940 C.3   172  LEU172      0.0001
     58  CD2       -1.6290    4.0110   16.3460 C.3   172  LEU172      0.0001
     59  N         -0.5070    5.6120   19.4340 N.am  173  TRP173     -0.1962
     60  CA         0.8130    6.0210   19.9220 C.3   173  TRP173      0.1771
     61  C          0.7000    7.0120   21.0910 C.2   173  TRP173      0.2619
     62  O          1.7080    7.4010   21.6780 O.2   173  TRP173     -0.2715
     63  CB         1.6770    6.5930   18.7850 C.3   173  TRP173      0.0590
     64  CG         1.8220    5.6890   17.5570 C.ar  173  TRP173      0.0006
     65  CD1        1.7500    6.0780   16.2530 C.ar  173  TRP173      0.0946
     66  CD2        2.0690    4.2710   17.5340 C.ar  173  TRP173      0.0152
     67  NE1        1.9390    5.0090   15.4170 N.ar  173  TRP173     -0.2442
     68  CE2        2.1310    3.8830   16.1740 C.ar  173  TRP173      0.0810
     69  CE3        2.2640    3.2960   18.5260 C.ar  173  TRP173      0.0012
     70  CZ2        2.3610    2.5670   15.7760 C.ar  173  TRP173      0.0191
     71  CZ3        2.5000    1.9720   18.1220 C.ar  173  TRP173      0.0001
     72  CH2        2.5420    1.6280   16.7580 C.ar  173  TRP173      0.0015
     73  N         -0.5410    7.3840   21.4370 N.am  174  GLU174     -0.1977
     74  CA        -0.8730    8.2140   22.6140 C.3   174  GLU174      0.1602
     75  C         -0.4170    9.6810   22.4850 C.2   174  GLU174      0.2287
     76  O         -0.2480   10.3770   23.4940 O.2   174  GLU174     -0.2864
     77  CB        -0.3250    7.5960   23.9240 C.3   174  GLU174      0.0415
     78  CG        -0.2910    6.0470   23.9510 C.3   174  GLU174      0.1163
     79  CD        -0.0550    5.4960   25.3490 C.2   174  GLU174      0.3649
     80  OE1        1.1100    5.2000   25.6920 O.co2 174  GLU174     -0.2457
     81  OE2       -1.0350    5.3700   26.1120 O.co2 174  GLU174     -0.2457
     82  N          7.5190    3.5260   13.4820 N.3   300  ARG300     -0.1245
     83  CA         6.1270    3.9680   13.6120 C.3   300  ARG300      0.1563
     84  C          5.7220    4.9440   12.5020 C.2   300  ARG300      0.2260
     85  O          4.8100    4.6680   11.7220 O.2   300  ARG300     -0.2867
     86  CB         5.8970    4.5640   15.0050 C.3   300  ARG300      0.0307
     87  CG         6.1350    3.5410   16.1350 C.3   300  ARG300      0.0489
     88  CD         5.6050    4.0270   17.4780 C.3   300  ARG300      0.2205
     89  NE         6.2100    5.2970   17.8780 N.pl3 300  ARG300     -0.0865
     90  CZ         5.8510    5.9960   18.9510 C.cat 300  ARG300      0.5346
     91  NH1        4.8920    5.5480   19.7530 N.pl3 300  ARG300      0.1354
     92  NH2        6.4530    7.1480   19.2180 N.pl3 300  ARG300      0.1354
     93  N         10.6510   -0.2900   15.1600 N.3   312  TRP312     -0.1241
     94  CA         9.9760   -1.0570   16.2160 C.3   312  TRP312      0.1605
     95  C          9.7670   -2.5060   15.7660 C.2   312  TRP312      0.2264
     96  O          9.3900   -2.7640   14.6140 O.2   312  TRP312     -0.2867
     97  CB         8.6090   -0.4500   16.5680 C.3   312  TRP312      0.0550
     98  CG         8.6290    0.7910   17.4240 C.ar  312  TRP312      0.0003
     99  CD1        9.4920    1.8420   17.3340 C.ar  312  TRP312      0.0946
    100  CD2        7.7070    1.1160   18.4820 C.ar  312  TRP312      0.0152
    101  NE1        9.1810    2.7990   18.2810 N.ar  312  TRP312     -0.2442
    102  CE2        8.0930    2.3750   19.0020 C.ar  312  TRP312      0.0810
    103  CE3        6.5960    0.4610   19.0440 C.ar  312  TRP312      0.0012
    104  CZ2        7.4020    3.0020   20.0550 C.ar  312  TRP312      0.0191
    105  CZ3        5.9100    1.0800   20.1030 C.ar  312  TRP312      0.0001
    106  CH2        6.3100    2.3450   20.5850 C.ar  312  TRP312      0.0015
    107  N         10.8510   -3.0080   22.8440 N.3   395  GLU395     -0.1245
    108  CA         9.9240   -2.2360   22.0220 C.3   395  GLU395      0.1567
    109  C         10.6090   -1.8500   20.7130 C.2   395  GLU395      0.2260
    110  O         10.0280   -1.9790   19.6310 O.2   395  GLU395     -0.2867
    111  CB         9.5110   -0.9900   22.7910 C.3   395  GLU395      0.0388
    112  CG         8.5250   -0.0810   22.0890 C.3   395  GLU395      0.1160
    113  CD         8.3280    1.2010   22.8740 C.2   395  GLU395      0.3649
    114  OE1        9.2700    2.0250   22.9140 O.co2 395  GLU395     -0.2457
    115  OE2        7.2490    1.3540   23.4740 O.co2 395  GLU395     -0.2457
    116  N          8.7620   -6.4060   25.6490 N.3   410  LEU410     -0.1245
    117  CA         7.4640   -5.7970   25.4000 C.3   410  LEU410      0.1561
    118  C          6.4750   -6.8790   24.9740 C.2   410  LEU410      0.2260
    119  O          6.6770   -7.5490   23.9650 O.2   410  LEU410     -0.2867
    120  CB         7.5750   -4.6920   24.3440 C.3   410  LEU410      0.0270
    121  CG         6.3210   -3.8220   24.1650 C.3   410  LEU410      0.0019
    122  CD1        6.2040   -2.7950   25.3010 C.3   410  LEU410      0.0001
    123  CD2        6.3100   -3.1300   22.7970 C.3   410  LEU410      0.0001
    124  N          3.5710   -6.8130   23.6510 N.3   412  TRP412     -0.1241
    125  CA         3.0270   -6.6060   22.3100 C.3   412  TRP412      0.1605
    126  C          4.0310   -7.0340   21.2170 C.2   412  TRP412      0.2264
    127  O          3.6290   -7.5360   20.1700 O.2   412  TRP412     -0.2867
    128  CB         2.5970   -5.1410   22.1480 C.3   412  TRP412      0.0550
    129  CG         1.8670   -4.7760   20.8580 C.ar  412  TRP412      0.0003
    130  CD1        1.6160   -5.5800   19.7810 C.ar  412  TRP412      0.0946
    131  CD2        1.3500   -3.4860   20.5180 C.ar  412  TRP412      0.0152
    132  NE1        0.9680   -4.8790   18.8000 N.ar  412  TRP412     -0.2442
    133  CE2        0.7930   -3.5880   19.2210 C.ar  412  TRP412      0.0810
    134  CE3        1.2940   -2.2560   21.1880 C.ar  412  TRP412      0.0012
    135  CZ2        0.1800   -2.5020   18.5760 C.ar  412  TRP412      0.0191
    136  CZ3        0.6930   -1.1700   20.5440 C.ar  412  TRP412      0.0001
    137  CH2        0.1400   -1.3050   19.2480 C.ar  412  TRP412      0.0015
@<TRIPOS>BOND
     1    85    84    2
     2    84    83    1
     3    82    83    1
     4    83    86    1
     5    96    95    2
     6    86    87    1
     7    93    94    1
     8    67    68   ar
     9    67    65   ar
    10    95    94    1
    11    70    68   ar
    12    70    72   ar
    13    87    88    1
    14    68    66   ar
    15    94    97    1
    16    65    64   ar
    17    58    56    1
    18    97    98    1
    19    72    71   ar
    20    57    56    1
    21    99    98   ar
    22    99   101   ar
    23    98   100   ar
    24    56    55    1
    25    88    89    1
    26    66    64   ar
    27    66    69   ar
    28    64    63    1
    29    89    90    2
    30    71    69   ar
    31   101   102   ar
    32   100   102   ar
    33   100   103   ar
    34    55    52    1
    35   135   133   ar
    36   135   137   ar
    37    63    60    1
    38   132   133   ar
    39   132   130   ar
    40    51    52    1
    41    90    92    1
    42    90    91    1
    43   102   104   ar
    44   103   105   ar
    45   133   131   ar
    46   137   136   ar
    47    59    60    1
    48    59    53   am
    49    52    53    1
    50   110   109    2
    51   130   129   ar
    52    60    61    1
    53    53    54    2
    54   104   106   ar
    55   105   106   ar
    56   127   126    2
    57   131   129   ar
    58   131   134   ar
    59   136   134   ar
    60   109   108    1
    61   129   128    1
    62    61    73   am
    63    61    62    2
    64    38    37    1
    65    38    39    1
    66   126   125    1
    67    73    74    1
    68    37    36    1
    69   108   111    1
    70   108   107    1
    71   112   111    1
    72   112   113    1
    73   128   125    1
    74    39    40    2
    75   125   124    1
    76    41    40    1
    77    75    74    1
    78    75    76    2
    79    74    77    1
    80    40    42    1
    81   123   121    1
    82   113   114   ar
    83   113   115   ar
    84    36    33    1
    85    35    34    2
    86    33    34    1
    87    33    32    1
    88    34    43   am
    89    77    78    1
    90    78    79    1
    91   119   118    2
    92   121   120    1
    93   121   122    1
    94   120   117    1
    95    46    45    2
    96    49    48   ar
    97    43    44    1
    98    44    45    1
    99    44    47    1
   100    48    50   ar
   101    48    47    1
   102   118   117    1
   103    79    80   ar
   104    79    81   ar
   105   117   116    1
   106    17    16    1
   107    15    16   ar
   108    15    13   ar
   109    16    14   ar
   110    24    26   ar
   111    24    23   ar
   112    26    27   ar
   113    13    11   ar
   114    22    23    1
   115    22    19    1
   116     4     3    2
   117    23    25   ar
   118    14    12   ar
   119    21    20    2
   120    20    19    1
   121    27    25   ar
   122    27    29   ar
   123     5     2    1
   124    25    28   ar
   125     3     2    1
   126    19    18    1
   127     2     1    1
   128    11    12   ar
   129    11    10    1
   130    29    31   ar
   131    28    30   ar
   132    31    30   ar
   133    10     7    1
   134     7     6    1
   135     7     8    1
   136     9     8    2
