@<TRIPOS>MOLECULE
tmp/3eqaA00.pdb
 142 139 0 0 0
SMALL
GASTEIGER

@<TRIPOS>ATOM
      1  N        -17.6860    6.9280   18.9640 N.3   165  TRP165     -0.1227
      2  CA       -16.7930    6.7710   17.7990 C.3   165  TRP165      0.1737
      3  C        -16.5120    8.0970   17.0850 C.2   165  TRP165      0.2595
      4  O        -15.3930    8.3330   16.6060 O.2   165  TRP165     -0.2718
      5  CB       -17.3230    5.7250   16.8080 C.3   165  TRP165      0.0564
      6  CG       -18.5530    6.1280   16.0610 C.ar  165  TRP165      0.0003
      7  CD1      -19.8420    5.8440   16.4000 C.ar  165  TRP165      0.0946
      8  CD2      -18.6160    6.8890   14.8440 C.ar  165  TRP165      0.0152
      9  NE1      -20.7100    6.3840   15.4760 N.ar  165  TRP165     -0.2442
     10  CE2      -19.9820    7.0340   14.5130 C.ar  165  TRP165      0.0810
     11  CE3      -17.6520    7.4710   14.0070 C.ar  165  TRP165      0.0012
     12  CZ2      -20.4080    7.7250   13.3760 C.ar  165  TRP165      0.0191
     13  CZ3      -18.0770    8.1600   12.8790 C.ar  165  TRP165      0.0001
     14  CH2      -19.4430    8.2780   12.5740 C.ar  165  TRP165      0.0015
     15  N        -17.5250    8.9620   17.0260 N.am  166  ASN166     -0.1960
     16  CA       -17.4540   10.2100   16.2390 C.3   166  ASN166      0.1819
     17  C        -16.8950   11.3900   17.0470 C.2   166  ASN166      0.2621
     18  O        -17.1250   12.5570   16.7040 O.2   166  ASN166     -0.2715
     19  CB       -18.8420   10.5300   15.6400 C.3   166  ASN166      0.1195
     20  CG       -18.7920   11.5240   14.4760 C.2   166  ASN166      0.2630
     21  OD1      -19.7330   12.3060   14.2920 O.2   166  ASN166     -0.2716
     22  ND2      -17.7080   11.4850   13.6830 N.am  166  ASN166     -0.0877
     23  N        -16.1700   11.0690   18.1210 N.am  167  GLN167     -0.1963
     24  CA       -15.4990   12.0540   18.9700 C.3   167  GLN167      0.1733
     25  C        -13.9830   11.8900   18.8680 C.2   167  GLN167      0.2617
     26  O        -13.4930   10.7840   18.6880 O.2   167  GLN167     -0.2715
     27  CB       -15.9150   11.8910   20.4440 C.3   167  GLN167      0.0408
     28  CG       -17.4020   12.1210   20.7330 C.3   167  GLN167      0.0908
     29  CD       -17.9120   13.4580   20.2010 C.2   167  GLN167      0.2608
     30  OE1      -18.8780   13.5010   19.4460 O.2   167  GLN167     -0.2717
     31  NE2      -17.2520   14.5450   20.5760 N.am  167  GLN167     -0.0878
     32  N        -13.2590   13.0010   18.9990 N.am  168  THR168     -0.1951
     33  CA       -11.8040   12.9980   18.9200 C.3   168  THR168      0.1897
     34  C        -11.2180   12.3650   20.1810 C.2   168  THR168      0.2313
     35  O        -11.8570   12.3440   21.2430 O.2   168  THR168     -0.2863
     36  CB       -11.2270   14.4300   18.7500 C.3   168  THR168      0.1794
     37  OG1      -11.6880   15.2560   19.8210 O.3   168  THR168     -0.2208
     38  CG2      -11.6610   15.0430   17.4310 C.3   168  THR168      0.0378
     39  N         -8.6680   12.1500   15.1550 N.3   179  SER179     -0.1217
     40  CA        -9.3490   10.9350   14.7450 C.3   179  SER179      0.1889
     41  C         -8.3570   10.0950   13.9570 C.2   179  SER179      0.2288
     42  O         -7.7110   10.6030   13.0430 O.2   179  SER179     -0.2866
     43  CB       -10.5610   11.3080   13.8830 C.3   179  SER179      0.2089
     44  OG       -11.3700   10.1730   13.6260 O.3   179  SER179     -0.2183
     45  N        -21.9930    3.7810    9.4430 N.3   214  GLU214     -0.1245
     46  CA       -21.5310    5.1640    9.5710 C.3   214  GLU214      0.1567
     47  C        -20.0340    5.2380    9.8600 C.2   214  GLU214      0.2260
     48  O        -19.3510    6.1390    9.3740 O.2   214  GLU214     -0.2867
     49  CB       -22.3130    5.9130   10.6600 C.3   214  GLU214      0.0388
     50  CG       -23.8210    6.0240   10.4010 C.3   214  GLU214      0.1160
     51  CD       -24.1790    6.8310    9.1570 C.2   214  GLU214      0.3649
     52  OE1      -25.3670    6.7830    8.7510 O.co2 214  GLU214     -0.2457
     53  OE2      -23.2930    7.5090    8.5800 O.co2 214  GLU214     -0.2457
     54  N        -17.2230    6.8320    7.3140 N.3   218  TYR218     -0.1241
     55  CA       -16.1740    7.7480    7.7410 C.3   218  TYR218      0.1605
     56  C        -14.7790    7.2020    7.4110 C.2   218  TYR218      0.2264
     57  O        -13.8980    7.9560    6.9820 O.2   218  TYR218     -0.2867
     58  CB       -16.3240    8.0570    9.2330 C.3   218  TYR218      0.0534
     59  CG       -15.2300    8.9160    9.8200 C.ar  218  TYR218     -0.0201
     60  CD1      -14.7490   10.0320    9.1300 C.ar  218  TYR218     -0.0009
     61  CD2      -14.6890    8.6250   11.0730 C.ar  218  TYR218     -0.0009
     62  CE1      -13.7560   10.8250    9.6540 C.ar  218  TYR218      0.0417
     63  CE2      -13.6910    9.4260   11.6220 C.ar  218  TYR218      0.0417
     64  CZ       -13.2280   10.5210   10.8990 C.ar  218  TYR218      0.1957
     65  OH       -12.2380   11.3300   11.3960 O.3   218  TYR218     -0.2866
     66  N        -12.7210    8.2430    4.2770 N.3   221  SER221     -0.1217
     67  CA       -12.0270    9.5340    4.2770 C.3   221  SER221      0.1889
     68  C        -10.5150    9.4290    4.4880 C.2   221  SER221      0.2288
     69  O         -9.7680   10.3270    4.0890 O.2   221  SER221     -0.2866
     70  CB       -12.6350   10.4650    5.3370 C.3   221  SER221      0.2089
     71  OG       -13.8700   10.9960    4.8810 O.3   221  SER221     -0.2183
     72  N         -8.4570    7.4530    3.0190 N.3   223  TRP223     -0.1227
     73  CA        -7.7460    7.2060    1.7650 C.3   223  TRP223      0.1737
     74  C         -7.4450    8.5430    1.0780 C.2   223  TRP223      0.2596
     75  O         -8.3590    9.3090    0.7640 O.2   223  TRP223     -0.2718
     76  CB        -8.5510    6.2620    0.8660 C.3   223  TRP223      0.0564
     77  CG        -7.9350    6.0020   -0.4940 C.ar  223  TRP223      0.0003
     78  CD1       -8.4610    6.3440   -1.7090 C.ar  223  TRP223      0.0946
     79  CD2       -6.6930    5.3390   -0.7690 C.ar  223  TRP223      0.0152
     80  NE1       -7.6270    5.9410   -2.7200 N.ar  223  TRP223     -0.2442
     81  CE2       -6.5310    5.3250   -2.1730 C.ar  223  TRP223      0.0810
     82  CE3       -5.7000    4.7590    0.0340 C.ar  223  TRP223      0.0012
     83  CZ2       -5.4150    4.7520   -2.7960 C.ar  223  TRP223      0.0191
     84  CZ3       -4.5860    4.1870   -0.5890 C.ar  223  TRP223      0.0001
     85  CH2       -4.4530    4.1950   -1.9890 C.ar  223  TRP223      0.0015
     86  N         -6.1570    8.8170    0.8680 N.am  224  THR224     -0.1953
     87  CA        -5.7050   10.0710    0.2820 C.3   224  THR224      0.1897
     88  C         -5.7020   10.0240   -1.2480 C.2   224  THR224      0.2313
     89  O         -5.6660   11.0610   -1.9080 O.2   224  THR224     -0.2863
     90  CB        -4.2870   10.4380    0.7470 C.3   224  THR224      0.1794
     91  OG1       -3.3290    9.5730    0.1160 O.3   224  THR224     -0.2208
     92  CG2       -4.1570   10.3380    2.2730 C.3   224  THR224      0.0378
     93  N         -4.0670    7.8290    5.2750 N.3   229  LEU229     -0.1245
     94  CA        -3.6920    8.8600    6.2350 C.3   229  LEU229      0.1561
     95  C         -3.8900    8.3360    7.6620 C.2   229  LEU229      0.2260
     96  O         -4.9200    7.7470    7.9750 O.2   229  LEU229     -0.2867
     97  CB        -4.5420   10.1180    6.0040 C.3   229  LEU229      0.0270
     98  CG        -4.3590   11.3060    6.9510 C.3   229  LEU229      0.0019
     99  CD1       -3.4580   12.3960    6.3530 C.3   229  LEU229      0.0001
    100  CD2       -5.7280   11.8640    7.3530 C.3   229  LEU229      0.0001
    101  N         -6.5380   12.5410   11.2640 N.3   232  PHE232     -0.1227
    102  CA        -7.0790   13.8940   11.0950 C.3   232  PHE232      0.1736
    103  C         -7.0220   14.5910   12.4640 C.2   232  PHE232      0.2595
    104  O         -7.5800   14.0610   13.4280 O.2   232  PHE232     -0.2718
    105  CB        -8.5630   13.8420   10.7200 C.3   232  PHE232      0.0547
    106  CG        -8.8520   13.2750    9.3630 C.ar  232  PHE232     -0.0202
    107  CD1       -9.5460   12.0750    9.2420 C.ar  232  PHE232     -0.0042
    108  CD2       -8.4780   13.9580    8.2090 C.ar  232  PHE232     -0.0042
    109  CE1       -9.8400   11.5440    7.9910 C.ar  232  PHE232     -0.0003
    110  CE2       -8.7590   13.4300    6.9470 C.ar  232  PHE232     -0.0003
    111  CZ        -9.4470   12.2220    6.8430 C.ar  232  PHE232     -0.0000
    112  N         -6.4070   15.7680   12.5860 N.am  233  ASP233     -0.1974
    113  CA        -5.6460   16.4340   11.5490 C.3   233  ASP233      0.1709
    114  C         -4.2250   16.5900   12.0660 C.2   233  ASP233      0.2293
    115  O         -4.0060   16.8880   13.2480 O.2   233  ASP233     -0.2864
    116  CB        -6.2130   17.8310   11.2590 C.3   233  ASP233      0.1436
    117  CG        -7.6160   17.7970   10.6710 C.2   233  ASP233      0.3671
    118  OD1       -7.8810   16.9650    9.7780 O.co2 233  ASP233     -0.2456
    119  OD2       -8.4510   18.6270   11.0870 O.co2 233  ASP233     -0.2456
    120  N        -24.0920    8.4940    1.7460 N.3   443  THR443     -0.1203
    121  CA       -23.8530    9.7430    2.4670 C.3   443  THR443      0.1994
    122  C        -23.4940    9.4230    3.9160 C.2   443  THR443      0.2618
    123  O        -24.1870    8.6480    4.5790 O.2   443  THR443     -0.2717
    124  CB       -25.1080   10.6680    2.4110 C.3   443  THR443      0.1784
    125  OG1      -25.2980   11.1330    1.0710 O.3   443  THR443     -0.2211
    126  CG2      -24.9600   11.8800    3.3330 C.3   443  THR443      0.0376
    127  N        -22.4110   10.0180    4.4040 N.am  444  CYS444     -0.1955
    128  CA       -21.9580    9.7700    5.7720 C.3   444  CYS444      0.1843
    129  C        -22.5900   10.7570    6.7440 C.2   444  CYS444      0.2625
    130  O        -22.7740   11.9290    6.4180 O.2   444  CYS444     -0.2714
    131  CB       -20.4330    9.8280    5.8560 C.3   444  CYS444      0.0997
    132  SG       -19.5470    8.8700    4.5670 S.3   444  CYS444     -0.0797
    133  N        -22.9170   10.2700    7.9370 N.am  445  ALA445     -0.1963
    134  CA       -23.5480   11.0800    8.9770 C.3   445  ALA445      0.1728
    135  C        -22.6440   11.2230   10.2010 C.2   445  ALA445      0.2616
    136  O        -22.1030   10.2300   10.6970 O.2   445  ALA445     -0.2715
    137  CB       -24.8740   10.4550    9.3890 C.3   445  ALA445      0.0334
    138  N        -22.4790   12.4540   10.6790 N.am  446  ALA446     -0.1977
    139  CA       -21.8430   12.6860   11.9680 C.3   446  ALA446      0.1597
    140  C        -22.8700   12.3530   13.0430 C.2   446  ALA446      0.2287
    141  O        -23.8090   13.1180   13.2790 O.2   446  ALA446     -0.2864
    142  CB       -21.3730   14.1290   12.0910 C.3   446  ALA446      0.0319
@<TRIPOS>BOND
     1    83    81   ar
     2    83    85   ar
     3    80    81   ar
     4    80    78   ar
     5    81    79   ar
     6    85    84   ar
     7    89    88    2
     8    78    77   ar
     9    88    87    1
    10    79    77   ar
    11    79    82   ar
    12    84    82   ar
    13    77    76    1
    14    91    90    1
    15    87    90    1
    16    87    86    1
    17    90    92    1
    18    75    74    2
    19    76    73    1
    20    86    74   am
    21   125   124    1
    22    74    73    1
    23   120   121    1
    24    73    72    1
    25   124   121    1
    26   124   126    1
    27   121   122    1
    28   122   127   am
    29   122   123    2
    30    69    68    2
    31    67    66    1
    32    67    68    1
    33    67    70    1
    34   127   128    1
    35   132   131    1
    36    71    70    1
    37    93    94    1
    38   128   131    1
    39   128   129    1
    40    97    94    1
    41    97    98    1
    42    94    95    1
    43    99    98    1
    44   130   129    2
    45   129   133   am
    46   111   110   ar
    47   111   109   ar
    48   110   108   ar
    49    98   100    1
    50    57    56    2
    51    54    55    1
    52    56    55    1
    53    95    96    2
    54    55    58    1
    55   133   134    1
    56   109   107   ar
    57   108   106   ar
    58    53    51   ar
    59    52    51   ar
    60   134   137    1
    61   134   135    1
    62    60    62   ar
    63    60    59   ar
    64    51    50    1
    65    58    59    1
    66   107   106   ar
    67   106   105    1
    68    48    47    2
    69    45    46    1
    70    46    47    1
    71    46    49    1
    72    62    64   ar
    73   118   117   ar
    74    59    61   ar
    75   135   138   am
    76   135   136    2
    77    50    49    1
    78   117   119   ar
    79   117   116    1
    80   138   139    1
    81   105   102    1
    82    64    65    1
    83    64    63   ar
    84    61    63   ar
    85   102   101    1
    86   102   103    1
    87   116   113    1
    88   113   114    1
    89   113   112    1
    90   139   142    1
    91   139   140    1
    92   114   115    2
    93   103   112   am
    94   103   104    2
    95    14    13   ar
    96    14    12   ar
    97    13    11   ar
    98    42    41    2
    99   140   141    2
   100    12    10   ar
   101    44    43    1
   102    22    20   am
   103    43    40    1
   104    41    40    1
   105    11     8   ar
   106    21    20    2
   107    20    19    1
   108    10     8   ar
   109    10     9   ar
   110    40    39    1
   111     8     6   ar
   112     9     7   ar
   113    19    16    1
   114     6     7   ar
   115     6     5    1
   116    16    15    1
   117    16    17    1
   118     4     3    2
   119    18    17    2
   120     5     2    1
   121    15     3   am
   122    17    23   am
   123     3     2    1
   124    38    36    1
   125     2     1    1
   126    23    24    1
   127    26    25    2
   128    36    33    1
   129    36    37    1
   130    25    24    1
   131    25    32   am
   132    33    32    1
   133    33    34    1
   134    24    27    1
   135    30    29    2
   136    34    35    2
   137    29    31   am
   138    29    28    1
   139    27    28    1
