@<TRIPOS>MOLECULE
tmp/3eqaA01.pdb
 206 200 0 0 0
SMALL
GASTEIGER

@<TRIPOS>ATOM
      1  N          9.5150  -19.0400   22.6630 N.3     8  VAL8       -0.1245
      2  CA         9.8980  -18.0320   23.6510 C.3     8  VAL8        0.1561
      3  C          8.7610  -17.0220   23.8190 C.2     8  VAL8        0.2260
      4  O          8.4060  -16.6750   24.9460 O.2     8  VAL8       -0.2867
      5  CB        11.2240  -17.3360   23.2690 C.3     8  VAL8        0.0252
      6  CG1       11.4930  -16.1380   24.1670 C.3     8  VAL8        0.0019
      7  CG2       12.3790  -18.3170   23.3570 C.3     8  VAL8        0.0019
      8  N          7.0320  -15.8590   27.2680 N.3    12  ALA12      -0.1245
      9  CA         7.3540  -14.4680   27.6150 C.3    12  ALA12       0.1562
     10  C          6.0980  -13.6640   27.9060 C.2    12  ALA12       0.2260
     11  O          6.0570  -12.9180   28.8850 O.2    12  ALA12      -0.2867
     12  CB         8.1720  -13.8090   26.5100 C.3    12  ALA12       0.0290
     13  N          4.7650  -14.6800   31.1840 N.3    15  ASN15      -0.1240
     14  CA         5.6250  -14.0570   32.2080 C.3    15  ASN15       0.1653
     15  C          5.2110  -12.6070   32.5240 C.2    15  ASN15       0.2266
     16  O          5.5640  -12.0670   33.5730 O.2    15  ASN15      -0.2867
     17  CB         7.0970  -14.0310   31.7860 C.3    15  ASN15       0.1155
     18  CG         7.7640  -15.3930   31.7980 C.2    15  ASN15       0.2627
     19  OD1        7.2890  -16.3480   32.4120 O.2    15  ASN15      -0.2716
     20  ND2        8.9030  -15.4760   31.1170 N.am   15  ASN15      -0.0877
     21  N          6.2290  -14.5810   35.9200 N.3    22  ALA22      -0.1231
     22  CA         7.5200  -14.4490   36.6290 C.3    22  ALA22       0.1694
     23  C          8.1040  -13.0370   36.6520 C.2    22  ALA22       0.2592
     24  O          8.8410  -12.6720   37.5790 O.2    22  ALA22      -0.2718
     25  CB         8.5440  -15.4160   36.0640 C.3    22  ALA22       0.0304
     26  N          7.7940  -12.2500   35.6280 N.am   23  TRP23      -0.1962
     27  CA         8.3750  -10.9140   35.5130 C.3    23  TRP23       0.1771
     28  C          7.5240   -9.8030   36.1250 C.2    23  TRP23       0.2619
     29  O          7.9680   -8.6560   36.1670 O.2    23  TRP23      -0.2715
     30  CB         8.6680  -10.5770   34.0490 C.3    23  TRP23       0.0590
     31  CG         9.6910  -11.4580   33.4050 C.ar   23  TRP23       0.0006
     32  CD1       10.6670  -12.2000   34.0330 C.ar   23  TRP23       0.0946
     33  CD2        9.8730  -11.6660   32.0020 C.ar   23  TRP23       0.0152
     34  NE1       11.4250  -12.8620   33.1030 N.ar   23  TRP23      -0.2442
     35  CE2       10.9650  -12.5500   31.8490 C.ar   23  TRP23       0.0810
     36  CE3        9.2230  -11.1900   30.8580 C.ar   23  TRP23       0.0012
     37  CZ2       11.4190  -12.9700   30.5920 C.ar   23  TRP23       0.0191
     38  CZ3        9.6700  -11.6190   29.6080 C.ar   23  TRP23       0.0001
     39  CH2       10.7610  -12.4920   29.4880 C.ar   23  TRP23       0.0015
     40  N          6.3200  -10.1320   36.5990 N.am   24  VAL24      -0.1963
     41  CA         5.3600   -9.0940   37.0020 C.3    24  VAL24       0.1727
     42  C          4.6720   -9.3020   38.3570 C.2    24  VAL24       0.2617
     43  O          3.4880   -9.0090   38.5010 O.2    24  VAL24      -0.2715
     44  CB         4.2900   -8.8220   35.8870 C.3    24  VAL24       0.0290
     45  CG1        4.9620   -8.2890   34.6240 C.3    24  VAL24       0.0023
     46  CG2        3.4590  -10.0760   35.5940 C.3    24  VAL24       0.0023
     47  N          5.4160   -9.7870   39.3520 N.am   25  SER25      -0.1936
     48  CA         4.8790   -9.8750   40.7170 C.3    25  SER25       0.2055
     49  C          4.3260   -8.5060   41.1210 C.2    25  SER25       0.2643
     50  O          4.9710   -7.4860   40.9010 O.2    25  SER25      -0.2714
     51  CB         5.9640  -10.3180   41.7000 C.3    25  SER25       0.2130
     52  OG         5.4090  -10.5620   42.9820 O.3    25  SER25      -0.2179
     53  N          3.1310   -8.4960   41.7020 N.am   26  GLY26      -0.1954
     54  CA         2.4450   -7.2530   42.0450 C.3    26  GLY26       0.1869
     55  C          1.2420   -7.0200   41.1460 C.2    26  GLY26       0.2309
     56  O          0.2740   -6.3710   41.5520 O.2    26  GLY26      -0.2863
     57  N          7.8930   -5.5050   31.8850 N.3    36  PRO36      -0.2102
     58  CA         8.3160   -5.5190   33.2980 C.3    36  PRO36       0.1504
     59  C          9.1690   -4.3050   33.7130 C.2    36  PRO36       0.2576
     60  O          9.4760   -4.1380   34.9000 O.2    36  PRO36      -0.2718
     61  CB         9.1390   -6.8170   33.4020 C.3    36  PRO36       0.0282
     62  CG         9.6710   -7.0460   32.0360 C.3    36  PRO36       0.0208
     63  CD         8.5640   -6.5670   31.1040 C.3    36  PRO36       0.0893
     64  N          9.5480   -3.4760   32.7460 N.am   37  SER37      -0.1938
     65  CA        10.3750   -2.2860   32.9950 C.3    37  SER37       0.2055
     66  C          9.6310   -1.2530   33.8510 C.2    37  SER37       0.2644
     67  O          8.5590   -0.7810   33.4670 O.2    37  SER37      -0.2714
     68  CB        10.7990   -1.6590   31.6630 C.3    37  SER37       0.2130
     69  OG        11.8330   -0.7040   31.8490 O.3    37  SER37      -0.2179
     70  N         10.1990   -0.9220   35.0120 N.am   38  THR38      -0.1936
     71  CA         9.5880    0.0530   35.9290 C.3    38  THR38       0.2028
     72  C         10.2940    1.4200   35.9120 C.2    38  THR38       0.2642
     73  O          9.8950    2.3380   36.6340 O.2    38  THR38      -0.2714
     74  CB         9.5700   -0.4580   37.3970 C.3    38  THR38       0.1808
     75  OG1       10.9170   -0.6080   37.8660 O.3    38  THR38      -0.2208
     76  CG2        8.8160   -1.7810   37.5300 C.3    38  THR38       0.0379
     77  N         11.3520    1.5400   35.1140 N.am   39  ASP39      -0.1957
     78  CA        12.1290    2.7710   35.0300 C.3    39  ASP39       0.1840
     79  C         12.9060    2.7740   33.7330 C.2    39  ASP39       0.2622
     80  O         13.4300    1.7440   33.3180 O.2    39  ASP39      -0.2715
     81  CB        13.1100    2.9100   36.2090 C.3    39  ASP39       0.1450
     82  CG        13.5440    4.3590   36.4520 C.2    39  ASP39       0.3671
     83  OD1       14.7530    4.6010   36.6860 O.co2  39  ASP39      -0.2456
     84  OD2       12.6770    5.2650   36.4170 O.co2  39  ASP39      -0.2456
     85  N         12.9510    3.9360   33.0930 N.am   40  ASN40      -0.1959
     86  CA        13.7760    4.1660   31.9060 C.3    40  ASN40       0.1804
     87  C         13.6030    3.1570   30.7710 C.2    40  ASN40       0.2463
     88  O         14.5900    2.5990   30.2950 O.2    40  ASN40      -0.2730
     89  CB        15.2540    4.2610   32.3140 C.3    40  ASN40       0.1195
     90  CG        15.5320    5.4460   33.2160 C.2    40  ASN40       0.2630
     91  OD1       14.8840    6.4920   33.1040 O.2    40  ASN40      -0.2716
     92  ND2       16.5100    5.2990   34.1060 N.am   40  ASN40      -0.0877
     93  N         12.3590    2.9520   30.2940 N.am   41  PRO41      -0.2727
     94  CA        11.1000    3.6060   30.6560 C.3    41  PRO41       0.1402
     95  C         10.2360    2.8420   31.6630 C.2    41  PRO41       0.2269
     96  O         10.4410    1.6450   31.8870 O.2    41  PRO41      -0.2865
     97  CB        10.3730    3.6730   29.3190 C.3    41  PRO41       0.0296
     98  CG        10.8440    2.4180   28.5850 C.3    41  PRO41       0.0237
     99  CD        12.1550    1.9810   29.2000 C.3    41  PRO41       0.0939
    100  N          5.4490   -0.3930   33.5290 N.3    44  PHE44      -0.1241
    101  CA         4.8280   -1.2960   34.4920 C.3    44  PHE44       0.1605
    102  C          3.3850   -0.8580   34.7950 C.2    44  PHE44       0.2264
    103  O          3.0430   -0.4320   35.9090 O.2    44  PHE44      -0.2867
    104  CB         5.7050   -1.4120   35.7560 C.3    44  PHE44       0.0534
    105  CG         5.4270   -2.6410   36.5750 C.ar   44  PHE44      -0.0203
    106  CD1        5.7930   -3.9080   36.1050 C.ar   44  PHE44      -0.0042
    107  CD2        4.7940   -2.5400   37.8170 C.ar   44  PHE44      -0.0042
    108  CE1        5.5360   -5.0580   36.8580 C.ar   44  PHE44      -0.0003
    109  CE2        4.5370   -3.6950   38.5870 C.ar   44  PHE44      -0.0003
    110  CZ         4.9030   -4.9500   38.0980 C.ar   44  PHE44      -0.0000
    111  N         12.7940    8.2730   21.6320 N.3   307  TYR307     -0.1241
    112  CA        14.1190    7.6460   21.6660 C.3   307  TYR307      0.1605
    113  C         14.9620    7.9700   20.4270 C.2   307  TYR307      0.2264
    114  O         15.7990    7.1650   20.0170 O.2   307  TYR307     -0.2867
    115  CB        14.0050    6.1220   21.8850 C.3   307  TYR307      0.0534
    116  CG        13.7970    5.7300   23.3300 C.ar  307  TYR307     -0.0201
    117  CD1       14.8940    5.4560   24.1570 C.ar  307  TYR307     -0.0009
    118  CD2       12.5170    5.6470   23.8790 C.ar  307  TYR307     -0.0009
    119  CE1       14.7190    5.0990   25.4840 C.ar  307  TYR307      0.0417
    120  CE2       12.3260    5.2860   25.2120 C.ar  307  TYR307      0.0417
    121  CZ        13.4380    5.0140   26.0080 C.ar  307  TYR307      0.1957
    122  OH        13.2820    4.6570   27.3250 O.3   307  TYR307     -0.2866
    123  N         17.2480  -10.7210   20.9330 N.3   388  ALA388     -0.1245
    124  CA        18.3600  -11.2410   21.7370 C.3   388  ALA388      0.1562
    125  C         18.5840  -12.7320   21.4500 C.2   388  ALA388      0.2260
    126  O         17.6900  -13.4240   20.9400 O.2   388  ALA388     -0.2867
    127  CB        18.1180  -11.0030   23.2260 C.3   388  ALA388      0.0290
    128  N         18.6010  -15.1570   23.4130 N.3   390  ASN390     -0.1240
    129  CA        17.5670  -15.9380   24.1180 C.3   390  ASN390      0.1653
    130  C         16.1250  -15.6680   23.6390 C.2   390  ASN390      0.2266
    131  O         15.1550  -16.1910   24.2010 O.2   390  ASN390     -0.2867
    132  CB        17.7070  -15.8270   25.6530 C.3   390  ASN390      0.1155
    133  CG        17.3340  -14.4500   26.2130 C.2   390  ASN390      0.2627
    134  OD1       16.9860  -13.5140   25.4790 O.2   390  ASN390     -0.2716
    135  ND2       17.3940  -14.3430   27.5450 N.am  390  ASN390     -0.0877
    136  N         14.5940  -12.6210   23.4660 N.3   392  SER392     -0.1217
    137  CA        13.9890  -11.3990   24.0070 C.3   392  SER392      0.1889
    138  C         13.8030  -10.3360   22.9340 C.2   392  SER392      0.2288
    139  O         14.6630  -10.1520   22.0760 O.2   392  SER392     -0.2866
    140  CB        14.8100  -10.8270   25.1750 C.3   392  SER392      0.2089
    141  OG        14.3900  -11.3680   26.4210 O.3   392  SER392     -0.2183
    142  N         12.6160   -6.2100   22.8340 N.3   394  SER394     -0.1217
    143  CA        12.2280   -4.9300   23.4110 C.3   394  SER394      0.1889
    144  C         11.1420   -4.2740   22.5570 C.2   394  SER394      0.2288
    145  O         10.5740   -4.9030   21.6580 O.2   394  SER394     -0.2866
    146  CB        13.4420   -4.0060   23.5180 C.3   394  SER394      0.2089
    147  OG        14.4160   -4.5290   24.4050 O.3   394  SER394     -0.2183
    148  N         18.9250   -3.2040   20.8990 N.3   404  GLN404     -0.1231
    149  CA        17.6040   -3.0560   21.5220 C.3   404  GLN404      0.1698
    150  C         17.5580   -1.8450   22.4510 C.2   404  GLN404      0.2592
    151  O         18.5100   -1.5760   23.1860 O.2   404  GLN404     -0.2718
    152  CB        17.2040   -4.3310   22.2810 C.3   404  GLN404      0.0381
    153  CG        17.0840   -5.5730   21.4020 C.3   404  GLN404      0.0905
    154  CD        16.2640   -6.7010   22.0310 C.2   404  GLN404      0.2608
    155  OE1       15.9930   -6.7150   23.2380 O.2   404  GLN404     -0.2717
    156  NE2       15.8740   -7.6600   21.2050 N.am  404  GLN404     -0.0878
    157  N         16.4470   -1.1170   22.4180 N.am  405  LEU405     -0.1966
    158  CA        16.2610    0.0240   23.3150 C.3   405  LEU405      0.1728
    159  C         14.7960    0.2160   23.7030 C.2   405  LEU405      0.2617
    160  O         13.9130   -0.5180   23.2250 O.2   405  LEU405     -0.2715
    161  CB        16.8730    1.3130   22.7350 C.3   405  LEU405      0.0311
    162  CG        16.3030    2.0550   21.5290 C.3   405  LEU405      0.0022
    163  CD1       16.9690    3.4300   21.3840 C.3   405  LEU405      0.0001
    164  CD2       16.5150    1.2690   20.2770 C.3   405  LEU405      0.0001
    165  N         14.5580    1.1970   24.5740 N.am  406  SER406     -0.1936
    166  CA        13.2560    1.4000   25.2170 C.3   406  SER406      0.2055
    167  C         12.8770    0.1760   26.0630 C.2   406  SER406      0.2643
    168  O         13.7680   -0.5440   26.5310 O.2   406  SER406     -0.2714
    169  CB        12.1660    1.7740   24.1990 C.3   406  SER406      0.2130
    170  OG        10.9860    2.1880   24.8780 O.3   406  SER406     -0.2179
    171  N         11.5760   -0.0490   26.2770 N.am  407  ALA407     -0.1963
    172  CA        11.1070   -1.0720   27.2210 C.3   407  ALA407      0.1728
    173  C         11.5090   -2.4950   26.8270 C.2   407  ALA407      0.2616
    174  O         11.2530   -2.9390   25.7070 O.2   407  ALA407     -0.2715
    175  CB         9.5980   -0.9770   27.4120 C.3   407  ALA407      0.0334
    176  N         12.1470   -3.2050   27.7550 N.am  408  ARG408     -0.1963
    177  CA        12.5410   -4.5960   27.5080 C.3   408  ARG408      0.1729
    178  C         11.3270   -5.5160   27.5200 C.2   408  ARG408      0.2616
    179  O         10.3390   -5.2460   28.2160 O.2   408  ARG408     -0.2715
    180  CB        13.5510   -5.0680   28.5680 C.3   408  ARG408      0.0348
    181  CG        12.9490   -5.2800   29.9600 C.3   408  ARG408      0.0492
    182  CD        14.0110   -5.7460   30.9680 C.3   408  ARG408      0.2205
    183  NE        13.4760   -5.7390   32.3330 N.pl3 408  ARG408     -0.0865
    184  CZ        13.4810   -4.6880   33.1530 C.cat 408  ARG408      0.5346
    185  NH1       13.9970   -3.5200   32.7710 N.pl3 408  ARG408      0.1354
    186  NH2       12.9510   -4.8020   34.3610 N.pl3 408  ARG408      0.1354
    187  N         11.4040   -6.6080   26.7590 N.am  409  ASP409     -0.1971
    188  CA        10.4080   -7.6790   26.8740 C.3   409  ASP409      0.1709
    189  C          8.9800   -7.1440   26.7300 C.2   409  ASP409      0.2293
    190  O          8.1050   -7.3730   27.5840 O.2   409  ASP409     -0.2864
    191  CB        10.6050   -8.4380   28.1940 C.3   409  ASP409      0.1436
    192  CG        11.8960   -9.2380   28.2070 C.2   409  ASP409      0.3671
    193  OD1       12.0630  -10.0980   27.3130 O.co2 409  ASP409     -0.2456
    194  OD2       12.7450   -9.0040   29.0970 O.co2 409  ASP409     -0.2456
    195  N          5.9740   -9.6240   21.4900 N.3   414  TYR414     -0.1241
    196  CA         5.8020  -11.0770   21.4790 C.3   414  TYR414      0.1605
    197  C          4.5350  -11.5060   20.7390 C.2   414  TYR414      0.2264
    198  O          4.5840  -12.4380   19.9400 O.2   414  TYR414     -0.2867
    199  CB         5.8570  -11.6500   22.8950 C.3   414  TYR414      0.0534
    200  CG         7.2230  -11.4620   23.5270 C.ar  414  TYR414     -0.0201
    201  CD1        8.3560  -12.0210   22.9430 C.ar  414  TYR414     -0.0009
    202  CD2        7.3780  -10.7190   24.6910 C.ar  414  TYR414     -0.0009
    203  CE1        9.6240  -11.8530   23.5120 C.ar  414  TYR414      0.0417
    204  CE2        8.6370  -10.5270   25.2580 C.ar  414  TYR414      0.0417
    205  CZ         9.7460  -11.1000   24.6670 C.ar  414  TYR414      0.1957
    206  OH        10.9800  -10.9180   25.2150 O.3   414  TYR414     -0.2866
@<TRIPOS>BOND
     1   198   197    2
     2   114   113    2
     3   164   162    1
     4   113   112    1
     5   197   196    1
     6   148   149    1
     7   123   124    1
     8   126   125    2
     9   156   154   am
    10   163   162    1
    11   153   154    1
    12   153   152    1
    13   125   124    1
    14   196   195    1
    15   196   199    1
    16   149   152    1
    17   149   150    1
    18   162   161    1
    19   111   112    1
    20   145   144    2
    21   112   115    1
    22   124   127    1
    23   115   116    1
    24   154   155    2
    25   139   138    2
    26   157   150   am
    27   157   158    1
    28   150   151    2
    29   144   143    1
    30     1     2    1
    31   161   158    1
    32   142   143    1
    33   199   200    1
    34   138   137    1
    35   201   203   ar
    36   201   200   ar
    37   160   159    2
    38     5     7    1
    39     5     2    1
    40     5     6    1
    41   158   159    1
    42   116   118   ar
    43   116   117   ar
    44   143   146    1
    45   128   129    1
    46   136   137    1
    47   203   205   ar
    48   146   147    1
    49   200   202   ar
    50   130   129    1
    51   130   131    2
    52     2     3    1
    53   159   165   am
    54     3     4    2
    55   118   120   ar
    56   137   140    1
    57   129   132    1
    58   117   119   ar
    59   169   170    1
    60   169   166    1
    61   165   166    1
    62   205   206    1
    63   205   204   ar
    64   202   204   ar
    65   140   141    1
    66   120   121   ar
    67   166   167    1
    68   134   133    2
    69   119   121   ar
    70   132   133    1
    71   174   173    2
    72   121   122    1
    73   167   171   am
    74   167   168    2
    75   133   135   am
    76   171   172    1
    77    12     9    1
    78   189   188    1
    79   189   190    2
    80   187   188    1
    81   187   178   am
    82   173   172    1
    83   173   176   am
    84   188   191    1
    85   172   175    1
    86     8     9    1
    87   193   192   ar
    88   177   178    1
    89   177   176    1
    90   177   180    1
    91   178   179    2
    92     9    10    1
    93    10    11    2
    94   191   192    1
    95   192   194   ar
    96   180   181    1
    97    98    99    1
    98    98    97    1
    99    99    93    1
   100    97    94    1
   101    39    38   ar
   102    39    37   ar
   103    38    36   ar
   104   181   182    1
   105    93    94    1
   106    93    87   am
   107    88    87    2
   108    37    35   ar
   109    94    95    1
   110    87    86    1
   111    36    33   ar
   112   182   183    1
   113    63    57    1
   114    63    62    1
   115    20    18   am
   116    13    14    1
   117    68    69    1
   118    68    65    1
   119    95    96    2
   120    17    18    1
   121    17    14    1
   122    18    19    2
   123    35    33   ar
   124    35    34   ar
   125    57    58    1
   126    86    89    1
   127    86    85    1
   128    33    31   ar
   129    62    61    1
   130    14    15    1
   131    89    90    1
   132   183   184    2
   133    15    16    2
   134    64    65    1
   135    64    59   am
   136   185   184    1
   137    65    66    1
   138    85    79   am
   139    34    32   ar
   140    91    90    2
   141   184   186    1
   142    90    92   am
   143    58    61    1
   144    58    59    1
   145    80    79    2
   146    31    32   ar
   147    31    30    1
   148    67    66    2
   149   100   101    1
   150    59    60    2
   151    79    78    1
   152    66    70   am
   153    30    27    1
   154   101   102    1
   155   101   104    1
   156    45    44    1
   157   102   103    2
   158    70    71    1
   159    78    77    1
   160    78    81    1
   161    77    72   am
   162    27    26    1
   163    27    28    1
   164    46    44    1
   165    26    23   am
   166   104   105    1
   167    44    41    1
   168    72    71    1
   169    72    73    2
   170    21    22    1
   171    71    74    1
   172    25    22    1
   173   106   105   ar
   174   106   108   ar
   175    28    29    2
   176    28    40   am
   177    81    82    1
   178    84    82   ar
   179    82    83   ar
   180   105   107   ar
   181    40    41    1
   182    22    23    1
   183    23    24    2
   184   108   110   ar
   185    41    42    1
   186    74    76    1
   187    74    75    1
   188   107   109   ar
   189   110   109   ar
   190    42    43    2
   191    42    47   am
   192    47    48    1
   193    48    49    1
   194    48    51    1
   195    50    49    2
   196    49    53   am
   197    55    56    2
   198    55    54    1
   199    51    52    1
   200    53    54    1
