@<TRIPOS>MOLECULE
tmp/3eqbA01.pdb
 181 170 0 0 0
SMALL
GASTEIGER

@<TRIPOS>ATOM
      1  N         46.4250   -3.8830    6.8860 N.3    17  GLY17      -0.1210
      2  CA        46.2310   -3.2360    5.5970 C.3    17  GLY17       0.1956
      3  C         44.8930   -3.3720    4.9020 C.2    17  GLY17       0.2612
      4  O         44.7130   -4.2800    4.0860 O.2    17  GLY17      -0.2717
      5  N         43.9540   -2.4700    5.1930 N.am   18  ASN18      -0.1960
      6  CA        42.7290   -2.3680    4.3690 C.3    18  ASN18       0.1819
      7  C         41.4620   -3.0710    4.8760 C.2    18  ASN18       0.2622
      8  O         40.6840   -3.6050    4.0760 O.2    18  ASN18      -0.2715
      9  CB        43.0080   -2.8310    2.9220 C.3    18  ASN18       0.1195
     10  CG        43.4590   -1.6860    2.0120 C.2    18  ASN18       0.2630
     11  OD1       42.7540   -1.3190    1.0620 O.2    18  ASN18      -0.2716
     12  ND2       44.6260   -1.1000    2.3140 N.am   18  ASN18      -0.0877
     13  N         41.2410   -3.0620    6.1880 N.am   19  GLY19      -0.1940
     14  CA        40.0770   -3.7540    6.7530 C.3    19  GLY19       0.2014
     15  C         40.0460   -3.8040    8.2730 C.2    19  GLY19       0.2639
     16  O         39.1240   -3.2500    8.9020 O.2    19  GLY19      -0.2714
     17  N         41.0360   -4.4720    8.8800 N.am   20  GLY20      -0.1954
     18  CA        42.1300   -5.1500    8.1680 C.3    20  GLY20       0.1869
     19  C         43.4370   -4.9770    8.9320 C.2    20  GLY20       0.2309
     20  O         44.2740   -4.1430    8.5650 O.2    20  GLY20      -0.2863
     21  N         43.1520  -11.5570   13.7700 N.3    37  LYS37      -0.1245
     22  CA        42.8190  -10.6020   12.7340 C.3    37  LYS37       0.1561
     23  C         41.4660   -9.9770   13.0080 C.2    37  LYS37       0.2260
     24  O         40.4710  -10.6850   13.2080 O.2    37  LYS37      -0.2867
     25  CB        42.7820  -11.2660   11.3740 C.3    37  LYS37       0.0271
     26  CG        42.2840  -10.3460   10.2860 C.3    37  LYS37       0.0035
     27  CD        42.3860  -11.0080    8.9380 C.3    37  LYS37       0.0206
     28  CE        43.0630  -10.0830    7.9670 C.3    37  LYS37       0.1093
     29  NZ        43.8110  -10.8380    6.9300 N.3    37  LYS37      -0.1314
     30  N         38.4900   -7.5390   11.5910 N.3    39  ILE39      -0.1245
     31  CA        37.8590   -6.9400   10.4220 C.3    39  ILE39       0.1561
     32  C         36.6810   -6.0880   10.8330 C.2    39  ILE39       0.2260
     33  O         35.6860   -6.5920   11.3490 O.2    39  ILE39      -0.2867
     34  CB        37.3630   -7.9950    9.4270 C.3    39  ILE39       0.0252
     35  CG1       38.5310   -8.8530    8.9380 C.3    39  ILE39       0.0019
     36  CG2       36.6560   -7.3190    8.2530 C.3    39  ILE39       0.0019
     37  CD1       38.1110  -10.0720    8.1500 C.3    39  ILE39       0.0001
     38  N         32.2490  -19.0730    8.9470 N.3    55  LEU55      -0.1245
     39  CA        33.6730  -19.1940    9.2490 C.3    55  LEU55       0.1561
     40  C         34.0000  -20.4730    9.9990 C.2    55  LEU55       0.2260
     41  O         35.1600  -20.8660   10.0800 O.2    55  LEU55      -0.2867
     42  CB        34.1410  -17.9940   10.0630 C.3    55  LEU55       0.0270
     43  CG        34.3330  -16.7370    9.2330 C.3    55  LEU55       0.0019
     44  CD1       34.7290  -15.5500   10.0900 C.3    55  LEU55       0.0001
     45  CD2       35.3840  -17.0240    8.2020 C.3    55  LEU55       0.0001
     46  N         36.1910  -23.2880    8.6720 N.3    58  LEU58      -0.1245
     47  CA        37.6280  -23.2270    8.9010 C.3    58  LEU58       0.1561
     48  C         38.1350  -24.2650    9.9310 C.2    58  LEU58       0.2260
     49  O         39.2930  -24.6810    9.8710 O.2    58  LEU58      -0.2867
     50  CB        38.0470  -21.8110    9.2940 C.3    58  LEU58       0.0270
     51  CG        37.9790  -20.7850    8.1610 C.3    58  LEU58       0.0019
     52  CD1       38.1320  -19.3810    8.7070 C.3    58  LEU58       0.0001
     53  CD2       39.0380  -21.0550    7.0910 C.3    58  LEU58       0.0001
     54  N         47.6940  -25.2600    4.8490 N.3    66  ILE66      -0.1231
     55  CA        46.6900  -24.2710    5.2230 C.3    66  ILE66       0.1692
     56  C         46.9220  -23.7750    6.6370 C.2    66  ILE66       0.2592
     57  O         46.9930  -24.5620    7.5670 O.2    66  ILE66      -0.2718
     58  CB        45.2540  -24.8380    5.1840 C.3    66  ILE66       0.0266
     59  CG1       44.8060  -25.0840    3.7470 C.3    66  ILE66       0.0019
     60  CG2       44.2970  -23.8980    5.9190 C.3    66  ILE66       0.0020
     61  CD1       45.5990  -24.2980    2.7180 C.3    66  ILE66       0.0001
     62  N         47.0020  -22.4590    6.7960 N.am   67  VAL67      -0.1966
     63  CA        47.1570  -21.8610    8.1130 C.3    67  VAL67       0.1727
     64  C         46.0620  -22.3320    9.0640 C.2    67  VAL67       0.2617
     65  O         44.8870  -22.3050    8.7120 O.2    67  VAL67      -0.2715
     66  CB        47.1330  -20.3280    8.0430 C.3    67  VAL67       0.0290
     67  CG1       47.0200  -19.7350    9.4600 C.3    67  VAL67       0.0023
     68  CG2       48.3720  -19.8050    7.2990 C.3    67  VAL67       0.0023
     69  N         46.4720  -22.7660   10.2600 N.am   68  GLY68      -0.1940
     70  CA        45.5750  -23.3370   11.2640 C.3    68  GLY68       0.2014
     71  C         44.6200  -22.3080   11.8170 C.2    68  GLY68       0.2638
     72  O         44.9830  -21.1500   11.9540 O.2    68  GLY68      -0.2714
     73  N         43.4080  -22.7520   12.1430 N.am   69  PHE69      -0.1973
     74  CA        42.3220  -21.9090   12.6050 C.3    69  PHE69       0.1639
     75  C         41.9110  -22.3230   14.0200 C.2    69  PHE69       0.2290
     76  O         41.8560  -23.5210   14.3200 O.2    69  PHE69      -0.2864
     77  CB        41.1460  -22.0860   11.6460 C.3    69  PHE69       0.0560
     78  CG        39.8600  -21.4100   12.0820 C.ar   69  PHE69      -0.0200
     79  CD1       38.7940  -22.1620   12.5430 C.ar   69  PHE69      -0.0042
     80  CD2       39.7090  -20.0400   11.9840 C.ar   69  PHE69      -0.0042
     81  CE1       37.5980  -21.5580   12.9100 C.ar   69  PHE69      -0.0003
     82  CE2       38.5280  -19.4240   12.3550 C.ar   69  PHE69      -0.0003
     83  CZ        37.4650  -20.1810   12.8110 C.ar   69  PHE69      -0.0000
     84  N         39.1390  -13.2100   13.5610 N.3    81  ILE81      -0.1245
     85  CA        39.5340  -14.5510   13.1530 C.3    81  ILE81       0.1561
     86  C         40.8900  -14.8520   13.7740 C.2    81  ILE81       0.2260
     87  O         41.8550  -14.1070   13.5830 O.2    81  ILE81      -0.2867
     88  CB        39.5980  -14.6850   11.6200 C.3    81  ILE81       0.0252
     89  CG1       38.2450  -14.3240   11.0010 C.3    81  ILE81       0.0019
     90  CG2       39.9700  -16.0960   11.2160 C.3    81  ILE81       0.0019
     91  CD1       38.3490  -13.7920    9.5940 C.3    81  ILE81       0.0001
     92  N         44.1490  -17.2880   14.3260 N.3    83  MET83      -0.1245
     93  CA        44.8970  -18.3090   13.6220 C.3    83  MET83       0.1570
     94  C         46.2630  -18.5940   14.2650 C.2    83  MET83       0.2261
     95  O         46.7710  -17.8300   15.0940 O.2    83  MET83      -0.2867
     96  CB        45.0350  -17.9280   12.1340 C.3    83  MET83       0.0387
     97  CG        45.3590  -16.4680   11.9260 C.3    83  MET83       0.0595
     98  SD        45.4260  -15.8280   10.2320 S.3    83  MET83      -0.1393
     99  CE        45.0940  -14.0980   10.6030 C.3    83  MET83       0.0692
    100  N         42.3970  -14.5340   -3.3580 N.3   130  ASP130     -0.1239
    101  CA        43.3280  -13.4640   -2.9790 C.3   130  ASP130      0.1674
    102  C         44.7490  -14.0580   -2.7610 C.2   130  ASP130      0.2266
    103  O         45.3650  -13.9070   -1.7050 O.2   130  ASP130     -0.2867
    104  CB        42.8060  -12.7890   -1.7160 C.3   130  ASP130      0.1410
    105  CG        43.3820  -11.3930   -1.4930 C.2   130  ASP130      0.3668
    106  OD1       43.1570  -10.8150   -0.4060 O.co2 130  ASP130     -0.2456
    107  OD2       44.0570  -10.8570   -2.3970 O.co2 130  ASP130     -0.2456
    108  N         49.5530  -13.2670    1.4860 N.3   135  ASN135     -0.1240
    109  CA        48.6210  -14.2800    1.9670 C.3   135  ASN135      0.1653
    110  C         49.2530  -15.6710    1.9010 C.2   135  ASN135      0.2266
    111  O         48.5530  -16.7060    1.9300 O.2   135  ASN135     -0.2867
    112  CB        47.3090  -14.2030    1.1930 C.3   135  ASN135      0.1155
    113  CG        46.5090  -12.9340    1.5400 C.2   135  ASN135      0.2627
    114  OD1       46.7720  -12.2910    2.5700 O.2   135  ASN135     -0.2716
    115  ND2       45.5350  -12.5740    0.6900 N.am  135  ASN135     -0.0877
    116  N         46.6720  -18.3710    3.8350 N.3   147  CYS147     -0.1221
    117  CA        45.5440  -17.9030    4.6410 C.3   147  CYS147      0.1808
    118  C         44.6180  -17.0340    3.8020 C.2   147  CYS147      0.2601
    119  O         44.7250  -16.9970    2.5820 O.2   147  CYS147     -0.2717
    120  CB        46.0220  -17.0710    5.8230 C.3   147  CYS147      0.0970
    121  SG        47.0690  -15.6850    5.3200 S.3   147  CYS147     -0.0800
    122  N         43.7140  -16.3330    4.4730 N.am  148  ASP148     -0.1959
    123  CA        42.9020  -15.2950    3.8420 C.3   148  ASP148      0.1840
    124  C         42.1970  -15.7200    2.5500 C.2   148  ASP148      0.2622
    125  O         42.1430  -14.9600    1.6150 O.2   148  ASP148     -0.2715
    126  CB        43.7540  -14.0440    3.5970 C.3   148  ASP148      0.1450
    127  CG        44.2130  -13.4050    4.8770 C.2   148  ASP148      0.3671
    128  OD1       43.9180  -13.9780    5.9540 O.co2 148  ASP148     -0.2456
    129  OD2       44.8670  -12.3380    4.8280 O.co2 148  ASP148     -0.2456
    130  N         41.6500  -16.9230    2.5080 N.am  149  PHE149     -0.1960
    131  CA        40.9580  -17.3760    1.3150 C.3   149  PHE149      0.1771
    132  C         39.4440  -17.3120    1.4890 C.2   149  PHE149      0.2620
    133  O         38.9380  -17.0420    2.5840 O.2   149  PHE149     -0.2715
    134  CB        41.3910  -18.7910    0.9440 C.3   149  PHE149      0.0574
    135  CG        41.4670  -19.7220    2.1110 C.ar  149  PHE149     -0.0200
    136  CD1       40.3270  -20.3180    2.5980 C.ar  149  PHE149     -0.0042
    137  CD2       42.6880  -19.9970    2.7110 C.ar  149  PHE149     -0.0042
    138  CE1       40.3900  -21.1750    3.6710 C.ar  149  PHE149     -0.0003
    139  CE2       42.7700  -20.8470    3.7820 C.ar  149  PHE149     -0.0003
    140  CZ        41.6110  -21.4500    4.2630 C.ar  149  PHE149     -0.0000
    141  N         38.7180  -17.5850    0.4170 N.am  150  GLY150     -0.1940
    142  CA        37.3020  -17.2480    0.3810 C.3   150  GLY150      0.2014
    143  C         36.3500  -18.2670    0.9520 C.2   150  GLY150      0.2639
    144  O         35.5980  -18.8930    0.1970 O.2   150  GLY150     -0.2714
    145  N         36.3580  -18.4350    2.2760 N.am  151  VAL151     -0.1963
    146  CA        35.3900  -19.3340    2.9180 C.3   151  VAL151      0.1727
    147  C         33.9900  -18.7810    3.0490 C.2   151  VAL151      0.2616
    148  O         33.0410  -19.5440    3.0770 O.2   151  VAL151     -0.2715
    149  CB        35.7870  -19.7610    4.3600 C.3   151  VAL151      0.0290
    150  CG1       36.0150  -21.2670    4.4280 C.3   151  VAL151      0.0023
    151  CG2       36.9550  -18.9600    4.8700 C.3   151  VAL151      0.0023
    152  N         33.8590  -17.4710    3.1950 N.am  152  SER152     -0.1950
    153  CA        32.5630  -16.9150    3.5520 C.3   152  SER152      0.1924
    154  C         31.9310  -16.1450    2.4030 C.2   152  SER152      0.2314
    155  O         32.4240  -15.0770    2.0140 O.2   152  SER152     -0.2863
    156  CB        32.6800  -16.0140    4.7890 C.3   152  SER152      0.2116
    157  OG        31.4620  -15.3280    5.0220 O.3   152  SER152     -0.2180
    158  N         30.9180  -12.9280    3.4560 N.3   155  LEU155     -0.1231
    159  CA        32.0660  -12.0510    3.6720 C.3   155  LEU155      0.1693
    160  C         32.5810  -11.5740    2.3290 C.2   155  LEU155      0.2591
    161  O         33.0620  -10.4490    2.2120 O.2   155  LEU155     -0.2718
    162  CB        33.1780  -12.7650    4.4330 C.3   155  LEU155      0.0284
    163  CG        33.7620  -12.0740    5.6710 C.3   155  LEU155      0.0019
    164  CD1       35.2020  -12.4910    5.8300 C.3   155  LEU155      0.0001
    165  CD2       33.6490  -10.5640    5.6100 C.3   155  LEU155      0.0001
    166  N         32.4860  -12.4360    1.3150 N.am  156  ILE156     -0.1980
    167  CA        32.8520  -12.0510   -0.0400 C.3   156  ILE156      0.1595
    168  C         32.0040  -10.8510   -0.4420 C.2   156  ILE156      0.2287
    169  O         32.5220   -9.8510   -0.9440 O.2   156  ILE156     -0.2864
    170  CB        32.6020  -13.1860   -1.0310 C.3   156  ILE156      0.0276
    171  CG1       33.6700  -14.2720   -0.8850 C.3   156  ILE156      0.0022
    172  CG2       32.5980  -12.6540   -2.4500 C.3   156  ILE156      0.0022
    173  CD1       33.2960  -15.6100   -1.5290 C.3   156  ILE156      0.0001
    174  N         32.5410   -7.3090    1.5410 N.3   159  MET159     -0.1245
    175  CA        33.8290   -6.6390    1.4170 C.3   159  MET159      0.1570
    176  C         33.9090   -5.8460    0.1100 C.2   159  MET159      0.2261
    177  O         34.0950   -4.6250    0.1300 O.2   159  MET159     -0.2867
    178  CB        35.0100   -7.6170    1.5800 C.3   159  MET159      0.0387
    179  CG        34.9840   -8.4350    2.8920 C.3   159  MET159      0.0595
    180  SD        36.5880   -8.9820    3.5910 S.3   159  MET159     -0.1393
    181  CE        37.6770   -8.8880    2.1640 C.3   159  MET159      0.0692
@<TRIPOS>BOND
     1   100   101    1
     2   101   102    1
     3   101   104    1
     4   102   103    2
     5   172   170    1
     6   107   105   ar
     7   104   105    1
     8   173   171    1
     9   105   106   ar
    10   170   171    1
    11   170   167    1
    12   169   168    2
    13   168   167    1
    14   167   166    1
    15   176   177    2
    16   176   175    1
    17   144   143    2
    18   142   141    1
    19   142   143    1
    20   141   132   am
    21   115   113   am
    22   134   131    1
    23   134   135    1
    24   143   145   am
    25    11    10    2
    26   112   113    1
    27   112   109    1
    28   166   160   am
    29   131   132    1
    30   131   130    1
    31   175   174    1
    32   175   178    1
    33   108   109    1
    34   132   133    2
    35   113   114    2
    36   178   179    1
    37   125   124    2
    38   110   111    2
    39   110   109    1
    40    10    12   am
    41    10     9    1
    42   155   154    2
    43   135   136   ar
    44   135   137   ar
    45   181   180    1
    46   161   160    2
    47   145   146    1
    48   160   159    1
    49   154   153    1
    50   130   124   am
    51   124   123    1
    52   119   118    2
    53   136   138   ar
    54   137   139   ar
    55    61    59    1
    56   179   180    1
    57   146   147    1
    58   146   149    1
    59     9     6    1
    60   147   148    2
    61   147   152   am
    62   152   153    1
    63   158   159    1
    64   153   156    1
    65   126   123    1
    66   126   127    1
    67   138   140   ar
    68   159   162    1
    69    59    58    1
    70   139   140   ar
    71   118   122   am
    72   118   117    1
    73   116   117    1
    74   123   122    1
    75     8     7    2
    76     4     3    2
    77   149   150    1
    78   149   151    1
    79     6     7    1
    80     6     5    1
    81   162   163    1
    82   117   120    1
    83   156   157    1
    84   129   127   ar
    85    54    55    1
    86     7    13   am
    87   127   128   ar
    88     3     5   am
    89     3     2    1
    90    58    55    1
    91    58    60    1
    92    55    56    1
    93   121   120    1
    94     2     1    1
    95   165   163    1
    96   163   164    1
    97    13    14    1
    98    56    62   am
    99    56    57    2
   100    14    15    1
   101    62    63    1
   102    29    28    1
   103    53    51    1
   104    68    66    1
   105    28    27    1
   106    66    63    1
   107    66    67    1
   108    63    64    1
   109    37    35    1
   110    51    52    1
   111    51    50    1
   112    18    17    1
   113    18    19    1
   114    45    43    1
   115    36    34    1
   116    15    17   am
   117    15    16    2
   118    20    19    2
   119    46    47    1
   120    65    64    2
   121    47    50    1
   122    47    48    1
   123    27    26    1
   124    35    34    1
   125    38    39    1
   126    64    69   am
   127    43    42    1
   128    43    44    1
   129    39    40    1
   130    39    42    1
   131    34    31    1
   132    91    89    1
   133    49    48    2
   134    40    41    2
   135    98    99    1
   136    98    97    1
   137    69    70    1
   138    26    25    1
   139    31    32    1
   140    31    30    1
   141    32    33    2
   142    89    88    1
   143    90    88    1
   144    70    71    1
   145    25    22    1
   146    88    85    1
   147    77    78    1
   148    77    74    1
   149    71    72    2
   150    71    73   am
   151    97    96    1
   152    80    78   ar
   153    80    82   ar
   154    78    79   ar
   155    96    93    1
   156    73    74    1
   157    82    83   ar
   158    79    81   ar
   159    74    75    1
   160    22    23    1
   161    22    21    1
   162    83    81   ar
   163    23    24    2
   164    85    84    1
   165    85    86    1
   166    87    86    2
   167    93    94    1
   168    93    92    1
   169    75    76    2
   170    94    95    2
