@<TRIPOS>MOLECULE
tmp/3eqfA00.pdb
 164 153 0 0 0
SMALL
GASTEIGER

@<TRIPOS>ATOM
      1  N         -9.4380   72.6290   39.8630 N.3    36  LEU36      -0.1231
      2  CA        -9.3110   72.8080   38.4210 C.3    36  LEU36       0.1693
      3  C        -10.3270   72.0050   37.6240 C.2    36  LEU36       0.2593
      4  O        -11.0370   72.5510   36.7800 O.2    36  LEU36      -0.2718
      5  CB        -7.8970   72.4720   37.9600 C.3    36  LEU36       0.0284
      6  CG        -6.8130   73.4500   38.4050 C.3    36  LEU36       0.0019
      7  CD1       -5.5020   73.1500   37.6980 C.3    36  LEU36       0.0001
      8  CD2       -7.2510   74.8720   38.1450 C.3    36  LEU36       0.0001
      9  N        -10.3890   70.7060   37.8810 N.am   37  GLY37      -0.1942
     10  CA       -11.3240   69.8540   37.1670 C.3    37  GLY37       0.2014
     11  C        -11.3570   68.4460   37.7230 C.2    37  GLY37       0.2639
     12  O        -10.3700   67.9580   38.2660 O.2    37  GLY37      -0.2714
     13  N        -12.5020   67.7920   37.5710 N.am   38  ALA38      -0.1963
     14  CA       -12.6750   66.4290   38.0440 C.3    38  ALA38       0.1728
     15  C        -12.2130   65.4370   36.9900 C.2    38  ALA38       0.2616
     16  O        -12.8700   65.2480   35.9660 O.2    38  ALA38      -0.2715
     17  CB       -14.1280   66.1760   38.4080 C.3    38  ALA38       0.0334
     18  N        -11.0700   64.8160   37.2370 N.am   39  GLY39      -0.1955
     19  CA       -10.5300   63.8240   36.3200 C.3    39  GLY39       0.1869
     20  C        -10.8170   62.4490   36.8960 C.2    39  GLY39       0.2309
     21  O        -10.4870   62.1780   38.0510 O.2    39  GLY39      -0.2863
     22  N         -8.1320   67.2820   40.3720 N.3    44  VAL44      -0.1245
     23  CA        -7.0520   68.2110   40.0620 C.3    44  VAL44       0.1561
     24  C         -7.2680   69.5690   40.7120 C.2    44  VAL44       0.2260
     25  O         -8.3070   70.1980   40.5310 O.2    44  VAL44      -0.2867
     26  CB        -6.8340   68.3410   38.5530 C.3    44  VAL44       0.0252
     27  CG1       -5.7090   69.3200   38.2630 C.3    44  VAL44       0.0019
     28  CG2       -6.5360   66.9800   37.9430 C.3    44  VAL44       0.0019
     29  N         -0.3860   72.1140   39.4040 N.3    57  ALA57      -0.1245
     30  CA        -1.6360   71.3880   39.3000 C.3    57  ALA57       0.1562
     31  C         -1.4050   70.0550   39.9820 C.2    57  ALA57       0.2260
     32  O         -0.6370   69.2280   39.4960 O.2    57  ALA57      -0.2867
     33  CB        -2.0110   71.1780   37.8390 C.3    57  ALA57       0.0290
     34  N         -2.7090   66.5100   41.1480 N.3    59  LYS59      -0.1245
     35  CA        -3.7210   65.4860   40.9280 C.3    59  LYS59       0.1561
     36  C         -3.7540   64.5700   42.1430 C.2    59  LYS59       0.2260
     37  O         -2.7240   64.0400   42.5590 O.2    59  LYS59      -0.2867
     38  CB        -3.4070   64.6720   39.6730 C.3    59  LYS59       0.0271
     39  CG        -4.3170   63.4680   39.4770 C.3    59  LYS59       0.0035
     40  CD        -4.8760   63.4210   38.0660 C.3    59  LYS59       0.0206
     41  CE        -5.4710   62.0600   37.7500 C.3    59  LYS59       0.1093
     42  NZ        -4.7440   61.3790   36.6440 N.3    59  LYS59      -0.1314
     43  N          2.3780   68.3680   29.1150 N.3    89  VAL89      -0.1245
     44  CA         2.4240   69.0700   30.3950 C.3    89  VAL89       0.1561
     45  C          3.6550   68.7060   31.2170 C.2    89  VAL89       0.2260
     46  O          3.9290   67.5310   31.4520 O.2    89  VAL89      -0.2867
     47  CB         1.1330   68.8730   31.2080 C.3    89  VAL89       0.0252
     48  CG1        1.0370   69.9180   32.3080 C.3    89  VAL89       0.0019
     49  CG2       -0.0810   68.9340   30.3020 C.3    89  VAL89       0.0019
     50  N          2.2100   68.6890   38.5460 N.3   105  MET105     -0.1230
     51  CA         2.7030   69.0540   37.2340 C.3   105  MET105      0.1702
     52  C          2.6230   70.5510   36.9860 C.2   105  MET105      0.2592
     53  O          2.4290   71.3430   37.9100 O.2   105  MET105     -0.2718
     54  CB         1.9390   68.3000   36.1490 C.3   105  MET105      0.0401
     55  CG         0.5260   67.9410   36.5400 C.3   105  MET105      0.0596
     56  SD        -0.0310   66.3990   35.7910 S.3   105  MET105     -0.1393
     57  CE        -1.3930   65.9660   36.9040 C.3   105  MET105      0.0692
     58  N          2.7790   70.9240   35.7220 N.am  106  GLU106     -0.1966
     59  CA         2.7460   72.3130   35.2980 C.3   106  GLU106      0.1733
     60  C          1.3020   72.7840   35.1130 C.2   106  GLU106      0.2616
     61  O          0.5110   72.1360   34.4250 O.2   106  GLU106     -0.2715
     62  CB         3.5280   72.4460   33.9900 C.3   106  GLU106      0.0429
     63  CG         3.3210   73.7240   33.2280 C.3   106  GLU106      0.1163
     64  CD         3.9710   73.6720   31.8560 C.2   106  GLU106      0.3649
     65  OE1        3.5960   72.7880   31.0560 O.co2 106  GLU106     -0.2457
     66  OE2        4.8850   74.4840   31.5930 O.co2 106  GLU106     -0.2457
     67  N          0.9600   73.9040   35.7430 N.am  107  HIS107     -0.1959
     68  CA        -0.3890   74.4550   35.6430 C.3   107  HIS107      0.1787
     69  C         -0.6280   75.0940   34.2810 C.2   107  HIS107      0.2620
     70  O          0.2280   75.8110   33.7640 O.2   107  HIS107     -0.2715
     71  CB        -0.6410   75.4770   36.7490 C.3   107  HIS107      0.0785
     72  CG        -1.9630   76.1690   36.6420 C.ar  107  HIS107      0.0821
     73  ND1       -2.0910   77.4630   36.1840 N.ar  107  HIS107     -0.2267
     74  CD2       -3.2170   75.7460   36.9300 C.ar  107  HIS107      0.1154
     75  CE1       -3.3680   77.8070   36.1950 C.ar  107  HIS107      0.1986
     76  NE2       -4.0710   76.7840   36.6460 N.ar  107  HIS107     -0.2212
     77  N         -1.8010   74.8280   33.7080 N.am  108  MET108     -0.1963
     78  CA        -2.1810   75.3690   32.4030 C.3   108  MET108      0.1736
     79  C         -3.4060   76.2710   32.5450 C.2   108  MET108      0.2616
     80  O         -4.5430   75.7980   32.5150 O.2   108  MET108     -0.2715
     81  CB        -2.4800   74.2330   31.4280 C.3   108  MET108      0.0427
     82  CG        -1.3170   73.2900   31.2010 C.3   108  MET108      0.0599
     83  SD        -0.0730   73.9850   30.1080 S.3   108  MET108     -0.1393
     84  CE        -0.9450   73.9840   28.5410 C.3   108  MET108      0.0692
     85  N         -3.1590   77.5690   32.7080 N.am  109  ASP109     -0.1971
     86  CA        -4.2230   78.5570   32.9070 C.3   109  ASP109      0.1709
     87  C         -5.2870   78.6160   31.8180 C.2   109  ASP109      0.2293
     88  O         -6.3240   79.2460   31.9990 O.2   109  ASP109     -0.2864
     89  CB        -3.6320   79.9490   33.1530 C.3   109  ASP109      0.1436
     90  CG        -2.9810   80.5340   31.9170 C.2   109  ASP109      0.3671
     91  OD1       -2.6260   79.7590   31.0050 O.co2 109  ASP109     -0.2456
     92  OD2       -2.8220   81.7700   31.8610 O.co2 109  ASP109     -0.2456
     93  N         -6.7220   75.8710   30.5760 N.3   111  GLY111     -0.1210
     94  CA        -7.6450   74.7770   30.8510 C.3   111  GLY111      0.1956
     95  C         -7.6160   73.7350   29.7340 C.2   111  GLY111      0.2612
     96  O         -6.6690   73.6770   28.9450 O.2   111  GLY111     -0.2717
     97  N         -8.6540   72.9090   29.6770 N.am  112  SER112     -0.1952
     98  CA        -8.7520   71.8720   28.6590 C.3   112  SER112      0.1924
     99  C         -9.5670   72.3720   27.4730 C.2   112  SER112      0.2314
    100  O        -10.4470   73.2170   27.6310 O.2   112  SER112     -0.2863
    101  CB        -9.4050   70.6170   29.2430 C.3   112  SER112      0.2116
    102  OG       -10.8180   70.6770   29.1210 O.3   112  SER112     -0.2180
    103  N        -11.7740   71.1270   26.2880 N.3   114  ASP114     -0.1225
    104  CA       -13.1330   70.7580   26.6300 C.3   114  ASP114      0.1805
    105  C        -13.9110   72.0040   27.0600 C.2   114  ASP114      0.2597
    106  O        -14.9940   72.2860   26.5430 O.2   114  ASP114     -0.2718
    107  CB       -13.1140   69.7290   27.7640 C.3   114  ASP114      0.1424
    108  CG       -14.4900   69.2160   28.1080 C.2   114  ASP114      0.3668
    109  OD1      -15.4770   69.7380   27.5440 O.co2 114  ASP114     -0.2456
    110  OD2      -14.5840   68.2920   28.9440 O.co2 114  ASP114     -0.2456
    111  N        -13.3430   72.7510   28.0010 N.am  115  GLN115     -0.1979
    112  CA       -13.9670   73.9730   28.4910 C.3   115  GLN115      0.1601
    113  C        -13.9130   75.0460   27.4120 C.2   115  GLN115      0.2287
    114  O        -14.8960   75.7480   27.1640 O.2   115  GLN115     -0.2864
    115  CB       -13.2540   74.4660   29.7530 C.3   115  GLN115      0.0394
    116  CG       -12.5700   73.3630   30.5510 C.3   115  GLN115      0.0908
    117  CD       -11.7910   73.8990   31.7390 C.2   115  GLN115      0.2608
    118  OE1      -10.5710   73.7570   31.8100 O.2   115  GLN115     -0.2717
    119  NE2      -12.4940   74.5210   32.6770 N.am  115  GLN115     -0.0878
    120  N         -8.5990   62.9900   24.0360 N.3   154  LYS154     -0.1245
    121  CA        -9.8990   63.6490   24.0200 C.3   154  LYS154      0.1561
    122  C         -9.7370   65.1250   24.3450 C.2   154  LYS154      0.2260
    123  O         -8.7190   65.5370   24.9010 O.2   154  LYS154     -0.2867
    124  CB       -10.8650   62.9840   25.0040 C.3   154  LYS154      0.0271
    125  CG       -10.2020   62.4280   26.2560 C.3   154  LYS154      0.0035
    126  CD       -11.1880   62.3570   27.4160 C.3   154  LYS154      0.0206
    127  CE       -10.5340   61.7930   28.6690 C.3   154  LYS154      0.1093
    128  NZ       -11.5260   61.5590   29.7570 N.3   154  LYS154     -0.1314
    129  N        -10.7840   66.9500   26.6140 N.3   156  SER156     -0.1202
    130  CA       -10.4790   67.2000   28.0250 C.3   156  SER156      0.2020
    131  C         -9.0130   66.9040   28.3690 C.2   156  SER156      0.2618
    132  O         -8.5140   67.3320   29.4130 O.2   156  SER156     -0.2717
    133  CB       -11.4120   66.3890   28.9290 C.3   156  SER156      0.2103
    134  OG       -10.8130   65.1630   29.3100 O.3   156  SER156     -0.2182
    135  N         -8.3320   66.1780   27.4850 N.am  157  ASN157     -0.1974
    136  CA        -6.9310   65.8260   27.7000 C.3   157  ASN157      0.1688
    137  C         -5.9810   66.6930   26.8840 C.2   157  ASN157      0.2292
    138  O         -4.8080   66.3600   26.7190 O.2   157  ASN157     -0.2864
    139  CB        -6.6910   64.3450   27.4080 C.3   157  ASN157      0.1181
    140  CG        -6.8670   63.4730   28.6370 C.2   157  ASN157      0.2629
    141  OD1       -7.2830   63.9480   29.6950 O.2   157  ASN157     -0.2716
    142  ND2       -6.5460   62.1900   28.5050 N.am  157  ASN157     -0.0877
    143  N         -4.6030   70.2980   27.1290 N.3   159  LEU159     -0.1245
    144  CA        -4.4720   71.5210   27.9140 C.3   159  LEU159      0.1561
    145  C         -3.7330   72.6170   27.1590 C.2   159  LEU159      0.2260
    146  O         -2.7700   72.3510   26.4390 O.2   159  LEU159     -0.2867
    147  CB        -3.7740   71.2330   29.2470 C.3   159  LEU159      0.0270
    148  CG        -4.2880   70.0240   30.0370 C.3   159  LEU159      0.0019
    149  CD1       -3.5690   69.9110   31.3740 C.3   159  LEU159      0.0001
    150  CD2       -5.7980   70.1070   30.2380 C.3   159  LEU159      0.0001
    151  N         -2.0670   65.5660   28.1620 N.3   169  CYS169     -0.1221
    152  CA        -2.0030   65.0750   29.5290 C.3   169  CYS169      0.1808
    153  C         -2.9480   63.8920   29.6880 C.2   169  CYS169      0.2601
    154  O         -3.8290   63.6770   28.8550 O.2   169  CYS169     -0.2717
    155  CB        -2.3680   66.1860   30.5250 C.3   169  CYS169      0.0970
    156  SG        -4.1570   66.5010   30.7050 S.3   169  CYS169     -0.0800
    157  N         -2.7530   63.1280   30.7590 N.am  170  ASP170     -0.1973
    158  CA        -3.5800   61.9590   31.0560 C.3   170  ASP170      0.1709
    159  C         -3.2010   60.7090   30.2630 C.2   170  ASP170      0.2293
    160  O         -4.0640   59.9040   29.9100 O.2   170  ASP170     -0.2864
    161  CB        -5.0760   62.2690   30.9070 C.3   170  ASP170      0.1436
    162  CG        -5.9620   61.2560   31.6340 C.2   170  ASP170      0.3671
    163  OD1       -5.6440   60.0460   31.5970 O.co2 170  ASP170     -0.2456
    164  OD2       -6.9720   61.6720   32.2420 O.co2 170  ASP170     -0.2456
@<TRIPOS>BOND
     1   121   120    1
     2   121   122    1
     3   121   124    1
     4   122   123    2
     5   124   125    1
     6   125   126    1
     7   103   104    1
     8   146   145    2
     9   106   105    2
    10   129   130    1
    11   104   105    1
    12   104   107    1
    13   138   137    2
    14   137   136    1
    15   105   111   am
    16   143   144    1
    17   145   144    1
    18   114   113    2
    19   139   136    1
    20   139   140    1
    21   113   112    1
    22   126   127    1
    23    99   100    2
    24    99    98    1
    25   135   136    1
    26   135   131   am
    27   109   108   ar
    28   107   108    1
    29   144   147    1
    30   111   112    1
    31   130   131    1
    32   130   133    1
    33   108   110   ar
    34   151   152    1
    35   131   132    2
    36   112   115    1
    37   142   140   am
    38    84    83    1
    39   140   141    2
    40    98   101    1
    41    98    97    1
    42   127   128    1
    43   154   153    2
    44   133   134    1
    45    96    95    2
    46    43    44    1
    47   102   101    1
    48   147   148    1
    49   152   153    1
    50   152   155    1
    51    97    95   am
    52   153   157   am
    53    95    94    1
    54   115   116    1
    55   160   159    2
    56   148   150    1
    57   148   149    1
    58    83    82    1
    59   159   158    1
    60    49    47    1
    61    44    47    1
    62    44    45    1
    63   155   156    1
    64   116   117    1
    65    93    94    1
    66   157   158    1
    67   161   158    1
    68   161   162    1
    69    91    90   ar
    70    65    64   ar
    71    82    81    1
    72    47    48    1
    73    45    46    2
    74    81    78    1
    75    66    64   ar
    76   163   162   ar
    77   162   164   ar
    78   117   118    2
    79   117   119   am
    80    87    88    2
    81    87    86    1
    82    64    63    1
    83    92    90   ar
    84    90    89    1
    85    78    79    1
    86    78    77    1
    87    80    79    2
    88    79    85   am
    89    85    86    1
    90    86    89    1
    91    63    62    1
    92    77    69   am
    93    70    69    2
    94    62    59    1
    95    69    68    1
    96    61    60    2
    97    60    59    1
    98    60    67   am
    99    59    58    1
   100    68    67    1
   101    68    71    1
   102    58    52   am
   103    56    55    1
   104    56    57    1
   105    16    15    2
   106    54    55    1
   107    54    51    1
   108    73    75   ar
   109    73    72   ar
   110    75    76   ar
   111    19    20    1
   112    19    18    1
   113    72    71    1
   114    72    74   ar
   115    42    41    1
   116    76    74   ar
   117     4     3    2
   118    20    21    2
   119    52    51    1
   120    52    53    2
   121    15    18   am
   122    15    14    1
   123    10    11    1
   124    10     9    1
   125    51    50    1
   126    13    11   am
   127    13    14    1
   128     3     9   am
   129     3     2    1
   130     7     6    1
   131    11    12    2
   132    41    40    1
   133    33    30    1
   134    28    26    1
   135     5     6    1
   136     5     2    1
   137    14    17    1
   138    40    39    1
   139     8     6    1
   140    27    26    1
   141     2     1    1
   142    26    23    1
   143    30    29    1
   144    30    31    1
   145    39    38    1
   146    32    31    2
   147    38    35    1
   148    23    22    1
   149    23    24    1
   150    25    24    2
   151    35    34    1
   152    35    36    1
   153    36    37    2
