@<TRIPOS>MOLECULE
tmp/3eqhA00.pdb
 182 173 0 0 0
SMALL
GASTEIGER

@<TRIPOS>ATOM
      1  N         -2.2800   65.1470   41.0940 N.3    59  LYS59      -0.1245
      2  CA        -3.3500   64.1870   40.8450 C.3    59  LYS59       0.1561
      3  C         -3.3740   63.1310   41.9460 C.2    59  LYS59       0.2260
      4  O         -2.3960   62.4290   42.1630 O.2    59  LYS59      -0.2867
      5  CB        -3.1700   63.5250   39.4810 C.3    59  LYS59       0.0271
      6  CG        -4.1280   62.3720   39.2190 C.3    59  LYS59       0.0035
      7  CD        -3.9610   61.8300   37.8000 C.3    59  LYS59       0.0206
      8  CE        -5.2960   61.4250   37.1960 C.3    59  LYS59       0.1093
      9  NZ        -5.1340   60.7870   35.8580 N.3    59  LYS59      -0.1314
     10  N         -4.8020   59.7120   43.3450 N.3    61  ILE61      -0.1245
     11  CA        -5.4600   58.4550   43.0090 C.3    61  ILE61       0.1561
     12  C         -5.7170   57.6610   44.2840 C.2    61  ILE61       0.2260
     13  O         -4.8140   57.0000   44.8060 O.2    61  ILE61      -0.2867
     14  CB        -4.6210   57.6330   42.0130 C.3    61  ILE61       0.0252
     15  CG1       -4.3190   58.4550   40.7590 C.3    61  ILE61       0.0019
     16  CG2       -5.3390   56.3380   41.6520 C.3    61  ILE61       0.0019
     17  CD1       -3.2620   57.8410   39.8750 C.3    61  ILE61       0.0001
     18  N          6.7060   54.7900   37.4300 N.3    77  LEU77      -0.1245
     19  CA         6.5650   56.1840   37.0240 C.3    77  LEU77       0.1561
     20  C          7.9120   56.9060   36.9390 C.2    77  LEU77       0.2260
     21  O          8.0550   57.8790   36.1970 O.2    77  LEU77      -0.2867
     22  CB         5.6290   56.9200   37.9740 C.3    77  LEU77       0.0270
     23  CG         4.1660   56.5050   37.9090 C.3    77  LEU77       0.0019
     24  CD1        3.3960   57.0920   39.0630 C.3    77  LEU77       0.0001
     25  CD2        3.5560   56.9200   36.5840 C.3    77  LEU77       0.0001
     26  N          9.4210   58.6100   33.8750 N.3    80  LEU80      -0.1245
     27  CA         9.0370   59.9250   33.3700 C.3    80  LEU80       0.1561
     28  C         10.0860   60.9970   33.6460 C.2    80  LEU80       0.2260
     29  O         10.0180   62.0940   33.0910 O.2    80  LEU80      -0.2867
     30  CB         7.6870   60.3460   33.9470 C.3    80  LEU80       0.0270
     31  CG         6.5180   59.4510   33.5500 C.3    80  LEU80       0.0019
     32  CD1        5.1970   60.0280   34.0220 C.3    80  LEU80       0.0001
     33  CD2        6.5140   59.2430   32.0580 C.3    80  LEU80       0.0001
     34  N          3.2690   66.4950   28.8310 N.3    89  VAL89      -0.1231
     35  CA         3.1710   67.2280   30.0960 C.3    89  VAL89       0.1692
     36  C          4.3320   66.8780   31.0160 C.2    89  VAL89       0.2593
     37  O          4.6590   65.7020   31.1950 O.2    89  VAL89      -0.2718
     38  CB         1.8110   66.9800   30.7910 C.3    89  VAL89       0.0266
     39  CG1        1.8210   67.5560   32.2050 C.3    89  VAL89       0.0020
     40  CG2        0.6960   67.5800   29.9870 C.3    89  VAL89       0.0020
     41  N          4.9520   67.9080   31.5930 N.am   90  GLY90      -0.1942
     42  CA         6.0990   67.7290   32.4960 C.3    90  GLY90       0.2014
     43  C          5.7800   66.9150   33.7620 C.2    90  GLY90       0.2638
     44  O          4.7010   67.0350   34.3440 O.2    90  GLY90      -0.2714
     45  N          6.7560   66.1220   34.1990 N.am   91  PHE91      -0.1973
     46  CA         6.6130   65.2670   35.3790 C.3    91  PHE91       0.1639
     47  C          7.5530   65.7370   36.4960 C.2    91  PHE91       0.2290
     48  O          8.7420   65.9550   36.2640 O.2    91  PHE91      -0.2864
     49  CB         6.9450   63.8130   34.9940 C.3    91  PHE91       0.0560
     50  CG         6.9240   62.8490   36.1470 C.ar   91  PHE91      -0.0200
     51  CD1        5.7300   62.4990   36.7570 C.ar   91  PHE91      -0.0042
     52  CD2        8.0990   62.2470   36.5860 C.ar   91  PHE91      -0.0042
     53  CE1        5.7080   61.5960   37.8130 C.ar   91  PHE91      -0.0003
     54  CE2        8.0850   61.3430   37.6420 C.ar   91  PHE91      -0.0003
     55  CZ         6.8890   61.0210   38.2590 C.ar   91  PHE91      -0.0000
     56  N          0.4970   62.1390   42.0610 N.3   103  ILE103     -0.1245
     57  CA         1.2950   62.3600   40.8580 C.3   103  ILE103      0.1561
     58  C          1.3970   63.8570   40.6310 C.2   103  ILE103      0.2260
     59  O          0.3860   64.5440   40.4950 O.2   103  ILE103     -0.2867
     60  CB         0.7100   61.6350   39.6220 C.3   103  ILE103      0.0252
     61  CG1        0.7010   60.1170   39.8440 C.3   103  ILE103      0.0019
     62  CG2        1.5200   61.9740   38.3790 C.3   103  ILE103      0.0019
     63  CD1       -0.1900   59.3600   38.8820 C.3   103  ILE103      0.0001
     64  N          2.7240   66.9750   38.3920 N.3   105  MET105     -0.1245
     65  CA         3.1230   67.3180   37.0440 C.3   105  MET105      0.1570
     66  C          3.0760   68.7940   36.7800 C.2   105  MET105      0.2261
     67  O          2.6100   69.5790   37.6010 O.2   105  MET105     -0.2867
     68  CB         2.2230   66.6100   36.0220 C.3   105  MET105      0.0387
     69  CG         1.4120   65.4640   36.5670 C.3   105  MET105      0.0595
     70  SD        -0.1930   65.2750   35.7210 S.3   105  MET105     -0.1393
     71  CE        -1.3090   65.3070   37.1380 C.3   105  MET105      0.0692
     72  N          0.0940   55.8530   23.6770 N.3   150  HIS150     -0.1226
     73  CA        -0.6540   56.6190   24.6700 C.3   150  HIS150      0.1752
     74  C         -1.7100   55.7570   25.3420 C.2   150  HIS150      0.2596
     75  O         -1.7850   55.6980   26.5750 O.2   150  HIS150     -0.2718
     76  CB        -1.2930   57.8640   24.0480 C.3   150  HIS150      0.0759
     77  CG        -1.8730   58.8060   25.0520 C.ar  150  HIS150      0.0818
     78  ND1       -3.0660   58.5610   25.6990 N.ar  150  HIS150     -0.2268
     79  CD2       -1.4190   59.9890   25.5330 C.ar  150  HIS150      0.1154
     80  CE1       -3.3270   59.5600   26.5250 C.ar  150  HIS150      0.1986
     81  NE2       -2.3430   60.4390   26.4430 N.ar  150  HIS150     -0.2212
     82  N         -2.5210   55.0950   24.5180 N.am  151  ARG151     -0.1966
     83  CA        -3.5760   54.1920   24.9740 C.3   151  ARG151      0.1729
     84  C         -4.8570   54.8860   25.3620 C.2   151  ARG151      0.2616
     85  O         -5.8930   54.2440   25.4850 O.2   151  ARG151     -0.2715
     86  CB        -3.1010   53.2940   26.1260 C.3   151  ARG151      0.0348
     87  CG        -1.9560   52.3620   25.7750 C.3   151  ARG151      0.0492
     88  CD        -1.0230   52.1520   26.9780 C.3   151  ARG151      0.2205
     89  NE         0.3570   51.8980   26.5660 N.pl3 151  ARG151     -0.0865
     90  CZ         0.7870   50.7360   26.0820 C.cat 151  ARG151      0.5346
     91  NH1       -0.0560   49.7150   25.9580 N.pl3 151  ARG151      0.1354
     92  NH2        2.0590   50.5920   25.7200 N.pl3 151  ARG151      0.1354
     93  N         -4.8010   56.1940   25.5740 N.am  152  ASP152     -0.1971
     94  CA        -6.0020   56.9120   25.9840 C.3   152  ASP152      0.1709
     95  C         -6.1010   58.3410   25.4430 C.2   152  ASP152      0.2293
     96  O         -6.3110   59.2860   26.2040 O.2   152  ASP152     -0.2864
     97  CB        -6.1380   56.8980   27.5150 C.3   152  ASP152      0.1436
     98  CG        -7.5320   57.3140   27.9930 C.2   152  ASP152      0.3671
     99  OD1       -8.4890   57.2860   27.1840 O.co2 152  ASP152     -0.2456
    100  OD2       -7.6660   57.6640   29.1840 O.co2 152  ASP152     -0.2456
    101  N         -1.2120   64.1250   28.1850 N.3   169  CYS169     -0.1221
    102  CA        -1.0830   63.6930   29.5640 C.3   169  CYS169      0.1808
    103  C         -1.8480   62.3820   29.7470 C.2   169  CYS169      0.2601
    104  O         -2.6120   61.9660   28.8680 O.2   169  CYS169     -0.2717
    105  CB        -1.6340   64.7540   30.5070 C.3   169  CYS169      0.0970
    106  SG        -3.4220   64.8840   30.4540 S.3   169  CYS169     -0.0800
    107  N         -1.6390   61.7320   30.8810 N.am  170  ASP170     -0.1959
    108  CA        -2.3330   60.4840   31.1750 C.3   170  ASP170      0.1840
    109  C         -2.1000   59.3370   30.1900 C.2   170  ASP170      0.2622
    110  O         -3.0000   58.5380   29.9380 O.2   170  ASP170     -0.2715
    111  CB        -3.8220   60.7230   31.3770 C.3   170  ASP170      0.1450
    112  CG        -4.1330   61.3280   32.7380 C.2   170  ASP170      0.3671
    113  OD1       -3.4290   60.9870   33.7050 O.co2 170  ASP170     -0.2456
    114  OD2       -5.0780   62.1420   32.8350 O.co2 170  ASP170     -0.2456
    115  N         -0.8830   59.2330   29.6640 N.am  171  PHE171     -0.1960
    116  CA        -0.5500   58.1150   28.7920 C.3   171  PHE171      0.1771
    117  C         -0.2570   56.9190   29.7160 C.2   171  PHE171      0.2620
    118  O          0.1040   57.1030   30.8850 O.2   171  PHE171     -0.2715
    119  CB         0.6700   58.4250   27.9160 C.3   171  PHE171      0.0574
    120  CG         1.6270   59.3860   28.5340 C.ar  171  PHE171     -0.0200
    121  CD1        2.7680   58.9300   29.1740 C.ar  171  PHE171     -0.0042
    122  CD2        1.3820   60.7500   28.4940 C.ar  171  PHE171     -0.0042
    123  CE1        3.6450   59.8140   29.7630 C.ar  171  PHE171     -0.0003
    124  CE2        2.2550   61.6430   29.0770 C.ar  171  PHE171     -0.0003
    125  CZ         3.3840   61.1800   29.7190 C.ar  171  PHE171     -0.0000
    126  N         -0.4380   55.7050   29.2040 N.am  172  GLY172     -0.1940
    127  CA        -0.2290   54.4960   30.0100 C.3   172  GLY172      0.2014
    128  C          1.2500   54.1490   30.1470 C.2   172  GLY172      0.2639
    129  O          1.7880   53.3790   29.3630 O.2   172  GLY172     -0.2714
    130  N          1.8930   54.6980   31.1690 N.am  173  VAL173     -0.1963
    131  CA         3.3170   54.4550   31.3860 C.3   173  VAL173      0.1727
    132  C          3.6140   53.3580   32.4340 C.2   173  VAL173      0.2616
    133  O          4.6560   52.6950   32.3710 O.2   173  VAL173     -0.2715
    134  CB         4.0740   55.7760   31.6960 C.3   173  VAL173      0.0290
    135  CG1        4.0490   56.0680   33.1940 C.3   173  VAL173      0.0023
    136  CG2        5.4980   55.7170   31.1680 C.3   173  VAL173      0.0023
    137  N          2.7190   53.2010   33.4060 N.am  174  SER174     -0.1950
    138  CA         2.8970   52.1970   34.4520 C.3   174  SER174      0.1924
    139  C          1.8970   51.0670   34.2790 C.2   174  SER174      0.2314
    140  O          0.7150   51.2350   34.5640 O.2   174  SER174     -0.2863
    141  CB         2.7280   52.8200   35.8370 C.3   174  SER174      0.2116
    142  OG         2.2320   51.8740   36.7720 O.3   174  SER174     -0.2180
    143  N         -0.2400   50.4690   37.2650 N.3   177  LEU177     -0.1231
    144  CA        -1.2800   51.4710   37.4580 C.3   177  LEU177      0.1693
    145  C         -2.4580   51.1500   36.5540 C.2   177  LEU177      0.2591
    146  O         -3.6100   51.1960   36.9810 O.2   177  LEU177     -0.2718
    147  CB        -0.7480   52.8740   37.1560 C.3   177  LEU177      0.0284
    148  CG        -1.6140   54.0490   37.6260 C.3   177  LEU177      0.0019
    149  CD1       -2.2010   53.7730   38.9980 C.3   177  LEU177      0.0001
    150  CD2       -0.8100   55.3410   37.6330 C.3   177  LEU177      0.0001
    151  N         -2.1620   50.8150   35.3030 N.am  178  ILE178     -0.1980
    152  CA        -3.2040   50.4650   34.3520 C.3   178  ILE178      0.1595
    153  C         -3.9380   49.2380   34.8660 C.2   178  ILE178      0.2287
    154  O         -5.1660   49.1830   34.8400 O.2   178  ILE178     -0.2864
    155  CB        -2.6350   50.2260   32.9440 C.3   178  ILE178      0.0276
    156  CG1       -2.2260   51.5520   32.2980 C.3   178  ILE178      0.0022
    157  CG2       -3.6500   49.5050   32.0800 C.3   178  ILE178      0.0022
    158  CD1       -1.3050   51.3900   31.1070 C.3   178  ILE178      0.0001
    159  N         -5.8140   49.9940   38.0350 N.3   181  MET181     -0.1230
    160  CA        -6.9210   50.8390   37.6060 C.3   181  MET181      0.1702
    161  C         -7.8960   50.0520   36.7400 C.2   181  MET181      0.2592
    162  O         -9.1040   50.0850   36.9650 O.2   181  MET181     -0.2718
    163  CB        -6.3990   52.0640   36.8440 C.3   181  MET181      0.0401
    164  CG        -5.8980   53.1960   37.7470 C.3   181  MET181      0.0596
    165  SD        -5.5970   54.7480   36.8450 S.3   181  MET181     -0.1393
    166  CE        -6.0570   55.9720   38.0970 C.3   181  MET181      0.0692
    167  N         -7.3650   49.3360   35.7530 N.am  182  ALA182     -0.1980
    168  CA        -8.2020   48.5340   34.8700 C.3   182  ALA182      0.1597
    169  C         -8.8130   47.3300   35.5810 C.2   182  ALA182      0.2287
    170  O         -9.3420   46.4270   34.9320 O.2   182  ALA182     -0.2864
    171  CB        -7.4330   48.0980   33.6340 C.3   182  ALA182      0.0319
    172  N         -9.6140   47.7400   19.0210 N.3   196  ARG196     -0.1245
    173  CA        -9.4110   47.5810   20.4650 C.3   196  ARG196      0.1563
    174  C        -10.6990   47.1250   21.1320 C.2   196  ARG196      0.2260
    175  O        -10.6670   46.3720   22.0960 O.2   196  ARG196     -0.2867
    176  CB        -8.8930   48.8790   21.1100 C.3   196  ARG196      0.0307
    177  CG        -7.4050   49.1360   20.8700 C.3   196  ARG196      0.0489
    178  CD        -6.8400   50.1620   21.8510 C.3   196  ARG196      0.2205
    179  NE        -7.0190   49.7510   23.2400 N.pl3 196  ARG196     -0.0865
    180  CZ        -6.7910   50.5360   24.2880 C.cat 196  ARG196      0.5346
    181  NH1       -6.3640   51.7840   24.1120 N.pl3 196  ARG196      0.1354
    182  NH2       -6.9880   50.0730   25.5150 N.pl3 196  ARG196      0.1354
@<TRIPOS>BOND
     1   172   173    1
     2   173   176    1
     3   173   174    1
     4   177   176    1
     5   177   178    1
     6   174   175    2
     7   178   179    1
     8   179   180    2
     9    72    73    1
    10    76    73    1
    11    76    77    1
    12   181   180    1
    13   180   182    1
    14    82    83    1
    15    82    74   am
    16    73    74    1
    17    83    84    1
    18    83    86    1
    19    77    79   ar
    20    77    78   ar
    21    74    75    2
    22    84    85    2
    23    84    93   am
    24    95    94    1
    25    95    96    2
    26    79    81   ar
    27    93    94    1
    28    78    80   ar
    29    92    90    1
    30    87    86    1
    31    87    88    1
    32    91    90    1
    33    94    97    1
    34    90    89    2
    35    81    80   ar
    36    89    88    1
    37    99    98   ar
    38    97    98    1
    39   119   120    1
    40   119   116    1
    41    98   100   ar
    42   101   102    1
    43   122   120   ar
    44   122   124   ar
    45   120   121   ar
    46   116   115    1
    47   116   117    1
    48    34    35    1
    49   104   103    2
    50   124   125   ar
    51   121   123   ar
    52   126   117   am
    53   126   127    1
    54   129   128    2
    55   102   103    1
    56   102   105    1
    57   115   109   am
    58   117   118    2
    59   125   123   ar
    60   103   107   am
    61   110   109    2
    62    40    38    1
    63   127   128    1
    64    35    38    1
    65    35    36    1
    66   128   130   am
    67   109   108    1
    68   106   105    1
    69    38    39    1
    70   107   108    1
    71    36    37    2
    72    36    41   am
    73   158   156    1
    74   136   134    1
    75   130   131    1
    76   108   111    1
    77   111   112    1
    78   131   134    1
    79   131   132    1
    80    41    42    1
    81   134   135    1
    82    33    31    1
    83   157   155    1
    84   156   155    1
    85   133   132    2
    86   132   137   am
    87    42    43    1
    88   112   114   ar
    89   112   113   ar
    90   155   152    1
    91    29    28    2
    92    27    28    1
    93    27    26    1
    94    27    30    1
    95   137   138    1
    96    31    30    1
    97    31    32    1
    98   171   168    1
    99    43    45   am
   100    43    44    2
   101    45    46    1
   102   139   138    1
   103   139   140    2
   104   152   153    1
   105   152   151    1
   106   138   141    1
   107   154   153    2
   108   168   169    1
   109   168   167    1
   110   170   169    2
   111    49    46    1
   112    49    50    1
   113   151   145   am
   114    46    47    1
   115    70    69    1
   116    70    71    1
   117   167   161   am
   118   141   142    1
   119     9     8    1
   120    68    69    1
   121    68    65    1
   122    50    52   ar
   123    50    51   ar
   124    21    20    2
   125    48    47    2
   126   145   146    2
   127   145   144    1
   128    25    23    1
   129    52    54   ar
   130   161   162    2
   131   161   160    1
   132    51    53   ar
   133    66    65    1
   134    66    67    2
   135   163   160    1
   136   163   164    1
   137   165   164    1
   138   165   166    1
   139    20    19    1
   140    19    18    1
   141    19    22    1
   142    65    64    1
   143   147   144    1
   144   147   148    1
   145     8     7    1
   146   143   144    1
   147   160   159    1
   148   148   150    1
   149   148   149    1
   150    54    55   ar
   151     7     6    1
   152    53    55   ar
   153    23    22    1
   154    23    24    1
   155    62    60    1
   156    63    61    1
   157     6     5    1
   158     5     2    1
   159    60    61    1
   160    60    57    1
   161    17    15    1
   162    59    58    2
   163    58    57    1
   164    15    14    1
   165     2     1    1
   166     2     3    1
   167    57    56    1
   168    16    14    1
   169     3     4    2
   170    14    11    1
   171    11    10    1
   172    11    12    1
   173    12    13    2
