@<TRIPOS>MOLECULE
tmp/3eqnA00.pdb
 110 101 0 0 0
SMALL
GASTEIGER

@<TRIPOS>ATOM
      1  N         23.6600    5.4980   -6.2170 N.3   115  LEU115     -0.1245
      2  CA        22.3960    5.8990   -6.8430 C.3   115  LEU115      0.1561
      3  C         22.6610    6.6450   -8.1390 C.2   115  LEU115      0.2260
      4  O         23.4350    7.5980   -8.1500 O.2   115  LEU115     -0.2867
      5  CB        21.5550    6.7660   -5.8910 C.3   115  LEU115      0.0270
      6  CG        20.5240    6.0370   -5.0140 C.3   115  LEU115      0.0019
      7  CD1       21.0550    4.8160   -4.2950 C.3   115  LEU115      0.0001
      8  CD2       19.8530    7.0150   -4.0310 C.3   115  LEU115      0.0001
      9  N         13.4100    5.2900   -1.6270 N.3   182  ASN182     -0.1225
     10  CA        14.8360    5.6360   -1.6590 C.3   182  ASN182      0.1785
     11  C         15.1700    6.5900   -2.8150 C.2   182  ASN182      0.2597
     12  O         15.9660    6.2840   -3.7060 O.2   182  ASN182     -0.2718
     13  CB        15.6970    4.3590   -1.7110 C.3   182  ASN182      0.1169
     14  CG        17.1590    4.6200   -1.4040 C.2   182  ASN182      0.2627
     15  OD1       17.5010    5.4800   -0.5770 O.2   182  ASN182     -0.2716
     16  ND2       18.0340    3.8850   -2.0770 N.am  182  ASN182     -0.0877
     17  N         14.5270    7.7460   -2.8060 N.am  183  ILE183     -0.1966
     18  CA        14.7990    8.7640   -3.8080 C.3   183  ILE183      0.1727
     19  C         15.2070   10.0480   -3.1050 C.2   183  ILE183      0.2616
     20  O         14.5830   10.4330   -2.1130 O.2   183  ILE183     -0.2715
     21  CB        13.5600    9.0470   -4.6960 C.3   183  ILE183      0.0290
     22  CG1       13.1170    7.7510   -5.3990 C.3   183  ILE183      0.0022
     23  CG2       13.8730   10.1260   -5.7550 C.3   183  ILE183      0.0023
     24  CD1       11.7460    7.8370   -6.0800 C.3   183  ILE183      0.0001
     25  N         16.2430   10.6940   -3.6290 N.am  184  VAL184     -0.1977
     26  CA        16.6400   12.0240   -3.1480 C.3   184  VAL184      0.1596
     27  C         16.2890   13.0410   -4.2250 C.2   184  VAL184      0.2287
     28  O         16.7450   12.9120   -5.3740 O.2   184  VAL184     -0.2864
     29  CB        18.1390   12.0840   -2.8450 C.3   184  VAL184      0.0276
     30  CG1       18.5350   13.4970   -2.3720 C.3   184  VAL184      0.0022
     31  CG2       18.5180   11.0260   -1.7970 C.3   184  VAL184      0.0022
     32  N         10.6680    6.5730    2.4160 N.3   210  ASP210     -0.1225
     33  CA        12.1180    6.6180    2.3710 C.3   210  ASP210      0.1805
     34  C         12.5900    7.5970    1.2960 C.2   210  ASP210      0.2598
     35  O         13.3990    7.2540    0.4230 O.2   210  ASP210     -0.2718
     36  CB        12.6920    5.2020    2.1800 C.3   210  ASP210      0.1424
     37  CG        12.0700    4.2030    3.1390 C.2   210  ASP210      0.3668
     38  OD1       12.1710    4.4370    4.3670 O.co2 210  ASP210     -0.2456
     39  OD2       11.4320    3.2370    2.6560 O.co2 210  ASP210     -0.2456
     40  N         12.0960    8.8230    1.3850 N.am  211  LEU211     -0.1966
     41  CA        12.4790    9.8640    0.4330 C.3   211  LEU211      0.1728
     42  C         13.0990   11.0430    1.1550 C.2   211  LEU211      0.2616
     43  O         12.7680   11.3100    2.3120 O.2   211  LEU211     -0.2715
     44  CB        11.2730   10.3650   -0.3740 C.3   211  LEU211      0.0311
     45  CG        10.3420    9.3010   -0.9650 C.3   211  LEU211      0.0022
     46  CD1        9.1540    9.9480   -1.6370 C.3   211  LEU211      0.0001
     47  CD2       11.0720    8.3570   -1.9020 C.3   211  LEU211      0.0001
     48  N         13.9480   11.7660    0.4370 N.am  212  VAL212     -0.1977
     49  CA        14.5900   12.9660    0.9820 C.3   212  VAL212      0.1596
     50  C         14.4100   14.0670   -0.0540 C.2   212  VAL212      0.2287
     51  O         14.7330   13.8730   -1.2280 O.2   212  VAL212     -0.2864
     52  CB        16.0990   12.7400    1.2700 C.3   212  VAL212      0.0276
     53  CG1       16.7700   14.0750    1.7810 C.3   212  VAL212      0.0022
     54  CG2       16.2940   11.6200    2.2740 C.3   212  VAL212      0.0022
     55  N          5.6680    7.0350    4.7020 N.3   230  ARG230     -0.1231
     56  CA         6.5470    6.7390    5.8400 C.3   230  ARG230      0.1694
     57  C          7.9660    7.2230    5.5610 C.2   230  ARG230      0.2592
     58  O          8.5110    6.9610    4.4910 O.2   230  ARG230     -0.2718
     59  CB         6.5470    5.2330    6.1560 C.3   230  ARG230      0.0321
     60  CG         7.4040    4.8340    7.3800 C.3   230  ARG230      0.0489
     61  CD         7.5990    3.3120    7.5140 C.3   230  ARG230      0.2205
     62  NE         7.9880    2.6620    6.2440 N.pl3 230  ARG230     -0.0865
     63  CZ         9.1500    2.8570    5.6070 C.cat 230  ARG230      0.5346
     64  NH1       10.0520    3.7000    6.0950 N.pl3 230  ARG230      0.1354
     65  NH2        9.4030    2.2370    4.4590 N.pl3 230  ARG230      0.1354
     66  N          8.5780    7.9040    6.5370 N.am  231  ASN231     -0.1974
     67  CA         9.9760    8.2960    6.4330 C.3   231  ASN231      0.1688
     68  C         10.2760    9.2080    5.2350 C.2   231  ASN231      0.2292
     69  O         11.0690    8.8730    4.3430 O.2   231  ASN231     -0.2864
     70  CB        10.9150    7.0740    6.4490 C.3   231  ASN231      0.1181
     71  CG        12.3910    7.4650    6.3690 C.2   231  ASN231      0.2629
     72  OD1       12.7950    8.5680    6.7870 O.2   231  ASN231     -0.2716
     73  ND2       13.1970    6.5640    5.7960 N.am  231  ASN231     -0.0877
     74  N         11.7150   13.0450    4.4650 N.3   233  THR233     -0.1218
     75  CA        12.4680   14.1500    5.0840 C.3   233  THR233      0.1862
     76  C         12.4780   15.3300    4.1270 C.2   233  THR233      0.2287
     77  O         12.7700   15.1490    2.9490 O.2   233  THR233     -0.2866
     78  CB        13.9210   13.7070    5.4150 C.3   233  THR233      0.1770
     79  OG1       13.9000   12.6470    6.3840 O.3   233  THR233     -0.2211
     80  CG2       14.7440   14.8870    5.9810 C.3   233  THR233      0.0375
     81  N          6.5690    9.0760   10.6240 N.3   253  ARG253     -0.1245
     82  CA         8.0200    9.2980   10.6510 C.3   253  ARG253      0.1563
     83  C          8.4090   10.3770    9.6340 C.2   253  ARG253      0.2260
     84  O          9.1910   10.1330    8.7240 O.2   253  ARG253     -0.2867
     85  CB         8.8140    7.9840   10.4280 C.3   253  ARG253      0.0307
     86  CG        10.3090    8.0800   10.8970 C.3   253  ARG253      0.0489
     87  CD        10.4050    8.0360   12.4380 C.3   253  ARG253      0.2205
     88  NE        10.1430    6.7000   12.9560 N.pl3 253  ARG253     -0.0865
     89  CZ        11.0870    5.8150   13.2870 C.cat 253  ARG253      0.5346
     90  NH1       12.3750    6.1200   13.1350 N.pl3 253  ARG253      0.1354
     91  NH2       10.7400    4.6210   13.7520 N.pl3 253  ARG253      0.1354
     92  N          9.7340    1.4830   11.7380 N.3   380  SER380     -0.1217
     93  CA         9.8790    1.9270   10.3450 C.3   380  SER380      0.1889
     94  C         10.9170    1.0410    9.6740 C.2   380  SER380      0.2288
     95  O         12.0800    1.0850   10.0480 O.2   380  SER380     -0.2866
     96  CB        10.3410    3.3980   10.3150 C.3   380  SER380      0.2089
     97  OG        10.6590    3.8400    8.9920 O.3   380  SER380     -0.2183
     98  N         12.2540   -0.1930    5.7430 N.3   382  SER382     -0.1217
     99  CA        12.1530   -0.1360    4.2880 C.3   382  SER382      0.1889
    100  C         12.2750   -1.5090    3.6190 C.2   382  SER382      0.2288
    101  O         12.8520   -2.4640    4.1810 O.2   382  SER382     -0.2866
    102  CB        13.1970    0.8240    3.7040 C.3   382  SER382      0.2089
    103  OG        12.9150    1.0630    2.3310 O.3   382  SER382     -0.2183
    104  N         21.7220   -4.7660   -0.3610 N.3   387  THR387     -0.1218
    105  CA        22.6960   -3.9630   -1.1000 C.3   387  THR387      0.1862
    106  C         24.1200   -4.5490   -1.0310 C.2   387  THR387      0.2287
    107  O         24.8940   -4.3990   -1.9710 O.2   387  THR387     -0.2866
    108  CB        22.6710   -2.4800   -0.6720 C.3   387  THR387      0.1770
    109  OG1       23.0240   -2.3680    0.7080 O.3   387  THR387     -0.2211
    110  CG2       21.2740   -1.8810   -0.8520 C.3   387  THR387      0.0375
@<TRIPOS>BOND
     1     4     3    2
     2     3     2    1
     3     2     1    1
     4     2     5    1
     5    24    22    1
     6     5     6    1
     7    23    21    1
     8    22    21    1
     9    28    27    2
    10     6     7    1
    11     6     8    1
    12    21    18    1
    13    27    26    1
    14    18    19    1
    15    18    17    1
    16    12    11    2
    17    25    26    1
    18    25    19   am
    19    26    29    1
    20    19    20    2
    21    29    30    1
    22    29    31    1
    23    11    17   am
    24    11    10    1
    25    16    14   am
    26   107   106    2
    27    47    45    1
    28    13    10    1
    29    13    14    1
    30    10     9    1
    31    46    45    1
    32    14    15    2
    33    51    50    2
    34   105   106    1
    35   105   108    1
    36   105   104    1
    37    45    44    1
    38   110   108    1
    39   108   109    1
    40    44    41    1
    41    50    49    1
    42    35    34    2
    43    41    42    1
    44    41    40    1
    45    48    49    1
    46    48    42   am
    47    49    52    1
    48    42    43    2
    49    52    53    1
    50    52    54    1
    51    34    40   am
    52    34    33    1
    53    36    33    1
    54    36    37    1
    55   103   102    1
    56    33    32    1
    57    39    37   ar
    58    77    76    2
    59    37    38   ar
    60   100   101    2
    61   100    99    1
    62   102    99    1
    63    76    75    1
    64    99    98    1
    65    69    68    2
    66    65    63    1
    67    74    75    1
    68    58    57    2
    69    55    56    1
    70    75    78    1
    71    68    67    1
    72    78    80    1
    73    78    79    1
    74    57    56    1
    75    57    66   am
    76    63    64    1
    77    63    62    2
    78    73    71   am
    79    56    59    1
    80    59    60    1
    81    62    61    1
    82    71    70    1
    83    71    72    2
    84    67    70    1
    85    67    66    1
    86    60    61    1
    87    84    83    2
    88    97    96    1
    89    83    82    1
    90    94    95    2
    91    94    93    1
    92    96    93    1
    93    93    92    1
    94    85    82    1
    95    85    86    1
    96    81    82    1
    97    86    87    1
    98    87    88    1
    99    88    89    2
   100    90    89    1
   101    89    91    1
