@<TRIPOS>MOLECULE
tmp/3eqoA01.pdb
 165 160 0 0 0
SMALL
GASTEIGER

@<TRIPOS>ATOM
      1  N        -10.3060    0.2790  -15.6910 N.3   144  VAL144     -0.1245
      2  CA       -11.2260    0.1610  -14.5630 C.3   144  VAL144      0.1561
      3  C        -10.4990    0.6340  -13.2850 C.2   144  VAL144      0.2260
      4  O         -9.4170    0.1530  -12.9800 O.2   144  VAL144     -0.2867
      5  CB       -11.7550   -1.2850  -14.4340 C.3   144  VAL144      0.0252
      6  CG1      -12.6340   -1.4770  -13.2180 C.3   144  VAL144      0.0019
      7  CG2      -12.5560   -1.6320  -15.7080 C.3   144  VAL144      0.0019
      8  N        -10.7070    0.3560  -10.0600 N.3   146  GLN146     -0.1231
      9  CA       -10.4150   -0.6980   -9.0780 C.3   146  GLN146      0.1698
     10  C         -9.3730   -1.6920   -9.5390 C.2   146  GLN146      0.2592
     11  O         -8.9020   -2.4940   -8.7350 O.2   146  GLN146     -0.2718
     12  CB       -11.6750   -1.4650   -8.6970 C.3   146  GLN146      0.0381
     13  CG       -12.7960   -0.6140   -8.1260 C.3   146  GLN146      0.0905
     14  CD       -13.8350   -0.1980   -9.1640 C.2   146  GLN146      0.2608
     15  OE1      -13.5620   -0.0740  -10.3440 O.2   146  GLN146     -0.2717
     16  NE2      -15.0280    0.0170   -8.7070 N.am  146  GLN146     -0.0878
     17  N         -8.9830   -1.5820  -10.8140 N.am  147  ASN147     -0.1974
     18  CA        -7.9880   -2.4050  -11.4880 C.3   147  ASN147      0.1688
     19  C         -6.6900   -1.6580  -11.9100 C.2   147  ASN147      0.2292
     20  O         -5.7940   -2.1980  -12.5670 O.2   147  ASN147     -0.2864
     21  CB        -8.6540   -2.9750  -12.7170 C.3   147  ASN147      0.1181
     22  CG        -8.5510   -4.4380  -12.7590 C.2   147  ASN147      0.2629
     23  OD1       -7.5310   -5.0040  -13.2440 O.2   147  ASN147     -0.2716
     24  ND2       -9.5690   -5.1080  -12.1980 N.am  147  ASN147     -0.0877
     25  N         -3.6500   -0.6090  -11.0840 N.3   149  PHE149     -0.1241
     26  CA        -2.4980   -0.8990  -10.2580 C.3   149  PHE149      0.1605
     27  C         -1.2280   -0.4390  -10.9560 C.2   149  PHE149      0.2264
     28  O         -1.2720   -0.0340  -12.0980 O.2   149  PHE149     -0.2867
     29  CB        -2.3540   -2.4110  -10.0330 C.3   149  PHE149      0.0534
     30  CG        -3.6350   -3.1150   -9.7880 C.ar  149  PHE149     -0.0203
     31  CD1       -4.5360   -2.6570   -8.8040 C.ar  149  PHE149     -0.0042
     32  CD2       -3.9380   -4.2890  -10.5230 C.ar  149  PHE149     -0.0042
     33  CE1       -5.7040   -3.3340   -8.5520 C.ar  149  PHE149     -0.0003
     34  CE2       -5.1310   -4.9720  -10.2720 C.ar  149  PHE149     -0.0003
     35  CZ        -6.0140   -4.4960   -9.2970 C.ar  149  PHE149     -0.0000
     36  N         -4.2230   -0.3960   -5.7740 N.3   176  GLN176     -0.1245
     37  CA        -3.0870   -0.8450   -4.9760 C.3   176  GLN176      0.1566
     38  C         -1.8220   -0.8690   -5.8450 C.2   176  GLN176      0.2260
     39  O         -1.9130   -0.6870   -7.0800 O.2   176  GLN176     -0.2867
     40  CB        -3.3250   -2.2290   -4.3600 C.3   176  GLN176      0.0367
     41  CG        -4.4920   -2.3460   -3.3710 C.3   176  GLN176      0.0905
     42  CD        -5.8170   -2.8250   -3.9800 C.2   176  GLN176      0.2608
     43  OE1       -6.6760   -3.3090   -3.2510 O.2   176  GLN176     -0.2717
     44  NE2       -6.0100   -2.6450   -5.2890 N.am  176  GLN176     -0.0878
     45  N         -9.3920    2.0320   -5.4730 N.3   204  SER204     -0.1217
     46  CA        -9.3200    1.1160   -4.3400 C.3   204  SER204      0.1889
     47  C         -7.8530    1.0930   -3.9200 C.2   204  SER204      0.2288
     48  O         -7.1110    0.1920   -4.3010 O.2   204  SER204     -0.2866
     49  CB        -9.7970   -0.2630   -4.7850 C.3   204  SER204      0.2089
     50  OG        -9.5160   -1.2560   -3.8070 O.3   204  SER204     -0.2183
     51  N        -12.0780    4.1090   -2.0130 N.3   225  GLN225     -0.1245
     52  CA       -12.4750    3.1490   -1.0210 C.3   225  GLN225      0.1566
     53  C        -11.6670    3.2910    0.2750 C.2   225  GLN225      0.2260
     54  O        -12.2430    3.4180    1.3150 O.2   225  GLN225     -0.2867
     55  CB       -12.2820    1.7390   -1.5900 C.3   225  GLN225      0.0367
     56  CG       -13.3330    1.2740   -2.6380 C.3   225  GLN225      0.0905
     57  CD       -13.1280   -0.1940   -3.0450 C.2   225  GLN225      0.2608
     58  OE1      -12.4200   -0.9170   -2.3730 O.2   225  GLN225     -0.2717
     59  NE2      -13.6610   -0.5970   -4.1830 N.am  225  GLN225     -0.0878
     60  N          1.4630   -5.2020   -0.9080 N.3   570  TRP570     -0.1241
     61  CA         0.2020   -5.8400   -1.3200 C.3   570  TRP570      0.1605
     62  C          0.4990   -7.3100   -1.3970 C.2   570  TRP570      0.2264
     63  O          1.4100   -7.7160   -2.1380 O.2   570  TRP570     -0.2867
     64  CB        -0.1900   -5.3390   -2.7080 C.3   570  TRP570      0.0550
     65  CG        -1.5770   -5.6390   -3.1760 C.ar  570  TRP570      0.0003
     66  CD1       -2.6780   -5.9890   -2.4080 C.ar  570  TRP570      0.0946
     67  CD2       -2.0490   -5.5480   -4.5380 C.ar  570  TRP570      0.0152
     68  NE1       -3.7610   -6.1690   -3.2190 N.ar  570  TRP570     -0.2442
     69  CE2       -3.4100   -5.8810   -4.5270 C.ar  570  TRP570      0.0810
     70  CE3       -1.4490   -5.1810   -5.7580 C.ar  570  TRP570      0.0012
     71  CZ2       -4.1890   -5.8800   -5.7030 C.ar  570  TRP570      0.0191
     72  CZ3       -2.2180   -5.2220   -6.9240 C.ar  570  TRP570      0.0001
     73  CH2       -3.5660   -5.5700   -6.8860 C.ar  570  TRP570      0.0015
     74  N         -1.0540  -10.1970   -2.7040 N.3   572  TRP572     -0.1241
     75  CA        -2.2210  -10.3440   -3.5370 C.3   572  TRP572      0.1605
     76  C         -2.2970  -11.7410   -4.0950 C.2   572  TRP572      0.2264
     77  O         -1.5360  -12.0980   -5.0070 O.2   572  TRP572     -0.2867
     78  CB        -2.1150   -9.3570   -4.6830 C.3   572  TRP572      0.0550
     79  CG        -3.3260   -9.2950   -5.5500 C.ar  572  TRP572      0.0003
     80  CD1       -4.6090   -8.9640   -5.1630 C.ar  572  TRP572      0.0946
     81  CD2       -3.3820   -9.5700   -6.9620 C.ar  572  TRP572      0.0152
     82  NE1       -5.4410   -8.9680   -6.2680 N.ar  572  TRP572     -0.2442
     83  CE2       -4.7250   -9.3520   -7.3760 C.ar  572  TRP572      0.0810
     84  CE3       -2.4170   -9.9570   -7.9210 C.ar  572  TRP572      0.0012
     85  CZ2       -5.1390   -9.5100   -8.7070 C.ar  572  TRP572      0.0191
     86  CZ3       -2.8170  -10.1250   -9.2280 C.ar  572  TRP572      0.0001
     87  CH2       -4.1840   -9.9150   -9.6150 C.ar  572  TRP572      0.0015
     88  N         -7.1240  -12.5740   -8.0100 N.3   575  ASP575     -0.1225
     89  CA        -8.5230  -12.9070   -8.2390 C.3   575  ASP575      0.1805
     90  C         -8.8210  -12.9860   -9.7430 C.2   575  ASP575      0.2597
     91  O         -9.8180  -13.6240  -10.1930 O.2   575  ASP575     -0.2718
     92  CB        -9.4150  -11.8670   -7.5860 C.3   575  ASP575      0.1424
     93  CG        -9.1370  -10.4710   -8.1260 C.2   575  ASP575      0.3668
     94  OD1       -8.2070   -9.8560   -7.5890 O.co2 575  ASP575     -0.2456
     95  OD2       -9.7350  -10.0330   -9.1420 O.co2 575  ASP575     -0.2456
     96  N         -7.9500  -12.3400  -10.5160 N.am  576  HIS576     -0.1975
     97  CA        -8.1070  -12.2840  -11.9630 C.3   576  HIS576      0.1656
     98  C         -6.7550  -12.2040  -12.6200 C.2   576  HIS576      0.2291
     99  O         -5.7660  -11.9190  -11.9720 O.2   576  HIS576     -0.2864
    100  CB        -9.0510  -11.1520  -12.4170 C.3   576  HIS576      0.0771
    101  CG        -8.4880   -9.7720  -12.2760 C.ar  576  HIS576      0.0820
    102  ND1       -8.6170   -9.0210  -11.1240 N.ar  576  HIS576     -0.2267
    103  CD2       -7.8460   -8.9810  -13.1630 C.ar  576  HIS576      0.1154
    104  CE1       -8.0470   -7.8420  -11.3000 C.ar  576  HIS576      0.1986
    105  NE2       -7.5780   -7.7910  -12.5300 N.ar  576  HIS576     -0.2212
    106  N         -4.8770  -10.1680    0.3100 N.3   610  GLU610     -0.1231
    107  CA        -6.1330  -10.4800   -0.3840 C.3   610  GLU610      0.1699
    108  C         -6.2200  -11.8590   -1.0530 C.2   610  GLU610      0.2592
    109  O         -5.3460  -12.2290   -1.7840 O.2   610  GLU610     -0.2718
    110  CB        -6.3880   -9.4410   -1.5060 C.3   610  GLU610      0.0402
    111  CG        -6.7070   -8.0530   -1.0530 C.3   610  GLU610      0.1161
    112  CD        -7.1990   -7.2030   -2.2030 C.2   610  GLU610      0.3649
    113  OE1       -6.4070   -6.9820   -3.1610 O.co2 610  GLU610     -0.2457
    114  OE2       -8.3750   -6.7700   -2.1590 O.co2 610  GLU610     -0.2457
    115  N         -7.3380  -12.5390   -0.8490 N.am  611  HIS611     -0.1976
    116  CA        -7.7480  -13.7970   -1.5350 C.3   611  HIS611      0.1656
    117  C         -7.0850  -15.1000   -1.0710 C.2   611  HIS611      0.2291
    118  O         -6.9290  -16.0590   -1.8560 O.2   611  HIS611     -0.2864
    119  CB        -7.8440  -13.6610   -3.0590 C.3   611  HIS611      0.0771
    120  CG        -8.3460  -12.3270   -3.5020 C.ar  611  HIS611      0.0820
    121  ND1       -7.6420  -11.5170   -4.3540 N.ar  611  HIS611     -0.2267
    122  CD2       -9.4410  -11.6230   -3.1370 C.ar  611  HIS611      0.1154
    123  CE1       -8.3100  -10.3940   -4.5450 C.ar  611  HIS611      0.1986
    124  NE2       -9.3920  -10.4250   -3.7980 N.ar  611  HIS611     -0.2212
    125  N         -6.0010   -3.5620    4.6230 N.3   631  GLN631     -0.1245
    126  CA        -7.1570   -3.8700    3.7930 C.3   631  GLN631      0.1566
    127  C         -7.1810   -5.3720    3.4370 C.2   631  GLN631      0.2260
    128  O         -6.1580   -5.9660    3.1690 O.2   631  GLN631     -0.2867
    129  CB        -7.1950   -2.9720    2.5540 C.3   631  GLN631      0.0367
    130  CG        -8.3520   -3.1420    1.6110 C.3   631  GLN631      0.0905
    131  CD        -8.0590   -4.0240    0.3550 C.2   631  GLN631      0.2608
    132  OE1       -8.8940   -4.8240   -0.0210 O.2   631  GLN631     -0.2717
    133  NE2       -6.8770   -3.8760   -0.2710 N.am  631  GLN631     -0.0878
    134  N         -9.5010   -8.7230    1.3540 N.3   633  GLU633     -0.1245
    135  CA       -10.6900   -9.3640    0.7620 C.3   633  GLU633      0.1567
    136  C        -10.5790  -10.9000    0.8590 C.2   633  GLU633      0.2260
    137  O         -9.4660  -11.4710    0.8340 O.2   633  GLU633     -0.2867
    138  CB       -10.8690   -8.9950   -0.7110 C.3   633  GLU633      0.0388
    139  CG       -11.7980   -7.8130   -1.0100 C.3   633  GLU633      0.1160
    140  CD       -11.7660   -7.4340   -2.5170 C.2   633  GLU633      0.3649
    141  OE1      -11.3760   -8.2660   -3.3880 O.co2 633  GLU633     -0.2457
    142  OE2      -12.1040   -6.2760   -2.8350 O.co2 633  GLU633     -0.2457
    143  N        -12.7690  -15.0620   -3.9500 N.3   636  TYR636     -0.1241
    144  CA       -14.0990  -15.0260   -4.6210 C.3   636  TYR636      0.1605
    145  C        -14.8700  -16.3860   -4.7080 C.2   636  TYR636      0.2264
    146  O        -16.0840  -16.4070   -4.8200 O.2   636  TYR636     -0.2867
    147  CB       -13.9860  -14.3910   -6.0170 C.3   636  TYR636      0.0534
    148  CG       -13.4780  -12.9500   -6.0150 C.ar  636  TYR636     -0.0201
    149  CD1      -13.2380  -12.2690   -4.8090 C.ar  636  TYR636     -0.0009
    150  CD2      -13.2720  -12.2620   -7.2250 C.ar  636  TYR636     -0.0009
    151  CE1      -12.7940  -10.9870   -4.8010 C.ar  636  TYR636      0.0417
    152  CE2      -12.8240  -10.9430   -7.2190 C.ar  636  TYR636      0.0417
    153  CZ       -12.5990  -10.3270   -6.0080 C.ar  636  TYR636      0.1957
    154  OH       -12.1630   -9.0250   -5.9840 O.3   636  TYR636     -0.2866
    155  N        -17.1410   -9.8290   -0.8120 N.3   684  PHE684     -0.1241
    156  CA       -17.9550   -9.3860   -1.9470 C.3   684  PHE684      0.1605
    157  C        -18.7180  -10.5420   -2.6520 C.2   684  PHE684      0.2264
    158  O        -19.6020  -10.2690   -3.4690 O.2   684  PHE684     -0.2867
    159  CB       -17.0460   -8.6970   -2.9480 C.3   684  PHE684      0.0534
    160  CG       -16.7090   -7.3010   -2.5620 C.ar  684  PHE684     -0.0203
    161  CD1      -17.6850   -6.3080   -2.5920 C.ar  684  PHE684     -0.0042
    162  CD2      -15.4390   -6.9720   -2.1270 C.ar  684  PHE684     -0.0042
    163  CE1      -17.3730   -4.9850   -2.2140 C.ar  684  PHE684     -0.0003
    164  CE2      -15.1020   -5.6500   -1.7420 C.ar  684  PHE684     -0.0003
    165  CZ       -16.0570   -4.6550   -1.7940 C.ar  684  PHE684     -0.0000
@<TRIPOS>BOND
     1     7     5    1
     2     1     2    1
     3     2     5    1
     4     2     3    1
     5     5     6    1
     6     3     4    2
     7    23    22    2
     8   103   105   ar
     9   103   101   ar
    10    22    21    1
    11    22    24   am
    12    21    18    1
    13    98    99    2
    14    98    97    1
    15    20    19    2
    16   105   104   ar
    17   100   101    1
    18   100    97    1
    19   101   102   ar
    20    28    27    2
    21    97    96    1
    22    19    18    1
    23    18    17    1
    24   104   102   ar
    25    25    26    1
    26    27    26    1
    27    17    10   am
    28    32    34   ar
    29    32    30   ar
    30    96    90   am
    31    15    14    2
    32    34    35   ar
    33    26    29    1
    34    91    90    2
    35     8     9    1
    36    29    30    1
    37    30    31   ar
    38    90    89    1
    39    87    86   ar
    40    87    85   ar
    41    10     9    1
    42    10    11    2
    43    35    33   ar
    44    86    84   ar
    45    14    16   am
    46    14    13    1
    47    95    93   ar
    48     9    12    1
    49    31    33   ar
    50    85    83   ar
    51    12    13    1
    52    89    88    1
    53    89    92    1
    54    93    94   ar
    55    93    92    1
    56    84    81   ar
    57    83    81   ar
    58    83    82   ar
    59   150   152   ar
    60   150   148   ar
    61   152   153   ar
    62    39    38    2
    63    81    79   ar
    64    72    73   ar
    65    72    70   ar
    66    73    71   ar
    67    82    80   ar
    68   147   148    1
    69   147   144    1
    70   148   149   ar
    71   153   154    1
    72   153   151   ar
    73    38    37    1
    74    36    37    1
    75    70    67   ar
    76    71    69   ar
    77    79    80   ar
    78    79    78    1
    79    45    46    1
    80    44    42   am
    81    77    76    2
    82    37    40    1
    83   146   145    2
    84   149   151   ar
    85    49    46    1
    86    49    50    1
    87   145   144    1
    88    78    75    1
    89   144   143    1
    90   123   121   ar
    91   123   124   ar
    92    67    69   ar
    93    67    65   ar
    94    69    68   ar
    95    40    41    1
    96   121   120   ar
    97    46    47    1
    98    48    47    2
    99    59    57   am
   100    76    75    1
   101    42    41    1
   102    42    43    2
   103   124   122   ar
   104    75    74    1
   105   120   122   ar
   106   120   119    1
   107   158   157    2
   108   141   140   ar
   109    68    66   ar
   110    65    64    1
   111    65    66   ar
   112   113   112   ar
   113   119   116    1
   114    57    56    1
   115    57    58    2
   116   159   160    1
   117   159   156    1
   118   142   140   ar
   119    64    61    1
   120   157   156    1
   121    56    55    1
   122   161   160   ar
   123   161   163   ar
   124   160   162   ar
   125   140   139    1
   126   163   165   ar
   127   112   114   ar
   128   112   111    1
   129    63    62    2
   130   162   164   ar
   131    51    52    1
   132   156   155    1
   133   118   117    2
   134   165   164   ar
   135   109   108    2
   136    55    52    1
   137   116   117    1
   138   116   115    1
   139   110   111    1
   140   110   107    1
   141    62    61    1
   142    61    60    1
   143   108   115   am
   144   108   107    1
   145    52    53    1
   146   139   138    1
   147   138   135    1
   148   107   106    1
   149   133   131   am
   150   132   131    2
   151    53    54    2
   152   131   130    1
   153   135   136    1
   154   135   134    1
   155   137   136    2
   156   130   129    1
   157   129   126    1
   158   128   127    2
   159   127   126    1
   160   126   125    1
