@<TRIPOS>MOLECULE
tmp/3er7B00.pdb
 131 128 0 0 0
SMALL
GASTEIGER

@<TRIPOS>ATOM
      1  N         49.0240   43.7440   28.7440 N.3     6  TYR6       -0.1227
      2  CA        49.8820   43.7450   27.5800 C.3     6  TYR6        0.1736
      3  C         49.6410   42.6360   26.5560 C.2     6  TYR6        0.2595
      4  O         49.4250   42.8980   25.3700 O.2     6  TYR6       -0.2718
      5  CB        51.3630   43.7320   28.0110 C.3     6  TYR6        0.0548
      6  CG        52.3430   43.5660   26.8760 C.ar    6  TYR6       -0.0200
      7  CD1       52.5590   44.5890   25.9450 C.ar    6  TYR6       -0.0009
      8  CD2       53.0640   42.3910   26.7240 C.ar    6  TYR6       -0.0009
      9  CE1       53.4250   44.4190   24.8750 C.ar    6  TYR6        0.0417
     10  CE2       53.9620   42.2280   25.6570 C.ar    6  TYR6        0.0417
     11  CZ        54.1460   43.2530   24.7480 C.ar    6  TYR6        0.1957
     12  OH        55.0310   43.0980   23.6830 O.3     6  TYR6       -0.2866
     13  N         49.7270   41.3840   26.9800 N.am    7  PHE7       -0.1976
     14  CA        49.6540   40.3190   25.9900 C.3     7  PHE7        0.1639
     15  C         48.3310   40.2220   25.2320 C.2     7  PHE7        0.2290
     16  O         48.3200   40.0510   23.9950 O.2     7  PHE7       -0.2864
     17  CB        50.0540   38.9530   26.5550 C.3     7  PHE7        0.0560
     18  CG        51.4520   38.9110   27.0770 C.ar    7  PHE7       -0.0200
     19  CD1       52.5180   38.6960   26.2270 C.ar    7  PHE7       -0.0042
     20  CD2       51.6970   39.1150   28.4190 C.ar    7  PHE7       -0.0042
     21  CE1       53.8080   38.6810   26.7180 C.ar    7  PHE7       -0.0003
     22  CE2       52.9910   39.1070   28.8970 C.ar    7  PHE7       -0.0003
     23  CZ        54.0240   38.8660   28.0480 C.ar    7  PHE7       -0.0000
     24  N         48.1060   43.0390   22.8370 N.3    10  PHE10      -0.1241
     25  CA        48.9940   42.8120   21.6990 C.3    10  PHE10       0.1605
     26  C         48.2660   41.9290   20.6750 C.2    10  PHE10       0.2264
     27  O         48.1960   42.2310   19.4860 O.2    10  PHE10      -0.2867
     28  CB        50.2910   42.1400   22.1440 C.3    10  PHE10       0.0534
     29  CG        51.3740   42.1370   21.0950 C.ar   10  PHE10      -0.0203
     30  CD1       51.2980   41.3150   19.9970 C.ar   10  PHE10      -0.0042
     31  CD2       52.4490   43.0000   21.1940 C.ar   10  PHE10      -0.0042
     32  CE1       52.2840   41.3130   19.0380 C.ar   10  PHE10      -0.0003
     33  CE2       53.4500   43.0110   20.2400 C.ar   10  PHE10      -0.0003
     34  CZ        53.3640   42.1830   19.1790 C.ar   10  PHE10      -0.0000
     35  N         65.0460   43.3810   21.5980 N.3    35  LEU35      -0.1245
     36  CA        64.6400   42.1940   20.9130 C.3    35  LEU35       0.1561
     37  C         65.9010   41.3630   20.7060 C.2    35  LEU35       0.2260
     38  O         66.7510   41.6920   19.8910 O.2    35  LEU35      -0.2867
     39  CB        64.0060   42.5720   19.5640 C.3    35  LEU35       0.0270
     40  CG        62.7750   43.5000   19.6010 C.3    35  LEU35       0.0019
     41  CD1       62.5360   44.1880   18.2670 C.3    35  LEU35       0.0001
     42  CD2       61.5480   42.6870   20.0330 C.3    35  LEU35       0.0001
     43  N         58.4120   51.5510   18.3750 N.3    46  TRP46      -0.1241
     44  CA        57.5200   50.5380   18.9520 C.3    46  TRP46       0.1605
     45  C         56.3340   50.2770   18.0360 C.2    46  TRP46       0.2264
     46  O         56.0320   49.1140   17.7350 O.2    46  TRP46      -0.2867
     47  CB        57.0500   50.9270   20.3800 C.3    46  TRP46       0.0550
     48  CG        56.0540   49.9430   20.9370 C.ar   46  TRP46       0.0003
     49  CD1       54.7260   50.1290   21.1000 C.ar   46  TRP46       0.0946
     50  CD2       56.3220   48.5910   21.3160 C.ar   46  TRP46       0.0152
     51  NE1       54.1400   48.9830   21.5840 N.ar   46  TRP46      -0.2442
     52  CE2       55.1040   48.0230   21.7210 C.ar   46  TRP46       0.0810
     53  CE3       57.4730   47.8110   21.3580 C.ar   46  TRP46       0.0012
     54  CZ2       55.0050   46.7040   22.1500 C.ar   46  TRP46       0.0191
     55  CZ3       57.3630   46.4890   21.7970 C.ar   46  TRP46       0.0001
     56  CH2       56.1460   45.9710   22.1960 C.ar   46  TRP46       0.0015
     57  N         57.4210   48.3560   15.0430 N.3    49  PHE49      -0.1241
     58  CA        57.6850   46.9680   15.3920 C.3    49  PHE49       0.1605
     59  C         56.3700   46.1480   15.4870 C.2    49  PHE49       0.2264
     60  O         56.2640   45.0280   14.9130 O.2    49  PHE49      -0.2867
     61  CB        58.4400   46.8510   16.7340 C.3    49  PHE49       0.0534
     62  CG        58.4320   45.4490   17.3010 C.ar   49  PHE49      -0.0203
     63  CD1       59.1900   44.4670   16.7070 C.ar   49  PHE49      -0.0042
     64  CD2       57.6340   45.1080   18.3920 C.ar   49  PHE49      -0.0042
     65  CE1       59.1910   43.1760   17.1950 C.ar   49  PHE49      -0.0003
     66  CE2       57.6190   43.8040   18.8740 C.ar   49  PHE49      -0.0003
     67  CZ        58.4100   42.8410   18.2520 C.ar   49  PHE49      -0.0000
     68  N         49.6060   34.9230   22.2930 N.3    61  HIS61      -0.1241
     69  CA        50.5500   34.8910   23.3810 C.3    61  HIS61       0.1621
     70  C         49.8700   34.4040   24.6530 C.2    61  HIS61       0.2264
     71  O         48.7390   34.7890   24.9450 O.2    61  HIS61      -0.2867
     72  CB        51.0330   36.2950   23.7380 C.3    61  HIS61       0.0745
     73  CG        51.8630   36.9770   22.6720 C.ar   61  HIS61       0.0817
     74  ND1       51.3290   37.4350   21.4870 N.ar   61  HIS61      -0.2268
     75  CD2       53.1830   37.3020   22.6290 C.ar   61  HIS61       0.1154
     76  CE1       52.2780   37.9980   20.7610 C.ar   61  HIS61       0.1986
     77  NE2       53.4130   37.9120   21.4270 N.ar   61  HIS61      -0.2212
     78  N         56.7450   33.3180   28.7020 N.3    77  TRP77      -0.1241
     79  CA        55.7020   33.4380   27.7050 C.3    77  TRP77       0.1605
     80  C         55.8440   32.3080   26.7000 C.2    77  TRP77       0.2264
     81  O         56.8960   31.6520   26.5380 O.2    77  TRP77      -0.2867
     82  CB        55.6590   34.8100   27.0000 C.3    77  TRP77       0.0550
     83  CG        56.9610   35.3010   26.4420 C.ar   77  TRP77       0.0003
     84  CD1       57.7520   36.2240   26.9940 C.ar   77  TRP77       0.0946
     85  CD2       57.6290   34.8590   25.2430 C.ar   77  TRP77       0.0152
     86  NE1       58.8630   36.4350   26.2270 N.ar   77  TRP77      -0.2442
     87  CE2       58.8200   35.6100   25.1320 C.ar   77  TRP77       0.0810
     88  CE3       57.3130   33.9440   24.2250 C.ar   77  TRP77       0.0012
     89  CZ2       59.7330   35.4510   24.0630 C.ar   77  TRP77       0.0191
     90  CZ3       58.2010   33.7820   23.1600 C.ar   77  TRP77       0.0001
     91  CH2       59.4110   34.5280   23.0960 C.ar   77  TRP77       0.0015
     92  N         54.3280   31.5500   22.6190 N.3    79  VAL79      -0.1245
     93  CA        53.7340   32.0950   21.4010 C.3    79  VAL79       0.1561
     94  C         53.4550   30.9850   20.3790 C.2    79  VAL79       0.2260
     95  O         54.2580   30.0720   20.1970 O.2    79  VAL79      -0.2867
     96  CB        54.6570   33.1460   20.7480 C.3    79  VAL79       0.0252
     97  CG1       54.2790   33.4230   19.2700 C.3    79  VAL79       0.0019
     98  CG2       54.6840   34.4320   21.6070 C.3    79  VAL79       0.0019
     99  N         57.1790   29.7670   19.7830 N.3    91  GLN91      -0.1245
    100  CA        58.3720   30.3320   20.4140 C.3    91  GLN91       0.1566
    101  C         58.1210   30.3790   21.9090 C.2    91  GLN91       0.2260
    102  O         57.0040   30.6180   22.3560 O.2    91  GLN91      -0.2867
    103  CB        58.6150   31.7560   19.9110 C.3    91  GLN91       0.0367
    104  CG        60.0150   32.2490   20.1470 C.3    91  GLN91       0.0905
    105  CD        60.2270   33.6230   19.4850 C.2    91  GLN91       0.2608
    106  OE1       59.4210   34.5480   19.6770 O.2    91  GLN91      -0.2717
    107  NE2       61.3210   33.7630   18.7190 N.am   91  GLN91      -0.0878
    108  N         60.1270   37.7200   29.0350 N.3    95  ASP95      -0.1239
    109  CA        60.1160   39.1900   28.9150 C.3    95  ASP95       0.1674
    110  C         60.5090   39.7780   30.2850 C.2    95  ASP95       0.2266
    111  O         60.0590   39.2930   31.3370 O.2    95  ASP95      -0.2867
    112  CB        58.7480   39.7720   28.5770 C.3    95  ASP95       0.1410
    113  CG        58.4060   39.7260   27.0870 C.2    95  ASP95       0.3668
    114  OD1       59.2250   39.3600   26.2360 O.co2  95  ASP95      -0.2456
    115  OD2       57.2460   40.1150   26.7820 O.co2  95  ASP95      -0.2456
    116  N         61.1870   47.1650   28.1990 N.3   108  LEU108     -0.1245
    117  CA        60.6240   45.8510   27.8560 C.3   108  LEU108      0.1561
    118  C         61.6250   45.0890   26.9630 C.2   108  LEU108      0.2260
    119  O         61.8510   45.4890   25.8210 O.2   108  LEU108     -0.2867
    120  CB        59.2730   45.9800   27.1420 C.3   108  LEU108      0.0270
    121  CG        58.5790   44.6620   26.7510 C.3   108  LEU108      0.0019
    122  CD1       58.2990   43.8410   27.9980 C.3   108  LEU108      0.0001
    123  CD2       57.2980   44.8940   25.9650 C.3   108  LEU108      0.0001
    124  N         62.6770   41.3410   25.3370 N.3   110  ASN110     -0.1240
    125  CA        62.1800   40.0390   24.9140 C.3   110  ASN110      0.1653
    126  C         63.3900   39.1690   24.6040 C.2   110  ASN110      0.2266
    127  O         64.2450   39.5610   23.7930 O.2   110  ASN110     -0.2867
    128  CB        61.3100   40.2400   23.6680 C.3   110  ASN110      0.1155
    129  CG        60.7270   38.9560   23.1100 C.2   110  ASN110      0.2627
    130  OD1       59.5160   38.7470   23.1210 O.2   110  ASN110     -0.2716
    131  ND2       61.5540   38.1190   22.6390 N.am  110  ASN110     -0.0877
@<TRIPOS>BOND
     1    60    59    2
     2    57    58    1
     3    58    59    1
     4    58    61    1
     5    63    65   ar
     6    63    62   ar
     7    61    62    1
     8    65    67   ar
     9    62    64   ar
    10    46    45    2
    11    45    44    1
    12    67    66   ar
    13    41    40    1
    14    43    44    1
    15    64    66   ar
    16   107   105   am
    17    44    47    1
    18    32    34   ar
    19    32    30   ar
    20    34    33   ar
    21    97    96    1
    22   105   106    2
    23   105   104    1
    24    27    26    2
    25    39    40    1
    26    39    36    1
    27    40    42    1
    28    99   100    1
    29    38    37    2
    30   103   104    1
    31   103   100    1
    32    30    29   ar
    33    95    94    2
    34    33    31   ar
    35    94    93    1
    36    47    48    1
    37   100   101    1
    38    26    25    1
    39    37    36    1
    40    96    93    1
    41    96    98    1
    42    76    77   ar
    43    76    74   ar
    44    36    35    1
    45    48    49   ar
    46    48    50   ar
    47    29    31   ar
    48    29    28    1
    49    49    51   ar
    50    50    53   ar
    51    50    52   ar
    52    53    55   ar
    53    93    92    1
    54    77    75   ar
    55    74    73   ar
    56    51    52   ar
    57    25    28    1
    58    25    24    1
    59    52    54   ar
    60    55    56   ar
    61   101   102    2
    62    54    56   ar
    63    68    69    1
    64    75    73   ar
    65   131   129   am
    66    73    72    1
    67    91    90   ar
    68    91    89   ar
    69   129   130    2
    70   129   128    1
    71    90    88   ar
    72    69    72    1
    73    69    70    1
    74   128   125    1
    75    12    11    1
    76   127   126    2
    77    16    15    2
    78    89    87   ar
    79    88    85   ar
    80   126   125    1
    81    70    71    2
    82    11     9   ar
    83    11    10   ar
    84     9     7   ar
    85   125   124    1
    86    87    85   ar
    87    87    86   ar
    88    15    14    1
    89    85    83   ar
    90     4     3    2
    91    10     8   ar
    92   119   118    2
    93     7     6   ar
    94   123   121    1
    95    14    17    1
    96    14    13    1
    97    86    84   ar
    98    19    21   ar
    99    19    18   ar
   100   114   113   ar
   101    83    84   ar
   102    83    82    1
   103    81    80    2
   104    17    18    1
   105     3    13   am
   106     3     2    1
   107    80    79    1
   108    21    23   ar
   109     8     6   ar
   110   121   120    1
   111   121   122    1
   112   115   113   ar
   113     6     5    1
   114   118   117    1
   115    82    79    1
   116    18    20   ar
   117   113   112    1
   118   120   117    1
   119     2     5    1
   120     2     1    1
   121    79    78    1
   122   117   116    1
   123    23    22   ar
   124    20    22   ar
   125   112   109    1
   126   109   108    1
   127   109   110    1
   128   110   111    2
