@<TRIPOS>MOLECULE
tmp/3er8D00.pdb
 158 150 0 0 0
SMALL
GASTEIGER

@<TRIPOS>ATOM
      1  N         11.8300  -25.1930  -24.1440 N.3    32  LYS32      -0.1245
      2  CA        10.4400  -25.3740  -24.5500 C.3    32  LYS32       0.1561
      3  C         10.0930  -24.5670  -25.8140 C.2    32  LYS32       0.2260
      4  O          9.1140  -24.8770  -26.5040 O.2    32  LYS32      -0.2867
      5  CB         9.4800  -24.9950  -23.4150 C.3    32  LYS32       0.0271
      6  CG         8.0230  -25.1620  -23.8260 C.3    32  LYS32       0.0035
      7  CD         7.0560  -24.8490  -22.7110 C.3    32  LYS32       0.0206
      8  CE         5.6320  -25.0520  -23.1710 C.3    32  LYS32       0.1093
      9  NZ         4.7150  -25.1310  -22.0090 N.3    32  LYS32      -0.1314
     10  N         12.4510  -26.5160  -28.8230 N.3    35  VAL35      -0.1231
     11  CA        11.7050  -27.7730  -29.0390 C.3    35  VAL35       0.1692
     12  C         10.2880  -27.5420  -29.6160 C.2    35  VAL35       0.2592
     13  O          9.5710  -28.4910  -29.9630 O.2    35  VAL35      -0.2718
     14  CB        11.5670  -28.5610  -27.6870 C.3    35  VAL35       0.0266
     15  CG1       10.9680  -29.9360  -27.9300 C.3    35  VAL35       0.0020
     16  CG2       12.9230  -28.6680  -26.9930 C.3    35  VAL35       0.0020
     17  N          9.8950  -26.2720  -29.6990 N.am   36  PHE36      -0.1962
     18  CA         8.5810  -25.8690  -30.2040 C.3    36  PHE36       0.1771
     19  C          8.6490  -25.8200  -31.7270 C.2    36  PHE36       0.2619
     20  O          9.4800  -25.1070  -32.2950 O.2    36  PHE36      -0.2715
     21  CB         8.2130  -24.4820  -29.6240 C.3    36  PHE36       0.0574
     22  CG         6.8160  -24.0200  -29.9460 C.ar   36  PHE36      -0.0200
     23  CD1        5.7060  -24.7360  -29.4960 C.ar   36  PHE36      -0.0042
     24  CD2        6.6070  -22.8430  -30.6800 C.ar   36  PHE36      -0.0042
     25  CE1        4.3960  -24.2820  -29.7700 C.ar   36  PHE36      -0.0003
     26  CE2        5.3040  -22.3780  -30.9620 C.ar   36  PHE36      -0.0003
     27  CZ         4.1980  -23.0990  -30.5060 C.ar   36  PHE36      -0.0000
     28  N          7.7890  -26.5890  -32.3850 N.am   37  ASN37      -0.1972
     29  CA         7.7670  -26.6050  -33.8420 C.3    37  ASN37       0.1688
     30  C          7.4340  -25.2030  -34.4000 C.2    37  ASN37       0.2292
     31  O          6.2660  -24.7660  -34.4320 O.2    37  ASN37      -0.2864
     32  CB         6.7540  -27.6520  -34.3300 C.3    37  ASN37       0.1181
     33  CG         6.9710  -28.0420  -35.7900 C.2    37  ASN37       0.2629
     34  OD1        6.6870  -27.2560  -36.7160 O.2    37  ASN37      -0.2716
     35  ND2        7.4890  -29.2570  -36.0040 N.am   37  ASN37      -0.0877
     36  N          7.0570  -24.1870  -37.1590 N.3    39  ASP39      -0.1225
     37  CA         6.5480  -24.2800  -38.5280 C.3    39  ASP39       0.1805
     38  C          5.0230  -24.3590  -38.5710 C.2    39  ASP39       0.2598
     39  O          4.3570  -23.5510  -39.2470 O.2    39  ASP39      -0.2718
     40  CB         7.1560  -25.4980  -39.2380 C.3    39  ASP39       0.1424
     41  CG         7.5220  -25.2020  -40.6870 C.2    39  ASP39       0.3668
     42  OD1        6.5860  -24.9310  -41.4930 O.co2  39  ASP39      -0.2456
     43  OD2        8.7480  -25.2330  -41.0000 O.co2  39  ASP39      -0.2456
     44  N          4.4810  -25.3480  -37.8580 N.am   40  ILE40      -0.1966
     45  CA         3.0410  -25.5170  -37.7940 C.3    40  ILE40       0.1727
     46  C          2.5520  -24.1550  -37.3520 C.2    40  ILE40       0.2616
     47  O          1.4120  -23.7650  -37.6180 O.2    40  ILE40      -0.2715
     48  CB         2.6430  -26.6210  -36.7730 C.3    40  ILE40       0.0290
     49  CG1        1.1210  -26.6010  -36.5130 C.3    40  ILE40       0.0022
     50  CG2        3.4910  -26.4890  -35.5230 C.3    40  ILE40       0.0023
     51  CD1        0.5990  -25.5590  -35.4950 C.3    40  ILE40       0.0001
     52  N          3.4320  -23.4210  -36.6780 N.am   41  PHE41      -0.1974
     53  CA         3.0730  -22.0870  -36.2450 C.3    41  PHE41       0.1639
     54  C          2.8190  -21.2410  -37.5090 C.2    41  PHE41       0.2290
     55  O          1.7790  -20.5710  -37.6250 O.2    41  PHE41      -0.2864
     56  CB         4.1850  -21.4670  -35.3960 C.3    41  PHE41       0.0560
     57  CG         3.7300  -20.2630  -34.6400 C.ar   41  PHE41      -0.0200
     58  CD1        2.8600  -20.4000  -33.5550 C.ar   41  PHE41      -0.0042
     59  CD2        4.0670  -18.9820  -35.0750 C.ar   41  PHE41      -0.0042
     60  CE1        2.3260  -19.2810  -32.9220 C.ar   41  PHE41      -0.0003
     61  CE2        3.5330  -17.8480  -34.4460 C.ar   41  PHE41      -0.0003
     62  CZ         2.6610  -18.0000  -33.3710 C.ar   41  PHE41      -0.0000
     63  N          1.9800  -22.2970  -40.1510 N.3    43  SER43      -0.1202
     64  CA         0.7570  -22.9120  -40.6970 C.3    43  SER43       0.2020
     65  C         -0.5050  -22.2810  -40.0980 C.2    43  SER43       0.2618
     66  O         -1.5370  -22.2040  -40.7770 O.2    43  SER43      -0.2717
     67  CB         0.7150  -24.4310  -40.4150 C.3    43  SER43       0.2103
     68  OG         1.2440  -25.2130  -41.4860 O.3    43  SER43      -0.2182
     69  N         -0.4220  -21.8290  -38.8400 N.am   44  LEU44      -0.1979
     70  CA        -1.5790  -21.2270  -38.1670 C.3    44  LEU44       0.1596
     71  C         -1.7950  -19.7150  -38.4480 C.2    44  LEU44       0.2287
     72  O         -2.9400  -19.2690  -38.6160 O.2    44  LEU44      -0.2864
     73  CB        -1.5080  -21.5080  -36.6500 C.3    44  LEU44       0.0297
     74  CG        -1.2900  -22.9760  -36.2200 C.3    44  LEU44       0.0022
     75  CD1       -1.8280  -23.1940  -34.8080 C.3    44  LEU44       0.0001
     76  CD2       -1.9940  -23.9260  -37.1830 C.3    44  LEU44       0.0001
     77  N         -1.1090  -18.3220  -41.0780 N.3    46  LYS46      -0.1231
     78  CA        -1.5990  -18.3110  -42.4580 C.3    46  LYS46       0.1693
     79  C         -3.0490  -18.7640  -42.4570 C.2    46  LYS46       0.2591
     80  O         -3.9050  -18.1530  -43.1200 O.2    46  LYS46      -0.2718
     81  CB        -0.7550  -19.2310  -43.3460 C.3    46  LYS46       0.0285
     82  CG         0.7000  -18.7600  -43.5150 C.3    46  LYS46       0.0035
     83  CD         1.4840  -19.6160  -44.5330 C.3    46  LYS46       0.0206
     84  CE         2.9290  -19.1040  -44.7180 C.3    46  LYS46       0.1093
     85  NZ         3.7040  -19.7520  -45.8490 N.3    46  LYS46      -0.1314
     86  N         -3.3140  -19.8270  -41.6960 N.am   47  LYS47      -0.1980
     87  CA        -4.6620  -20.3640  -41.5560 C.3    47  LYS47       0.1596
     88  C         -5.4510  -19.3860  -40.6710 C.2    47  LYS47       0.2287
     89  O         -6.1890  -19.7890  -39.7600 O.2    47  LYS47      -0.2864
     90  CB        -4.6140  -21.7430  -40.9010 C.3    47  LYS47       0.0298
     91  CG        -5.9440  -22.4590  -40.8880 C.3    47  LYS47       0.0038
     92  CD        -5.8570  -23.7500  -40.0900 C.3    47  LYS47       0.0206
     93  CE        -7.1640  -24.5570  -40.1330 C.3    47  LYS47       0.1093
     94  NZ        -8.3410  -23.8860  -39.4930 N.3    47  LYS47      -0.1314
     95  N         -6.1250  -15.9210  -44.1660 N.3    50  LYS50      -0.1245
     96  CA        -7.1770  -16.2550  -45.1340 C.3    50  LYS50       0.1561
     97  C         -8.5760  -16.4300  -44.5020 C.2    50  LYS50       0.2260
     98  O         -9.5570  -16.6240  -45.2190 O.2    50  LYS50      -0.2867
     99  CB        -6.7770  -17.5230  -45.9250 C.3    50  LYS50       0.0271
    100  CG        -6.5650  -18.7900  -45.0710 C.3    50  LYS50       0.0035
    101  CD        -7.8880  -19.5180  -44.7910 C.3    50  LYS50       0.0206
    102  CE        -7.8250  -20.3880  -43.5320 C.3    50  LYS50       0.1093
    103  NZ        -7.6710  -19.5640  -42.3000 N.3    50  LYS50      -0.1314
    104  N          4.4570  -19.8790  -27.7700 N.3    94  VAL94      -0.1231
    105  CA         4.6650  -21.2940  -27.4960 C.3    94  VAL94       0.1692
    106  C          3.6890  -21.9660  -26.5070 C.2    94  VAL94       0.2592
    107  O          3.5930  -23.2030  -26.4720 O.2    94  VAL94      -0.2718
    108  CB         6.0970  -21.5150  -26.9600 C.3    94  VAL94       0.0266
    109  CG1        6.3660  -23.0090  -26.7540 C.3    94  VAL94       0.0020
    110  CG2        7.1060  -20.8960  -27.9060 C.3    94  VAL94       0.0020
    111  N          2.9710  -21.1760  -25.7040 N.am   95  THR95      -0.1953
    112  CA         2.0620  -21.7580  -24.7130 C.3    95  THR95       0.1897
    113  C          0.6100  -21.3000  -24.7580 C.2    95  THR95       0.2313
    114  O         -0.2540  -21.9770  -24.2070 O.2    95  THR95      -0.2863
    115  CB         2.5700  -21.5310  -23.2490 C.3    95  THR95       0.1794
    116  OG1        2.0990  -20.2710  -22.7650 O.3    95  THR95      -0.2208
    117  CG2        4.0960  -21.5380  -23.1880 C.3    95  THR95       0.0378
    118  N         -2.3970  -21.2550  -29.2580 N.3    98  THR98      -0.1203
    119  CA        -3.3720  -22.3180  -29.4990 C.3    98  THR98       0.1994
    120  C         -4.6800  -22.0130  -28.7710 C.2    98  THR98       0.2617
    121  O         -5.7050  -21.7540  -29.4060 O.2    98  THR98      -0.2717
    122  CB        -2.8500  -23.7130  -29.0020 C.3    98  THR98       0.1784
    123  OG1       -2.1300  -24.3650  -30.0530 O.3    98  THR98      -0.2211
    124  CG2       -4.0120  -24.6190  -28.5480 C.3    98  THR98       0.0376
    125  N         -4.6300  -22.0360  -27.4400 N.am   99  ASP99      -0.1973
    126  CA        -5.8090  -21.8040  -26.6160 C.3    99  ASP99       0.1709
    127  C         -6.3650  -20.4110  -26.7320 C.2    99  ASP99       0.2293
    128  O         -7.4960  -20.1760  -26.3330 O.2    99  ASP99      -0.2864
    129  CB        -5.4960  -22.0810  -25.1490 C.3    99  ASP99       0.1436
    130  CG        -4.8840  -23.4570  -24.9360 C.2    99  ASP99       0.3671
    131  OD1       -5.5010  -24.4490  -25.4070 O.co2  99  ASP99      -0.2456
    132  OD2       -3.7950  -23.5460  -24.2990 O.co2  99  ASP99      -0.2456
    133  N         -5.5000  -19.6850  -31.6780 N.3   102  GLY102     -0.1210
    134  CA        -5.5250  -20.9010  -32.4680 C.3   102  GLY102      0.1956
    135  C         -6.9560  -21.3760  -32.6410 C.2   102  GLY102      0.2611
    136  O         -7.4370  -21.5090  -33.7650 O.2   102  GLY102     -0.2717
    137  N         -7.6370  -21.6100  -31.5190 N.am  103  VAL103     -0.1979
    138  CA        -9.0210  -22.0780  -31.5150 C.3   103  VAL103      0.1595
    139  C         -9.8560  -21.3830  -32.5860 C.2   103  VAL103      0.2287
    140  O        -10.7850  -21.9810  -33.1350 O.2   103  VAL103     -0.2864
    141  CB        -9.6890  -21.8410  -30.1250 C.3   103  VAL103      0.0276
    142  CG1      -11.0750  -22.4900  -30.0810 C.3   103  VAL103      0.0022
    143  CG2       -8.8030  -22.4090  -29.0130 C.3   103  VAL103      0.0022
    144  N         -9.9790  -21.1290  -35.4770 N.3   105  THR105     -0.1203
    145  CA       -10.1500  -21.8490  -36.7350 C.3   105  THR105      0.1994
    146  C        -10.3490  -23.3180  -36.3560 C.2   105  THR105      0.2617
    147  O         -9.4120  -24.1210  -36.3670 O.2   105  THR105     -0.2717
    148  CB        -8.9200  -21.6520  -37.6880 C.3   105  THR105      0.1784
    149  OG1       -7.7050  -21.9730  -36.9980 O.3   105  THR105     -0.2211
    150  CG2       -8.8590  -20.2050  -38.1890 C.3   105  THR105      0.0376
    151  N        -11.5930  -23.6200  -35.9780 N.am  106  ILE106     -0.1979
    152  CA       -12.0500  -24.9530  -35.5660 C.3   106  ILE106      0.1595
    153  C        -13.5880  -24.9950  -35.5440 C.2   106  ILE106      0.2287
    154  O        -14.2160  -25.7520  -36.2870 O.2   106  ILE106     -0.2864
    155  CB       -11.5100  -25.3400  -34.1380 C.3   106  ILE106      0.0276
    156  CG1      -10.0550  -25.8460  -34.2420 C.3   106  ILE106      0.0022
    157  CG2      -12.4460  -26.3720  -33.4720 C.3   106  ILE106      0.0022
    158  CD1       -9.4690  -26.4150  -32.9470 C.3   106  ILE106      0.0001
@<TRIPOS>BOND
     1    99    96    1
     2    99   100    1
     3    85    84    1
     4    98    97    2
     5    96    97    1
     6    96    95    1
     7   100   101    1
     8   101   102    1
     9    84    83    1
    10    83    82    1
    11   102   103    1
    12    82    81    1
    13    81    78    1
    14    80    79    2
    15    78    79    1
    16    78    77    1
    17    79    86   am
    18    86    87    1
    19    87    90    1
    20    87    88    1
    21    42    41   ar
    22    68    67    1
    23    43    41   ar
    24    90    91    1
    25    91    92    1
    26    66    65    2
    27    64    67    1
    28    64    63    1
    29    64    65    1
    30    41    40    1
    31    88    89    2
    32    93    92    1
    33    93    94    1
    34    65    69   am
    35    39    38    2
    36    40    37    1
    37    69    70    1
    38    72    71    2
    39    38    37    1
    40    38    44   am
    41    37    36    1
    42    71    70    1
    43   150   148    1
    44    70    73    1
    45    44    45    1
    46    45    46    1
    47    45    48    1
    48   148   149    1
    49   148   145    1
    50    55    54    2
    51    47    46    2
    52    54    53    1
    53    46    52   am
    54    76    74    1
    55    48    49    1
    56    48    50    1
    57   145   146    1
    58   145   144    1
    59    34    33    2
    60    52    53    1
    61    73    74    1
    62    49    51    1
    63   147   146    2
    64   146   151   am
    65   154   153    2
    66    53    56    1
    67    74    75    1
    68    35    33   am
    69   151   152    1
    70    33    32    1
    71   152   153    1
    72   152   155    1
    73    56    57    1
    74    59    57   ar
    75    59    61   ar
    76    57    58   ar
    77    61    62   ar
    78    31    30    2
    79    30    29    1
    80    32    29    1
    81   156   155    1
    82   156   158    1
    83   155   157    1
    84    29    28    1
    85   136   135    2
    86    58    60   ar
    87    62    60   ar
    88   140   139    2
    89   135   134    1
    90   135   137   am
    91   139   138    1
    92   134   133    1
    93    28    19   am
    94    20    19    2
    95    19    18    1
    96   137   138    1
    97   138   141    1
    98    26    24   ar
    99    26    27   ar
   100    24    22   ar
   101    27    25   ar
   102    18    17    1
   103    18    21    1
   104   141   142    1
   105   141   143    1
   106   123   122    1
   107    13    12    2
   108    22    21    1
   109    22    23   ar
   110    25    23   ar
   111    17    12   am
   112    12    11    1
   113   119   118    1
   114   119   122    1
   115   119   120    1
   116   121   120    2
   117    11    10    1
   118    11    14    1
   119   122   124    1
   120   120   125   am
   121    15    14    1
   122   110   108    1
   123   104   105    1
   124    14    16    1
   125   105   108    1
   126   105   106    1
   127   125   126    1
   128   108   109    1
   129   127   126    1
   130   127   128    2
   131   126   129    1
   132   106   107    2
   133   106   111   am
   134     4     3    2
   135     3     2    1
   136   111   112    1
   137   131   130   ar
   138   129   130    1
   139   130   132   ar
   140   113   112    1
   141   113   114    2
   142   112   115    1
   143     2     1    1
   144     2     5    1
   145     6     5    1
   146     6     7    1
   147   115   117    1
   148   115   116    1
   149     8     7    1
   150     8     9    1
