@<TRIPOS>MOLECULE
tmp/3er8C00.pdb
 131 125 0 0 0
SMALL
GASTEIGER

@<TRIPOS>ATOM
      1  N         10.4050   53.3550   44.2480 N.3    32  LYS32      -0.1245
      2  CA         9.0100   53.5210   44.6390 C.3    32  LYS32       0.1561
      3  C          8.6680   52.7120   45.8780 C.2    32  LYS32       0.2260
      4  O          7.6640   52.9830   46.5390 O.2    32  LYS32      -0.2867
      5  CB         8.0610   53.1400   43.5000 C.3    32  LYS32       0.0271
      6  CG         6.5940   53.2860   43.9060 C.3    32  LYS32       0.0035
      7  CD         5.6370   52.9910   42.7730 C.3    32  LYS32       0.0206
      8  CE         4.1940   53.1690   43.2280 C.3    32  LYS32       0.1093
      9  NZ         3.2510   53.2500   42.0630 N.3    32  LYS32      -0.1314
     10  N          8.4110   54.4250   49.7870 N.3    36  PHE36      -0.1227
     11  CA         7.0970   54.0150   50.2820 C.3    36  PHE36       0.1736
     12  C          7.1450   53.9710   51.8140 C.2    36  PHE36       0.2595
     13  O          7.9880   53.2820   52.4030 O.2    36  PHE36      -0.2718
     14  CB         6.7470   52.6240   49.6980 C.3    36  PHE36       0.0547
     15  CG         5.3460   52.1400   50.0110 C.ar   36  PHE36      -0.0202
     16  CD1        4.2300   52.8340   49.5550 C.ar   36  PHE36      -0.0042
     17  CD2        5.1500   50.9600   50.7370 C.ar   36  PHE36      -0.0042
     18  CE1        2.9380   52.3580   49.8140 C.ar   36  PHE36      -0.0003
     19  CE2        3.8680   50.4790   51.0010 C.ar   36  PHE36      -0.0003
     20  CZ         2.7610   51.1780   50.5390 C.ar   36  PHE36      -0.0000
     21  N          6.2530   54.7160   52.4600 N.am   37  ASN37      -0.1974
     22  CA         6.2170   54.7230   53.9160 C.3    37  ASN37       0.1688
     23  C          5.9090   53.3120   54.4670 C.2    37  ASN37       0.2292
     24  O          4.7430   52.8620   54.5110 O.2    37  ASN37      -0.2864
     25  CB         5.1790   55.7440   54.4060 C.3    37  ASN37       0.1181
     26  CG         5.3640   56.1130   55.8750 C.2    37  ASN37       0.2629
     27  OD1        5.0620   55.3180   56.7830 O.2    37  ASN37      -0.2716
     28  ND2        5.8750   57.3270   56.1150 N.am   37  ASN37      -0.0877
     29  N          2.9640   53.4020   57.8850 N.3    40  ILE40      -0.1231
     30  CA         1.5140   53.5440   57.8130 C.3    40  ILE40       0.1692
     31  C          1.0540   52.1740   57.3600 C.2    40  ILE40       0.2592
     32  O         -0.0820   51.7660   57.6100 O.2    40  ILE40      -0.2718
     33  CB         1.0960   54.6460   56.7910 C.3    40  ILE40       0.0266
     34  CG1       -0.4240   54.5950   56.5170 C.3    40  ILE40       0.0019
     35  CG2        1.9550   54.5350   55.5450 C.3    40  ILE40       0.0020
     36  CD1       -0.9140   53.5360   55.5110 C.3    40  ILE40       0.0001
     37  N          1.9550   51.4570   56.6960 N.am   41  PHE41      -0.1976
     38  CA         1.6150   50.1200   56.2700 C.3    41  PHE41       0.1639
     39  C          1.3680   49.2620   57.5320 C.2    41  PHE41       0.2290
     40  O          0.3430   48.5670   57.6420 O.2    41  PHE41      -0.2864
     41  CB         2.7330   49.5170   55.4270 C.3    41  PHE41       0.0560
     42  CG         2.2980   48.3080   54.6750 C.ar   41  PHE41      -0.0200
     43  CD1        1.4370   48.4320   53.5910 C.ar   41  PHE41      -0.0042
     44  CD2        2.6590   47.0300   55.1080 C.ar   41  PHE41      -0.0042
     45  CE1        0.9290   47.2930   52.9450 C.ar   41  PHE41      -0.0003
     46  CE2        2.1580   45.8750   54.4700 C.ar   41  PHE41      -0.0003
     47  CZ         1.2920   46.0070   53.3900 C.ar   41  PHE41      -0.0000
     48  N         -1.9190   49.7790   58.8270 N.3    44  LEU44      -0.1245
     49  CA        -3.0610   49.1600   58.1480 C.3    44  LEU44       0.1561
     50  C         -3.2370   47.6470   58.4130 C.2    44  LEU44       0.2260
     51  O         -4.3720   47.1690   58.5320 O.2    44  LEU44      -0.2867
     52  CB        -2.9930   49.4430   56.6390 C.3    44  LEU44       0.0270
     53  CG        -2.7810   50.9090   56.2140 C.3    44  LEU44       0.0019
     54  CD1       -3.2930   51.1380   54.7980 C.3    44  LEU44       0.0001
     55  CD2       -3.5090   51.8320   57.1690 C.3    44  LEU44       0.0001
     56  N         -4.7820   47.7090   61.6620 N.3    47  LYS47      -0.1245
     57  CA        -6.1420   48.2310   61.5130 C.3    47  LYS47       0.1561
     58  C         -6.9040   47.2570   60.6190 C.2    47  LYS47       0.2260
     59  O         -7.6380   47.6610   59.6990 O.2    47  LYS47      -0.2867
     60  CB        -6.1200   49.6170   60.8590 C.3    47  LYS47       0.0271
     61  CG        -7.4670   50.3140   60.8320 C.3    47  LYS47       0.0035
     62  CD        -7.3910   51.6220   60.0600 C.3    47  LYS47       0.0206
     63  CE        -8.7090   52.4030   60.1110 C.3    47  LYS47       0.1093
     64  NZ        -9.8690   51.7030   59.4620 N.3    47  LYS47      -0.1314
     65  N          3.0810   47.9520   47.7780 N.3    94  VAL94      -0.1231
     66  CA         3.2760   49.3760   47.5170 C.3    94  VAL94       0.1692
     67  C          2.2930   50.0240   46.5250 C.2    94  VAL94       0.2592
     68  O          2.1580   51.2560   46.4840 O.2    94  VAL94      -0.2718
     69  CB         4.7160   49.6190   46.9930 C.3    94  VAL94       0.0266
     70  CG1        4.9710   51.1070   46.8040 C.3    94  VAL94       0.0020
     71  CG2        5.7280   49.0100   47.9440 C.3    94  VAL94       0.0020
     72  N          1.6040   49.2140   45.7250 N.am   95  THR95      -0.1953
     73  CA         0.6990   49.7840   44.7280 C.3    95  THR95       0.1897
     74  C         -0.7450   49.3010   44.7560 C.2    95  THR95       0.2313
     75  O         -1.6150   49.9710   44.1960 O.2    95  THR95      -0.2863
     76  CB         1.2210   49.5640   43.2720 C.3    95  THR95       0.1794
     77  OG1        0.7870   48.2890   42.7980 O.3    95  THR95      -0.2208
     78  CG2        2.7400   49.6180   43.2200 C.3    95  THR95       0.0378
     79  N         -2.3300   47.1120   47.8140 N.3    97  TYR97      -0.1227
     80  CA        -2.9380   46.9080   49.1400 C.3    97  TYR97       0.1736
     81  C         -4.0470   47.9270   49.4520 C.2    97  TYR97       0.2596
     82  O         -5.1330   47.5450   49.8920 O.2    97  TYR97      -0.2718
     83  CB        -1.8910   46.9630   50.2610 C.3    97  TYR97       0.0548
     84  CG        -2.4690   46.5800   51.6210 C.ar   97  TYR97      -0.0200
     85  CD1       -3.0500   45.3190   51.8270 C.ar   97  TYR97      -0.0009
     86  CD2       -2.4460   47.4750   52.6970 C.ar   97  TYR97      -0.0009
     87  CE1       -3.5960   44.9580   53.0730 C.ar   97  TYR97       0.0417
     88  CE2       -2.9890   47.1200   53.9500 C.ar   97  TYR97       0.0417
     89  CZ        -3.5620   45.8590   54.1250 C.ar   97  TYR97       0.1957
     90  OH        -4.1060   45.4940   55.3380 O.3    97  TYR97      -0.2866
     91  N         -3.7710   49.2120   49.2340 N.am   98  THR98      -0.1939
     92  CA        -4.7750   50.2500   49.4670 C.3    98  THR98       0.2028
     93  C         -6.0910   49.9270   48.7350 C.2    98  THR98       0.2642
     94  O         -7.1160   49.6550   49.3610 O.2    98  THR98      -0.2714
     95  CB        -4.2660   51.6450   48.9820 C.3    98  THR98       0.1808
     96  OG1       -3.5650   52.3000   50.0490 O.3    98  THR98      -0.2208
     97  CG2       -5.4300   52.5230   48.5070 C.3    98  THR98       0.0379
     98  N         -6.0400   49.9440   47.4060 N.am   99  ASP99      -0.1971
     99  CA        -7.2130   49.6980   46.5810 C.3    99  ASP99       0.1709
    100  C         -7.7460   48.3020   46.6980 C.2    99  ASP99       0.2293
    101  O         -8.8780   48.0570   46.2990 O.2    99  ASP99      -0.2864
    102  CB        -6.8990   49.9700   45.1090 C.3    99  ASP99       0.1436
    103  CG        -6.3020   51.3520   44.8900 C.2    99  ASP99       0.3671
    104  OD1       -6.9460   52.3360   45.3660 O.co2  99  ASP99      -0.2456
    105  OD2       -5.2060   51.4510   44.2510 O.co2  99  ASP99      -0.2456
    106  N         -6.8930   47.5700   51.6420 N.3   102  GLY102     -0.1210
    107  CA        -6.9450   48.7830   52.4380 C.3   102  GLY102      0.1956
    108  C         -8.3870   49.2340   52.6010 C.2   102  GLY102      0.2611
    109  O         -8.8880   49.3420   53.7220 O.2   102  GLY102     -0.2717
    110  N         -9.0540   49.4820   51.4740 N.am  103  VAL103     -0.1979
    111  CA       -10.4470   49.9170   51.4550 C.3   103  VAL103      0.1595
    112  C        -11.2810   49.1820   52.5260 C.2   103  VAL103      0.2287
    113  O        -12.2390   49.7380   53.0670 O.2   103  VAL103     -0.2864
    114  CB       -11.0960   49.6670   50.0400 C.3   103  VAL103      0.0276
    115  CG1      -12.4790   50.3110   49.9710 C.3   103  VAL103      0.0022
    116  CG2      -10.2150   50.2320   48.9320 C.3   103  VAL103      0.0022
    117  N        -11.4030   48.9240   55.4090 N.3   105  THR105     -0.1203
    118  CA       -11.5910   49.6400   56.6640 C.3   105  THR105      0.1994
    119  C        -11.8330   51.1120   56.2930 C.2   105  THR105      0.2617
    120  O        -10.9250   51.9480   56.3330 O.2   105  THR105     -0.2717
    121  CB       -10.3630   49.4540   57.6220 C.3   105  THR105      0.1784
    122  OG1       -9.1430   49.7540   56.9360 O.3   105  THR105     -0.2211
    123  CG2      -10.2870   48.0180   58.1100 C.3   105  THR105      0.0376
    124  N        -13.0770   51.3850   55.8910 N.am  106  ILE106     -0.1979
    125  CA       -13.5480   52.7140   55.4920 C.3   106  ILE106      0.1595
    126  C        -15.0840   52.7230   55.4560 C.2   106  ILE106      0.2287
    127  O        -15.7340   53.4800   56.1740 O.2   106  ILE106     -0.2864
    128  CB       -12.9970   53.1230   54.0780 C.3   106  ILE106      0.0276
    129  CG1      -11.5580   53.6480   54.2060 C.3   106  ILE106      0.0022
    130  CG2      -13.9320   54.1510   53.4040 C.3   106  ILE106      0.0022
    131  CD1      -10.9870   54.2500   52.9330 C.3   106  ILE106      0.0001
@<TRIPOS>BOND
     1     9     8    1
     2     7     8    1
     3     7     6    1
     4    77    76    1
     5    78    76    1
     6    76    73    1
     7     5     6    1
     8     5     2    1
     9    75    74    2
    10     1     2    1
    11   105   103   ar
    12     2     3    1
    13    73    74    1
    14    73    72    1
    15   103   102    1
    16   103   104   ar
    17   102    99    1
    18    72    67   am
    19     3     4    2
    20   101   100    2
    21    68    67    2
    22    67    66    1
    23    99   100    1
    24    99    98    1
    25    70    69    1
    26    69    66    1
    27    69    71    1
    28    98    93   am
    29    66    65    1
    30    79    80    1
    31    97    95    1
    32    93    94    2
    33    93    92    1
    34   116   114    1
    35    95    92    1
    36    95    96    1
    37    80    81    1
    38    80    83    1
    39    91    81   am
    40    91    92    1
    41    81    82    2
    42    16    18   ar
    43    16    15   ar
    44    14    15    1
    45    14    11    1
    46    10    11    1
    47    18    20   ar
    48   115   114    1
    49    15    17   ar
    50   114   111    1
    51    83    84    1
    52    11    12    1
    53    20    19   ar
    54    17    19   ar
    55   111   110    1
    56   111   112    1
    57   110   108   am
    58    84    85   ar
    59    84    86   ar
    60   106   107    1
    61    12    13    2
    62    12    21   am
    63    85    87   ar
    64   107   108    1
    65    21    22    1
    66   112   113    2
    67   108   109    2
    68    86    88   ar
    69   131   129    1
    70    45    47   ar
    71    45    43   ar
    72    87    89   ar
    73    47    46   ar
    74   130   128    1
    75    43    42   ar
    76    22    25    1
    77    22    23    1
    78    88    89   ar
    79   128   129    1
    80   128   125    1
    81    89    90    1
    82    25    26    1
    83    23    24    2
    84    46    44   ar
    85    42    44   ar
    86    42    41    1
    87    54    53    1
    88   117   118    1
    89    41    38    1
    90   126   125    1
    91   126   127    2
    92   125   124    1
    93    36    34    1
    94    35    33    1
    95    26    28   am
    96    26    27    2
    97   124   119   am
    98    53    52    1
    99    53    55    1
   100    38    37    1
   101    38    39    1
   102   119   120    2
   103   119   118    1
   104    34    33    1
   105    52    49    1
   106   118   121    1
   107    37    31   am
   108    33    30    1
   109   122   121    1
   110    31    32    2
   111    31    30    1
   112    39    40    2
   113   121   123    1
   114    30    29    1
   115    49    50    1
   116    49    48    1
   117    50    51    2
   118    64    63    1
   119    59    58    2
   120    62    63    1
   121    62    61    1
   122    58    57    1
   123    61    60    1
   124    60    57    1
   125    57    56    1
