@<TRIPOS>MOLECULE
tmp/3ercC01.pdb
 138 132 0 0 0
SMALL
GASTEIGER

@<TRIPOS>ATOM
      1  N        -11.8110   52.6050  -44.1060 N.3    32  LYS32      -0.1245
      2  CA       -10.5190   52.7680  -44.7390 C.3    32  LYS32       0.1561
      3  C        -10.4210   51.8690  -45.9670 C.2    32  LYS32       0.2260
      4  O        -10.1490   52.3550  -47.0640 O.2    32  LYS32      -0.2867
      5  CB        -9.3980   52.4300  -43.7520 C.3    32  LYS32       0.0271
      6  CG        -9.2240   53.4300  -42.6110 C.3    32  LYS32       0.0035
      7  CD        -8.0380   53.0320  -41.7580 C.3    32  LYS32       0.0206
      8  CE        -6.7750   52.8690  -42.6070 C.3    32  LYS32       0.1093
      9  NZ        -5.6480   52.1980  -41.8820 N.3    32  LYS32      -0.1314
     10  N        -12.3870   53.8690  -48.8960 N.3    35  VAL35      -0.1231
     11  CA       -11.7740   55.1060  -49.3950 C.3    35  VAL35       0.1692
     12  C        -10.2610   54.9250  -49.5140 C.2    35  VAL35       0.2592
     13  O         -9.4580   55.7640  -49.0930 O.2    35  VAL35      -0.2718
     14  CB       -12.0860   56.3250  -48.4910 C.3    35  VAL35       0.0266
     15  CG1      -12.1220   57.6000  -49.3430 C.3    35  VAL35       0.0020
     16  CG2      -13.4140   56.1240  -47.7750 C.3    35  VAL35       0.0020
     17  N         -9.9110   53.7920  -50.1060 N.am   36  PHE36      -0.1962
     18  CA        -8.5510   53.3670  -50.3580 C.3    36  PHE36       0.1771
     19  C         -8.5240   53.1110  -51.8580 C.2    36  PHE36       0.2619
     20  O         -9.2890   52.2880  -52.3670 O.2    36  PHE36      -0.2715
     21  CB        -8.2870   52.0720  -49.5980 C.3    36  PHE36       0.0574
     22  CG        -7.0760   51.3220  -50.0680 C.ar   36  PHE36      -0.0200
     23  CD1       -5.7910   51.7890  -49.7900 C.ar   36  PHE36      -0.0042
     24  CD2       -7.2200   50.1300  -50.7730 C.ar   36  PHE36      -0.0042
     25  CE1       -4.6660   51.0720  -50.2060 C.ar   36  PHE36      -0.0003
     26  CE2       -6.1050   49.4100  -51.1910 C.ar   36  PHE36      -0.0003
     27  CZ        -4.8260   49.8820  -50.9060 C.ar   36  PHE36      -0.0000
     28  N         -7.6520   53.8150  -52.5670 N.am   37  ASN37      -0.1972
     29  CA        -7.5740   53.6520  -54.0140 C.3    37  ASN37       0.1688
     30  C         -7.2150   52.2290  -54.4180 C.2    37  ASN37       0.2292
     31  O         -6.1500   51.7040  -54.0680 O.2    37  ASN37      -0.2864
     32  CB        -6.5610   54.6380  -54.6180 C.3    37  ASN37       0.1181
     33  CG        -6.6640   54.7350  -56.1350 C.2    37  ASN37       0.2629
     34  OD1       -6.4740   53.7490  -56.8460 O.2    37  ASN37      -0.2716
     35  ND2       -6.9630   55.9330  -56.6330 N.am   37  ASN37      -0.0877
     36  N         -4.3530   52.2520  -57.9120 N.3    40  ILE40      -0.1231
     37  CA        -2.9550   52.2770  -57.5250 C.3    40  ILE40       0.1692
     38  C         -2.5220   50.8680  -57.1550 C.2    40  ILE40       0.2592
     39  O         -1.4220   50.4350  -57.4860 O.2    40  ILE40      -0.2718
     40  CB        -2.7350   53.2310  -56.3340 C.3    40  ILE40       0.0266
     41  CG1       -3.2810   54.6170  -56.6890 C.3    40  ILE40       0.0019
     42  CG2       -1.2450   53.3020  -55.9860 C.3    40  ILE40       0.0020
     43  CD1       -3.2300   55.6230  -55.5640 C.3    40  ILE40       0.0001
     44  N         -3.4000   50.1370  -56.4850 N.am   41  PHE41      -0.1976
     45  CA        -3.0540   48.7810  -56.1120 C.3    41  PHE41       0.1639
     46  C         -2.9380   47.9690  -57.3810 C.2    41  PHE41       0.2290
     47  O         -1.8990   47.3690  -57.6610 O.2    41  PHE41      -0.2864
     48  CB        -4.1270   48.1660  -55.2200 C.3    41  PHE41       0.0560
     49  CG        -3.6860   46.8980  -54.5380 C.ar   41  PHE41      -0.0200
     50  CD1       -3.0290   45.9000  -55.2470 C.ar   41  PHE41      -0.0042
     51  CD2       -3.9200   46.7070  -53.1830 C.ar   41  PHE41      -0.0042
     52  CE1       -2.6120   44.7370  -54.6120 C.ar   41  PHE41      -0.0003
     53  CE2       -3.5020   45.5420  -52.5430 C.ar   41  PHE41      -0.0003
     54  CZ        -2.8480   44.5590  -53.2610 C.ar   41  PHE41      -0.0000
     55  N          0.1920   48.3610  -58.8990 N.3    44  LEU44      -0.1245
     56  CA         1.3870   47.9990  -58.1310 C.3    44  LEU44       0.1561
     57  C          1.7000   46.5110  -58.2500 C.2    44  LEU44       0.2260
     58  O          2.8660   46.1230  -58.2980 O.2    44  LEU44      -0.2867
     59  CB         1.2480   48.4220  -56.6570 C.3    44  LEU44       0.0270
     60  CG         1.3430   49.9410  -56.3970 C.3    44  LEU44       0.0019
     61  CD1        1.2280   50.2460  -54.9230 C.3    44  LEU44       0.0001
     62  CD2        2.6640   50.4700  -56.9090 C.3    44  LEU44       0.0001
     63  N          3.1600   46.4690  -61.6060 N.3    47  LYS47      -0.1245
     64  CA         4.5310   46.9690  -61.5520 C.3    47  LYS47       0.1561
     65  C          5.4620   45.9100  -60.9940 C.2    47  LYS47       0.2260
     66  O          6.6590   45.9040  -61.2820 O.2    47  LYS47      -0.2867
     67  CB         4.6120   48.2300  -60.6940 C.3    47  LYS47       0.0271
     68  CG         6.0120   48.7820  -60.5820 C.3    47  LYS47       0.0035
     69  CD         6.0070   50.2250  -60.1170 C.3    47  LYS47       0.0206
     70  CE         7.4250   50.8180  -60.1250 C.3    47  LYS47       0.1093
     71  NZ         7.4780   52.3150  -59.9150 N.3    47  LYS47      -0.1314
     72  N         -4.3320   46.5870  -47.5660 N.3    94  VAL94      -0.1231
     73  CA        -4.4850   48.0230  -47.3220 C.3    94  VAL94       0.1692
     74  C         -3.4260   48.7890  -46.5190 C.2    94  VAL94       0.2592
     75  O         -3.0860   49.9320  -46.8600 O.2    94  VAL94      -0.2718
     76  CB        -5.8440   48.3160  -46.6660 C.3    94  VAL94       0.0266
     77  CG1       -5.9680   49.8020  -46.3790 C.3    94  VAL94       0.0020
     78  CG2       -6.9710   47.8620  -47.5760 C.3    94  VAL94       0.0020
     79  N         -2.9160   48.1910  -45.4500 N.am   95  THR95      -0.1953
     80  CA        -1.9300   48.8860  -44.6290 C.3    95  THR95       0.1897
     81  C         -0.4990   48.4430  -44.8730 C.2    95  THR95       0.2313
     82  O          0.4220   49.2630  -44.8080 O.2    95  THR95      -0.2863
     83  CB        -2.2290   48.7200  -43.1210 C.3    95  THR95       0.1794
     84  OG1       -2.4260   47.3360  -42.8290 O.3    95  THR95      -0.2208
     85  CG2       -3.4700   49.4990  -42.7220 C.3    95  THR95       0.0378
     86  N          0.6700   46.1530  -47.7340 N.3    97  TYR97      -0.1227
     87  CA         1.1610   45.9110  -49.0820 C.3    97  TYR97       0.1736
     88  C          2.1650   46.9610  -49.5140 C.2    97  TYR97       0.2596
     89  O          3.2380   46.6230  -50.0150 O.2    97  TYR97      -0.2718
     90  CB         0.0470   45.8550  -50.1160 C.3    97  TYR97       0.0548
     91  CG         0.6390   45.5510  -51.4630 C.ar   97  TYR97      -0.0200
     92  CD1        1.3470   44.3770  -51.6670 C.ar   97  TYR97      -0.0009
     93  CD2        0.5710   46.4680  -52.5070 C.ar   97  TYR97      -0.0009
     94  CE1        1.9760   44.1240  -52.8670 C.ar   97  TYR97       0.0417
     95  CE2        1.2000   46.2210  -53.7190 C.ar   97  TYR97       0.0417
     96  CZ         1.9010   45.0460  -53.8900 C.ar   97  TYR97       0.1957
     97  OH         2.5280   44.7850  -55.0850 O.3    97  TYR97      -0.2866
     98  N          1.8200   48.2320  -49.3260 N.am   98  THR98      -0.1939
     99  CA         2.7280   49.3100  -49.6920 C.3    98  THR98       0.2028
    100  C          4.0450   49.1500  -48.9320 C.2    98  THR98       0.2642
    101  O          5.0850   48.8450  -49.5270 O.2    98  THR98      -0.2714
    102  CB         2.1460   50.7010  -49.3450 C.3    98  THR98       0.1808
    103  OG1        1.1180   51.0460  -50.2770 O.3    98  THR98      -0.2208
    104  CG2        3.2310   51.7550  -49.4010 C.3    98  THR98       0.0379
    105  N          3.9770   49.3350  -47.6130 N.am   99  ASP99      -0.1971
    106  CA         5.1440   49.2640  -46.7270 C.3    99  ASP99       0.1709
    107  C          5.9840   47.9900  -46.8240 C.2    99  ASP99       0.2293
    108  O          7.2110   48.0510  -46.9180 O.2    99  ASP99      -0.2864
    109  CB         4.7190   49.4420  -45.2560 C.3    99  ASP99       0.1436
    110  CG         3.7560   50.6150  -45.0410 C.2    99  ASP99       0.3671
    111  OD1        3.5300   50.9970  -43.8640 O.co2  99  ASP99      -0.2456
    112  OD2        3.2160   51.1410  -46.0400 O.co2  99  ASP99      -0.2456
    113  N          5.0880   46.4140  -51.8640 N.3   102  GLY102     -0.1210
    114  CA         5.2070   47.4420  -52.8820 C.3   102  GLY102      0.1956
    115  C          6.5900   48.0560  -52.9140 C.2   102  GLY102      0.2611
    116  O          7.2070   48.1700  -53.9710 O.2   102  GLY102     -0.2717
    117  N          7.0800   48.4440  -51.7440 N.am  103  VAL103     -0.1979
    118  CA         8.3950   49.0430  -51.6290 C.3   103  VAL103      0.1595
    119  C          9.4070   48.3780  -52.5400 C.2   103  VAL103      0.2287
    120  O         10.2180   49.0580  -53.1660 O.2   103  VAL103     -0.2864
    121  CB         8.9120   48.9630  -50.1870 C.3   103  VAL103      0.0276
    122  CG1       10.4150   49.1730  -50.1560 C.3   103  VAL103      0.0022
    123  CG2        8.2260   50.0220  -49.3370 C.3   103  VAL103      0.0022
    124  N          9.4990   47.2140  -55.5310 N.3   105  THR105     -0.1203
    125  CA         9.5760   47.9080  -56.8060 C.3   105  THR105      0.1994
    126  C          9.9050   49.4030  -56.6940 C.2   105  THR105      0.2617
    127  O          9.1090   50.2470  -57.1070 O.2   105  THR105     -0.2717
    128  CB         8.2600   47.7330  -57.5950 C.3   105  THR105      0.1784
    129  OG1        7.1730   48.2980  -56.8550 O.3   105  THR105     -0.2211
    130  CG2        7.9860   46.2520  -57.8360 C.3   105  THR105      0.0376
    131  N         11.0810   49.7070  -56.1320 N.am  106  ILE106     -0.1979
    132  CA        11.5980   51.0740  -55.9670 C.3   106  ILE106      0.1595
    133  C         13.0790   50.9900  -55.5690 C.2   106  ILE106      0.2287
    134  O         13.8410   51.9530  -55.6970 O.2   106  ILE106     -0.2864
    135  CB        10.8530   51.8750  -54.8650 C.3   106  ILE106      0.0276
    136  CG1        9.3560   51.9750  -55.1780 C.3   106  ILE106      0.0022
    137  CG2       11.4440   53.2780  -54.7730 C.3   106  ILE106      0.0022
    138  CD1        8.5300   52.7050  -54.1220 C.3   106  ILE106      0.0001
@<TRIPOS>BOND
     1    63    64    1
     2    64    65    1
     3    64    67    1
     4    66    65    2
     5    67    68    1
     6    68    69    1
     7    70    69    1
     8    70    71    1
     9    55    56    1
    10    58    57    2
    11    57    56    1
    12    56    59    1
    13    36    37    1
    14   130   128    1
    15    47    46    2
    16   128   129    1
    17   128   125    1
    18    37    38    1
    19    37    40    1
    20    39    38    2
    21    46    45    1
    22    38    44   am
    23   127   126    2
    24    62    60    1
    25    34    33    2
    26   125   126    1
    27   125   124    1
    28   126   131   am
    29    41    40    1
    30    41    43    1
    31    59    60    1
    32    35    33   am
    33    44    45    1
    34    60    61    1
    35    40    42    1
    36    33    32    1
    37   131   132    1
    38    45    48    1
    39   132   133    1
    40   132   135    1
    41   134   133    2
    42    50    52   ar
    43    50    49   ar
    44    48    49    1
    45   136   135    1
    46   136   138    1
    47    97    96    1
    48   135   137    1
    49    32    29    1
    50    52    54   ar
    51    49    51   ar
    52    30    31    2
    53    30    29    1
    54    29    28    1
    55   116   115    2
    56    96    95   ar
    57    96    94   ar
    58    95    93   ar
    59    54    53   ar
    60    51    53   ar
    61   120   119    2
    62   115   114    1
    63   115   117   am
    64   114   113    1
    65    94    92   ar
    66    28    19   am
    67   119   118    1
    68    93    91   ar
    69    20    19    2
    70    19    18    1
    71   117   118    1
    72    92    91   ar
    73   118   121    1
    74    91    90    1
    75    26    27   ar
    76    26    24   ar
    77    27    25   ar
    78    24    22   ar
    79    18    17    1
    80    18    21    1
    81   103   102    1
    82    25    23   ar
    83   121   122    1
    84   121   123    1
    85    90    87    1
    86    17    12   am
    87    22    23   ar
    88    22    21    1
    89    89    88    2
    90    99   102    1
    91    99    98    1
    92    99   100    1
    93   101   100    2
    94    12    11    1
    95    12    13    2
    96    88    98   am
    97    88    87    1
    98   104   102    1
    99    11    10    1
   100    11    14    1
   101    15    14    1
   102    87    86    1
   103   100   105   am
   104    14    16    1
   105   105   106    1
   106    78    76    1
   107    72    73    1
   108    73    76    1
   109    73    74    1
   110     4     3    2
   111   108   107    2
   112    75    74    2
   113   107   106    1
   114   106   109    1
   115    76    77    1
   116    74    79   am
   117   112   110   ar
   118     3     2    1
   119    79    80    1
   120   109   110    1
   121   110   111   ar
   122    81    82    2
   123    81    80    1
   124     2     1    1
   125     2     5    1
   126    80    83    1
   127     5     6    1
   128    83    84    1
   129    83    85    1
   130     6     7    1
   131     8     9    1
   132     8     7    1
