@<TRIPOS>MOLECULE
tmp/3ercC03.pdb
 195 182 0 0 0
SMALL
GASTEIGER

@<TRIPOS>ATOM
      1  N         18.8730   33.0030  -43.2600 N.3   152  TYR152     -0.1227
      2  CA        19.8240   31.9400  -42.9790 C.3   152  TYR152      0.1736
      3  C         19.5920   30.7530  -43.9050 C.2   152  TYR152      0.2596
      4  O         19.1350   30.8980  -45.0430 O.2   152  TYR152     -0.2718
      5  CB        19.7320   31.4760  -41.5200 C.3   152  TYR152      0.0548
      6  CG        18.4800   30.7120  -41.1430 C.ar  152  TYR152     -0.0200
      7  CD1       18.4680   29.8900  -40.0220 C.ar  152  TYR152     -0.0009
      8  CD2       17.2990   30.8220  -41.8860 C.ar  152  TYR152     -0.0009
      9  CE1       17.3100   29.1880  -39.6440 C.ar  152  TYR152      0.0417
     10  CE2       16.1280   30.1270  -41.5150 C.ar  152  TYR152      0.0417
     11  CZ        16.1430   29.3110  -40.3960 C.ar  152  TYR152      0.1957
     12  OH        15.0130   28.5970  -40.0340 O.3   152  TYR152     -0.2866
     13  N         19.9130   29.5700  -43.4000 N.am  153  GLY153     -0.1942
     14  CA        19.7390   28.3670  -44.1830 C.3   153  GLY153      0.2014
     15  C         20.6400   28.3590  -45.3940 C.2   153  GLY153      0.2639
     16  O         21.5740   29.1520  -45.5040 O.2   153  GLY153     -0.2714
     17  N         20.3390   27.4460  -46.3070 N.am  154  SER154     -0.1949
     18  CA        21.0900   27.2640  -47.5430 C.3   154  SER154      0.1924
     19  C         21.4930   28.5660  -48.2440 C.2   154  SER154      0.2314
     20  O         22.6850   28.8200  -48.4660 O.2   154  SER154     -0.2863
     21  CB        20.2730   26.3860  -48.4930 C.3   154  SER154      0.2116
     22  OG        18.9120   26.7850  -48.4870 O.3   154  SER154     -0.2180
     23  N         24.7190   31.0420  -47.0160 N.3   157  LEU157     -0.1245
     24  CA        26.0860   30.6020  -47.2850 C.3   157  LEU157      0.1561
     25  C         26.5340   30.8940  -48.7260 C.2   157  LEU157      0.2260
     26  O         27.7170   31.1360  -48.9830 O.2   157  LEU157     -0.2867
     27  CB        26.2210   29.1090  -46.9750 C.3   157  LEU157      0.0270
     28  CG        25.7370   28.6800  -45.5840 C.3   157  LEU157      0.0019
     29  CD1       26.2590   27.2820  -45.2930 C.3   157  LEU157      0.0001
     30  CD2       26.2220   29.6540  -44.5210 C.3   157  LEU157      0.0001
     31  N         24.9580   25.3920  -53.5640 N.3   165  ARG165     -0.1231
     32  CA        23.6870   24.9540  -54.1660 C.3   165  ARG165      0.1694
     33  C         22.4790   24.9140  -53.2020 C.2   165  ARG165      0.2592
     34  O         22.2160   23.9110  -52.5130 O.2   165  ARG165     -0.2718
     35  CB        23.8690   23.5840  -54.8610 C.3   165  ARG165      0.0321
     36  CG        23.9760   22.3570  -53.9420 C.3   165  ARG165      0.0489
     37  CD        23.9220   21.0580  -54.7640 C.3   165  ARG165      0.2205
     38  NE        23.1130   19.9980  -54.1420 N.pl3 165  ARG165     -0.0865
     39  CZ        23.5350   19.1490  -53.2010 C.cat 165  ARG165      0.5346
     40  NH1       24.7810   19.2030  -52.7370 N.pl3 165  ARG165      0.1354
     41  NH2       22.7000   18.2310  -52.7260 N.pl3 165  ARG165      0.1354
     42  N         21.7340   26.0180  -53.1850 N.am  166  TYR166     -0.1962
     43  CA        20.5710   26.1570  -52.3150 C.3   166  TYR166      0.1771
     44  C         19.2460   25.9900  -53.0470 C.2   166  TYR166      0.2620
     45  O         19.1980   25.9360  -54.2790 O.2   166  TYR166     -0.2715
     46  CB        20.6000   27.5320  -51.6250 C.3   166  TYR166      0.0574
     47  CG        20.0450   28.6780  -52.4460 C.ar  166  TYR166     -0.0198
     48  CD1       18.6680   28.9240  -52.5000 C.ar  166  TYR166     -0.0009
     49  CD2       20.8960   29.5270  -53.1560 C.ar  166  TYR166     -0.0009
     50  CE1       18.1480   29.9920  -53.2380 C.ar  166  TYR166      0.0417
     51  CE2       20.3890   30.6030  -53.9030 C.ar  166  TYR166      0.0417
     52  CZ        19.0130   30.8330  -53.9380 C.ar  166  TYR166      0.1957
     53  OH        18.5180   31.9220  -54.6380 O.3   166  TYR166     -0.2866
     54  N         18.1740   25.9220  -52.2630 N.am  167  GLY167     -0.1940
     55  CA        16.8340   25.7800  -52.8090 C.3   167  GLY167      0.2014
     56  C         15.8580   26.8020  -52.2340 C.2   167  GLY167      0.2638
     57  O         15.0840   27.4220  -52.9760 O.2   167  GLY167     -0.2714
     58  N         15.8950   26.9870  -50.9120 N.am  168  ASP168     -0.1971
     59  CA        15.0000   27.9320  -50.2610 C.3   168  ASP168      0.1709
     60  C         15.6900   29.0590  -49.5210 C.2   168  ASP168      0.2293
     61  O         16.6380   28.8420  -48.7610 O.2   168  ASP168     -0.2864
     62  CB        14.0500   27.2040  -49.2930 C.3   168  ASP168      0.1436
     63  CG        14.7710   26.5270  -48.1340 C.2   168  ASP168      0.3671
     64  OD1       14.0700   26.0940  -47.1900 O.co2 168  ASP168     -0.2456
     65  OD2       16.0170   26.4190  -48.1580 O.co2 168  ASP168     -0.2456
     66  N         15.7240   30.9690  -46.6760 N.3   170  ASP170     -0.1239
     67  CA        15.1150   30.8240  -45.3470 C.3   170  ASP170      0.1674
     68  C         15.2030   32.0960  -44.5010 C.2   170  ASP170      0.2266
     69  O         16.2350   32.7640  -44.4720 O.2   170  ASP170     -0.2867
     70  CB        15.7800   29.6680  -44.6140 C.3   170  ASP170      0.1410
     71  CG        15.8030   28.4150  -45.4380 C.2   170  ASP170      0.3668
     72  OD1       14.7170   27.8200  -45.6480 O.co2 170  ASP170     -0.2456
     73  OD2       16.9100   28.0420  -45.8850 O.co2 170  ASP170     -0.2456
     74  N         24.9600   29.7580  -37.1820 N.3   247  GLN247     -0.1245
     75  CA        24.4060   28.8490  -38.1800 C.3   247  GLN247      0.1566
     76  C         25.1200   27.5010  -38.2310 C.2   247  GLN247      0.2260
     77  O         24.5440   26.5120  -38.6840 O.2   247  GLN247     -0.2867
     78  CB        24.4580   29.4860  -39.5710 C.3   247  GLN247      0.0367
     79  CG        23.5710   30.6920  -39.7490 C.3   247  GLN247      0.0905
     80  CD        23.1880   30.8970  -41.1980 C.2   247  GLN247      0.2608
     81  OE1       22.5910   30.0140  -41.8110 O.2   247  GLN247     -0.2717
     82  NE2       23.5260   32.0570  -41.7560 N.am  247  GLN247     -0.0878
     83  N         23.9270   25.1700  -35.0440 N.3   250  ASN250     -0.1225
     84  CA        22.6970   24.4290  -35.2940 C.3   250  ASN250      0.1785
     85  C         23.0850   23.2700  -36.1950 C.2   250  ASN250      0.2597
     86  O         22.5390   22.1710  -36.0930 O.2   250  ASN250     -0.2718
     87  CB        21.6590   25.3140  -35.9980 C.3   250  ASN250      0.1169
     88  CG        21.0220   26.3370  -35.0600 C.2   250  ASN250      0.2627
     89  OD1       20.2300   25.9870  -34.1740 O.2   250  ASN250     -0.2716
     90  ND2       21.3690   27.6070  -35.2500 N.am  250  ASN250     -0.0877
     91  N         24.0480   23.5380  -37.0740 N.am  251  MET251     -0.1979
     92  CA        24.5640   22.5460  -38.0090 C.3   251  MET251      0.1605
     93  C         24.8500   21.2940  -37.2040 C.2   251  MET251      0.2287
     94  O         24.4680   20.1850  -37.5590 O.2   251  MET251     -0.2864
     95  CB        25.8640   23.0610  -38.6290 C.3   251  MET251      0.0413
     96  CG        26.3350   22.2790  -39.8240 C.3   251  MET251      0.0598
     97  SD        24.9960   22.2010  -40.9930 S.3   251  MET251     -0.1393
     98  CE        24.3680   23.9760  -40.9840 C.3   251  MET251      0.0692
     99  N         23.7900   20.8450  -34.0780 N.3   253  LYS253     -0.1231
    100  CA        22.6120   20.4350  -33.3380 C.3   253  LYS253      0.1693
    101  C         21.6430   19.6590  -34.2270 C.2   253  LYS253      0.2591
    102  O         20.8670   18.8330  -33.7520 O.2   253  LYS253     -0.2718
    103  CB        21.9160   21.6530  -32.7360 C.3   253  LYS253      0.0285
    104  CG        21.2490   21.3420  -31.4100 C.3   253  LYS253      0.0035
    105  CD        20.4110   22.5040  -30.8590 C.3   253  LYS253      0.0206
    106  CE        18.9330   22.4280  -31.2880 C.3   253  LYS253      0.1093
    107  NZ        18.0050   23.1520  -30.3430 N.3   253  LYS253     -0.1314
    108  N         21.7000   19.9310  -35.5240 N.am  254  MET254     -0.1979
    109  CA        20.8310   19.2620  -36.4840 C.3   254  MET254      0.1605
    110  C         21.1800   17.7850  -36.5730 C.2   254  MET254      0.2287
    111  O         20.3060   16.9160  -36.4860 O.2   254  MET254     -0.2864
    112  CB        20.9540   19.9120  -37.8860 C.3   254  MET254      0.0413
    113  CG        20.4480   19.0330  -39.0560 C.3   254  MET254      0.0598
    114  SD        20.0770   19.8880  -40.6330 S.3   254  MET254     -0.1393
    115  CE        21.7220   20.3930  -41.1980 C.3   254  MET254      0.0692
    116  N         19.8820   14.7080  -34.8910 N.3   257  GLN257     -0.1245
    117  CA        18.5430   14.3210  -35.2780 C.3   257  GLN257      0.1566
    118  C         18.6990   13.1350  -36.2020 C.2   257  GLN257      0.2260
    119  O         18.9770   13.3160  -37.3870 O.2   257  GLN257     -0.2867
    120  CB        17.8410   15.4470  -36.0340 C.3   257  GLN257      0.0367
    121  CG        16.4150   15.0980  -36.4050 C.3   257  GLN257      0.0905
    122  CD        15.6990   14.3960  -35.2590 C.2   257  GLN257      0.2608
    123  OE1       15.6290   14.9160  -34.1440 O.2   257  GLN257     -0.2717
    124  NE2       15.1760   13.2020  -35.5260 N.am  257  GLN257     -0.0878
    125  N         17.7600   13.2940  -39.5940 N.3   260  ARG260     -0.1245
    126  CA        18.6850   14.0480  -40.4330 C.3   260  ARG260      0.1563
    127  C         19.9840   13.2910  -40.7380 C.2   260  ARG260      0.2260
    128  O         20.8270   13.7580  -41.5150 O.2   260  ARG260     -0.2867
    129  CB        18.9730   15.4060  -39.7770 C.3   260  ARG260      0.0307
    130  CG        17.7640   16.3520  -39.7740 C.3   260  ARG260      0.0489
    131  CD        17.2710   16.6210  -41.2060 C.3   260  ARG260      0.2205
    132  NE        16.4530   17.8330  -41.3310 N.pl3 260  ARG260     -0.0865
    133  CZ        16.1540   18.4290  -42.4910 C.cat 260  ARG260      0.5346
    134  NH1       16.6050   17.9260  -43.6390 N.pl3 260  ARG260      0.1354
    135  NH2       15.4110   19.5360  -42.5100 N.pl3 260  ARG260      0.1354
    136  N         26.0730   17.3600  -50.0410 N.3   270  LYS270     -0.1245
    137  CA        25.1690   18.4960  -49.8560 C.3   270  LYS270      0.1561
    138  C         25.6150   19.3310  -48.6750 C.2   270  LYS270      0.2260
    139  O         25.7850   20.5440  -48.7870 O.2   270  LYS270     -0.2867
    140  CB        23.7360   18.0230  -49.6050 C.3   270  LYS270      0.0271
    141  CG        22.7790   19.1320  -49.1590 C.3   270  LYS270      0.0035
    142  CD        21.4490   18.5670  -48.6400 C.3   270  LYS270      0.0206
    143  CE        20.5100   19.6710  -48.1090 C.3   270  LYS270      0.1093
    144  NZ        21.0840   20.4510  -46.9650 N.3   270  LYS270     -0.1314
    145  N         28.0480   23.4830  -47.4770 N.3   274  ARG274     -0.1245
    146  CA        27.5990   24.4300  -46.4690 C.3   274  ARG274      0.1563
    147  C         28.5850   24.2980  -45.3250 C.2   274  ARG274      0.2260
    148  O         29.1200   25.2810  -44.8160 O.2   274  ARG274     -0.2867
    149  CB        26.2000   24.0550  -45.9910 C.3   274  ARG274      0.0307
    150  CG        25.4120   23.2480  -47.0030 C.3   274  ARG274      0.0489
    151  CD        23.9100   23.3630  -46.7860 C.3   274  ARG274      0.2205
    152  NE        23.1560   22.6660  -47.8280 N.pl3 274  ARG274     -0.0865
    153  CZ        23.3750   22.8070  -49.1370 C.cat 274  ARG274      0.5346
    154  NH1       24.3330   23.6210  -49.5770 N.pl3 274  ARG274      0.1354
    155  NH2       22.6330   22.1380  -50.0190 N.pl3 274  ARG274      0.1354
    156  N         14.6250   29.9760  -32.6220 N.3   350  VAL350     -0.1245
    157  CA        16.0460   29.9440  -32.8850 C.3   350  VAL350      0.1561
    158  C         16.5950   28.7180  -32.1570 C.2   350  VAL350      0.2260
    159  O         16.7710   27.6570  -32.7480 O.2   350  VAL350     -0.2867
    160  CB        16.7260   31.2090  -32.3640 C.3   350  VAL350      0.0252
    161  CG1       18.1350   31.2780  -32.8580 C.3   350  VAL350      0.0019
    162  CG2       15.9700   32.4150  -32.8220 C.3   350  VAL350      0.0019
    163  N         15.0640   27.0210  -30.1030 N.3   352  ASN352     -0.1240
    164  CA        13.9480   26.0890  -29.9130 C.3   352  ASN352      0.1653
    165  C         13.8620   25.6740  -28.4500 C.2   352  ASN352      0.2266
    166  O         13.6980   24.4990  -28.1250 O.2   352  ASN352     -0.2867
    167  CB        14.1150   24.8370  -30.7850 C.3   352  ASN352      0.1155
    168  CG        13.6060   25.0310  -32.2140 C.2   352  ASN352      0.2627
    169  OD1       13.7270   24.1220  -33.0530 O.2   352  ASN352     -0.2716
    170  ND2       13.0320   26.2080  -32.4960 N.am  352  ASN352     -0.0877
    171  N         15.4560   20.3700  -28.6590 N.3   367  SER367     -0.1202
    172  CA        14.4420   20.1550  -29.6810 C.3   367  SER367      0.2020
    173  C         14.5640   18.8910  -30.5250 C.2   367  SER367      0.2618
    174  O         13.6470   18.5780  -31.2720 O.2   367  SER367     -0.2717
    175  CB        14.3660   21.3800  -30.6020 C.3   367  SER367      0.2103
    176  OG        15.6300   21.7150  -31.1360 O.3   367  SER367     -0.2182
    177  N         15.6660   18.1550  -30.4070 N.am  368  ASN368     -0.1974
    178  CA        15.8420   16.9440  -31.2190 C.3   368  ASN368      0.1688
    179  C         15.8480   15.6160  -30.4530 C.2   368  ASN368      0.2292
    180  O         15.6470   15.5840  -29.2350 O.2   368  ASN368     -0.2864
    181  CB        17.1350   17.0380  -32.0380 C.3   368  ASN368      0.1181
    182  CG        17.1960   18.2820  -32.8990 C.2   368  ASN368      0.2629
    183  OD1       16.2290   18.6210  -33.5790 O.2   368  ASN368     -0.2716
    184  ND2       18.3400   18.9620  -32.8860 N.am  368  ASN368     -0.0877
    185  N         11.4370   12.1160  -29.4180 N.3   426  ARG426     -0.1245
    186  CA        11.0960   13.5230  -29.1960 C.3   426  ARG426      0.1563
    187  C          9.6300   13.7510  -28.7720 C.2   426  ARG426      0.2260
    188  O          8.6930   13.2420  -29.3940 O.2   426  ARG426     -0.2867
    189  CB        11.4050   14.3390  -30.4610 C.3   426  ARG426      0.0307
    190  CG        10.9630   13.6720  -31.7600 C.3   426  ARG426      0.0489
    191  CD        10.8020   14.6900  -32.8690 C.3   426  ARG426      0.2205
    192  NE        11.9440   15.5980  -32.9400 N.pl3 426  ARG426     -0.0865
    193  CZ        12.1040   16.5330  -33.8770 C.cat 426  ARG426      0.5346
    194  NH1       11.1910   16.6860  -34.8300 N.pl3 426  ARG426      0.1354
    195  NH2       13.1800   17.3130  -33.8710 N.pl3 426  ARG426      0.1354
@<TRIPOS>BOND
     1    35    32    1
     2    35    36    1
     3    37    38    1
     4    37    36    1
     5    53    52    1
     6    45    44    2
     7    32    31    1
     8    32    33    1
     9    38    39    2
    10    52    51   ar
    11    52    50   ar
    12    51    49   ar
    13    50    48   ar
    14    33    42   am
    15    33    34    2
    16    39    40    1
    17    39    41    1
    18    42    43    1
    19    49    47   ar
    20    44    43    1
    21    44    54   am
    22    57    56    2
    23    55    54    1
    24    55    56    1
    25    48    47   ar
    26    47    46    1
    27    43    46    1
    28    56    58   am
    29    58    59    1
    30    59    60    1
    31    59    62    1
    32   136   137    1
    33   155   153    1
    34   137   140    1
    35   137   138    1
    36   140   141    1
    37   154   153    1
    38    60    61    2
    39    62    63    1
    40   141   142    1
    41   153   152    2
    42    26    25    2
    43   139   138    2
    44    25    24    1
    45   142   143    1
    46    21    22    1
    47    21    18    1
    48    20    19    2
    49    19    18    1
    50    65    63   ar
    51    63    64   ar
    52   143   144    1
    53   152   151    1
    54    18    17    1
    55   145   146    1
    56    24    23    1
    57    24    27    1
    58   150   151    1
    59   150   149    1
    60    27    28    1
    61    66    67    1
    62   146   149    1
    63   146   147    1
    64    17    15   am
    65    73    71   ar
    66    72    71   ar
    67    28    29    1
    68    28    30    1
    69    16    15    2
    70    71    70    1
    71    15    14    1
    72    67    70    1
    73    67    68    1
    74   147   148    2
    75     4     3    2
    76    68    69    2
    77    14    13    1
    78     3    13   am
    79     3     2    1
    80   134   133    1
    81     1     2    1
    82     2     5    1
    83   135   133    1
    84   133   132    2
    85     8    10   ar
    86     8     6   ar
    87    81    80    2
    88    82    80   am
    89     5     6    1
    90    10    11   ar
    91   128   127    2
    92   132   131    1
    93   131   130    1
    94    80    79    1
    95   115   114    1
    96     6     7   ar
    97    97    98    1
    98    97    96    1
    99   127   126    1
   100   114   113    1
   101   126   129    1
   102   126   125    1
   103    11    12    1
   104    11     9   ar
   105     7     9   ar
   106    96    95    1
   107   129   130    1
   108    79    78    1
   109    78    75    1
   110   113   112    1
   111    77    76    2
   112    95    92    1
   113    76    75    1
   114    75    74    1
   115    92    93    1
   116    92    91    1
   117   112   109    1
   118    94    93    2
   119   119   118    2
   120    91    85   am
   121   110   111    2
   122   110   109    1
   123   109   108    1
   124   121   120    1
   125   121   122    1
   126   118   117    1
   127    85    86    2
   128    85    84    1
   129   120   117    1
   130    87    84    1
   131    87    88    1
   132   124   122   am
   133   108   101   am
   134    84    83    1
   135   117   116    1
   136   122   123    2
   137    90    88   am
   138    88    89    2
   139   194   193    1
   140   101   102    2
   141   101   100    1
   142    99   100    1
   143   193   195    1
   144   193   192    2
   145   183   182    2
   146   100   103    1
   147   169   168    2
   148   192   191    1
   149   182   184   am
   150   182   181    1
   151   157   156    1
   152   157   160    1
   153   157   158    1
   154   191   190    1
   155   161   160    1
   156   162   160    1
   157   159   158    2
   158   103   104    1
   159   170   168   am
   160   168   167    1
   161   181   178    1
   162   190   189    1
   163   104   105    1
   164   106   105    1
   165   106   107    1
   166   174   173    2
   167   178   179    1
   168   178   177    1
   169   176   175    1
   170   167   164    1
   171   175   172    1
   172   173   177   am
   173   173   172    1
   174   189   186    1
   175   179   180    2
   176   163   164    1
   177   164   165    1
   178   172   171    1
   179   185   186    1
   180   188   187    2
   181   186   187    1
   182   165   166    2
