@<TRIPOS>MOLECULE
tmp/3ercC00.pdb
 189 177 0 0 0
SMALL
GASTEIGER

@<TRIPOS>ATOM
      1  N         18.8730   33.0030  -43.2600 N.3   152  TYR152     -0.1241
      2  CA        19.8240   31.9400  -42.9790 C.3   152  TYR152      0.1605
      3  C         19.5920   30.7530  -43.9050 C.2   152  TYR152      0.2264
      4  O         19.1350   30.8980  -45.0430 O.2   152  TYR152     -0.2867
      5  CB        19.7320   31.4760  -41.5200 C.3   152  TYR152      0.0534
      6  CG        18.4800   30.7120  -41.1430 C.ar  152  TYR152     -0.0201
      7  CD1       18.4680   29.8900  -40.0220 C.ar  152  TYR152     -0.0009
      8  CD2       17.2990   30.8220  -41.8860 C.ar  152  TYR152     -0.0009
      9  CE1       17.3100   29.1880  -39.6440 C.ar  152  TYR152      0.0417
     10  CE2       16.1280   30.1270  -41.5150 C.ar  152  TYR152      0.0417
     11  CZ        16.1430   29.3110  -40.3960 C.ar  152  TYR152      0.1957
     12  OH        15.0130   28.5970  -40.0340 O.3   152  TYR152     -0.2866
     13  N         15.8950   26.9870  -50.9120 N.3   168  ASP168     -0.1239
     14  CA        15.0000   27.9320  -50.2610 C.3   168  ASP168      0.1674
     15  C         15.6900   29.0590  -49.5210 C.2   168  ASP168      0.2266
     16  O         16.6380   28.8420  -48.7610 O.2   168  ASP168     -0.2867
     17  CB        14.0500   27.2040  -49.2930 C.3   168  ASP168      0.1410
     18  CG        14.7710   26.5270  -48.1340 C.2   168  ASP168      0.3668
     19  OD1       14.0700   26.0940  -47.1900 O.co2 168  ASP168     -0.2456
     20  OD2       16.0170   26.4190  -48.1580 O.co2 168  ASP168     -0.2456
     21  N         15.7240   30.9690  -46.6760 N.3   170  ASP170     -0.1239
     22  CA        15.1150   30.8240  -45.3470 C.3   170  ASP170      0.1674
     23  C         15.2030   32.0960  -44.5010 C.2   170  ASP170      0.2266
     24  O         16.2350   32.7640  -44.4720 O.2   170  ASP170     -0.2867
     25  CB        15.7800   29.6680  -44.6140 C.3   170  ASP170      0.1410
     26  CG        15.8030   28.4150  -45.4380 C.2   170  ASP170      0.3668
     27  OD1       14.7170   27.8200  -45.6480 O.co2 170  ASP170     -0.2456
     28  OD2       16.9100   28.0420  -45.8850 O.co2 170  ASP170     -0.2456
     29  N          2.2070   25.1660  -38.7150 N.3   200  ILE200     -0.1245
     30  CA         2.4910   23.7840  -38.3730 C.3   200  ILE200      0.1561
     31  C          2.7420   23.5820  -36.8930 C.2   200  ILE200      0.2260
     32  O          3.8570   23.7650  -36.4100 O.2   200  ILE200     -0.2867
     33  CB         3.7020   23.2860  -39.1550 C.3   200  ILE200      0.0252
     34  CG1        3.3550   23.2080  -40.6480 C.3   200  ILE200      0.0019
     35  CG2        4.1480   21.9320  -38.6140 C.3   200  ILE200      0.0019
     36  CD1        2.9910   24.5360  -41.2880 C.3   200  ILE200      0.0001
     37  N          3.8370   21.7610  -34.9950 N.3   202  TYR202     -0.1227
     38  CA         5.1260   21.2060  -34.5790 C.3   202  TYR202      0.1736
     39  C          6.1910   22.2850  -34.3650 C.2   202  TYR202      0.2595
     40  O          6.7770   22.4000  -33.2830 O.2   202  TYR202     -0.2718
     41  CB         5.6120   20.1970  -35.6270 C.3   202  TYR202      0.0548
     42  CG         4.5810   19.1450  -36.0080 C.ar  202  TYR202     -0.0200
     43  CD1        4.4340   18.7490  -37.3380 C.ar  202  TYR202     -0.0009
     44  CD2        3.7500   18.5490  -35.0430 C.ar  202  TYR202     -0.0009
     45  CE1        3.4860   17.7920  -37.7100 C.ar  202  TYR202      0.0417
     46  CE2        2.7950   17.5840  -35.4040 C.ar  202  TYR202      0.0417
     47  CZ         2.6710   17.2130  -36.7450 C.ar  202  TYR202      0.1957
     48  OH         1.7360   16.2800  -37.1460 O.3   202  TYR202     -0.2866
     49  N          6.4380   23.0800  -35.3950 N.am  203  LEU203     -0.1980
     50  CA         7.4390   24.1330  -35.2920 C.3   203  LEU203      0.1596
     51  C          6.8900   25.3480  -34.5420 C.2   203  LEU203      0.2287
     52  O          5.7130   25.6840  -34.6750 O.2   203  LEU203     -0.2864
     53  CB         7.9220   24.5440  -36.6910 C.3   203  LEU203      0.0297
     54  CG         8.6010   23.4970  -37.5920 C.3   203  LEU203      0.0022
     55  CD1        9.7770   22.8660  -36.8510 C.3   203  LEU203      0.0001
     56  CD2        7.5950   22.4390  -38.0250 C.3   203  LEU203      0.0001
     57  N          5.5640   29.1480  -36.7170 N.3   206  TYR206     -0.1241
     58  CA         5.8310   28.7540  -38.0860 C.3   206  TYR206      0.1605
     59  C          4.6380   28.7590  -39.0230 C.2   206  TYR206      0.2264
     60  O          3.6220   28.1110  -38.7660 O.2   206  TYR206     -0.2867
     61  CB         6.4540   27.3640  -38.0960 C.3   206  TYR206      0.0534
     62  CG         6.8020   26.8600  -39.4660 C.ar  206  TYR206     -0.0201
     63  CD1        7.7760   27.4910  -40.2310 C.ar  206  TYR206     -0.0009
     64  CD2        6.1960   25.7250  -39.9820 C.ar  206  TYR206     -0.0009
     65  CE1        8.1480   26.9960  -41.4760 C.ar  206  TYR206      0.0417
     66  CE2        6.5600   25.2230  -41.2290 C.ar  206  TYR206      0.0417
     67  CZ         7.5410   25.8630  -41.9670 C.ar  206  TYR206      0.1957
     68  OH         7.9320   25.3510  -43.1770 O.3   206  TYR206     -0.2866
     69  N          2.0580   27.3050  -48.6310 N.3   210  LYS210     -0.1245
     70  CA         2.2700   26.2190  -49.5770 C.3   210  LYS210      0.1561
     71  C          1.4980   26.5630  -50.8530 C.2   210  LYS210      0.2260
     72  O          1.0190   27.6970  -51.0150 O.2   210  LYS210     -0.2867
     73  CB         1.7910   24.8680  -49.0050 C.3   210  LYS210      0.0271
     74  CG         2.9360   23.9350  -48.5800 C.3   210  LYS210      0.0035
     75  CD         2.4660   22.5110  -48.2730 C.3   210  LYS210      0.0206
     76  CE         1.4730   22.4580  -47.1100 C.3   210  LYS210      0.1093
     77  NZ         1.1240   21.0580  -46.7070 N.3   210  LYS210     -0.1314
     78  N          5.1960   23.3860  -51.7520 N.3   216  HIS216     -0.1241
     79  CA         5.8420   24.3270  -50.8540 C.3   216  HIS216      0.1621
     80  C          6.4080   25.5550  -51.5550 C.2   216  HIS216      0.2264
     81  O          7.4880   25.5060  -52.1410 O.2   216  HIS216     -0.2867
     82  CB         6.9460   23.6250  -50.0690 C.3   216  HIS216      0.0745
     83  CG         7.6530   24.5150  -49.0940 C.ar  216  HIS216      0.0817
     84  ND1        7.9170   24.1310  -47.7960 N.ar  216  HIS216     -0.2268
     85  CD2        8.1790   25.7560  -49.2350 C.ar  216  HIS216      0.1154
     86  CE1        8.5780   25.0960  -47.1800 C.ar  216  HIS216      0.1986
     87  NE2        8.7500   26.0930  -48.0320 N.ar  216  HIS216     -0.2212
     88  N          8.3290   28.9320  -46.6510 N.3   219  ASP219     -0.1239
     89  CA         8.0170   28.9380  -45.2230 C.3   219  ASP219      0.1674
     90  C          8.7340   30.0450  -44.4620 C.2   219  ASP219      0.2266
     91  O          9.7840   30.5260  -44.8990 O.2   219  ASP219     -0.2867
     92  CB         8.4100   27.5990  -44.5950 C.3   219  ASP219      0.1410
     93  CG         9.8990   27.2710  -44.7650 C.2   219  ASP219      0.3668
     94  OD1       10.7180   28.2060  -44.9320 O.co2 219  ASP219     -0.2456
     95  OD2       10.2560   26.0700  -44.7140 O.co2 219  ASP219     -0.2456
     96  N          9.5630   31.7750  -40.1950 N.3   221  PHE221     -0.1241
     97  CA         9.5480   31.6800  -38.7330 C.3   221  PHE221      0.1605
     98  C          9.4310   33.1170  -38.1840 C.2   221  PHE221      0.2264
     99  O         10.1700   34.0050  -38.6150 O.2   221  PHE221     -0.2867
    100  CB        10.8570   31.0660  -38.2180 C.3   221  PHE221      0.0534
    101  CG        10.8910   29.5450  -38.1900 C.ar  221  PHE221     -0.0203
    102  CD1       11.8770   28.8470  -38.8950 C.ar  221  PHE221     -0.0042
    103  CD2       10.0260   28.8220  -37.3700 C.ar  221  PHE221     -0.0042
    104  CE1       12.0090   27.4680  -38.7800 C.ar  221  PHE221     -0.0003
    105  CE2       10.1510   27.4380  -37.2480 C.ar  221  PHE221     -0.0003
    106  CZ        11.1460   26.7640  -37.9530 C.ar  221  PHE221     -0.0000
    107  N         23.9270   25.1700  -35.0440 N.3   250  ASN250     -0.1240
    108  CA        22.6970   24.4290  -35.2940 C.3   250  ASN250      0.1653
    109  C         23.0850   23.2700  -36.1950 C.2   250  ASN250      0.2266
    110  O         22.5390   22.1710  -36.0930 O.2   250  ASN250     -0.2867
    111  CB        21.6590   25.3140  -35.9980 C.3   250  ASN250      0.1155
    112  CG        21.0220   26.3370  -35.0600 C.2   250  ASN250      0.2627
    113  OD1       20.2300   25.9870  -34.1740 O.2   250  ASN250     -0.2716
    114  ND2       21.3690   27.6070  -35.2500 N.am  250  ASN250     -0.0877
    115  N         21.7000   19.9310  -35.5240 N.3   254  MET254     -0.1245
    116  CA        20.8310   19.2620  -36.4840 C.3   254  MET254      0.1570
    117  C         21.1800   17.7850  -36.5730 C.2   254  MET254      0.2261
    118  O         20.3060   16.9160  -36.4860 O.2   254  MET254     -0.2867
    119  CB        20.9540   19.9120  -37.8860 C.3   254  MET254      0.0387
    120  CG        20.4480   19.0330  -39.0560 C.3   254  MET254      0.0595
    121  SD        20.0770   19.8880  -40.6330 S.3   254  MET254     -0.1393
    122  CE        21.7220   20.3930  -41.1980 C.3   254  MET254      0.0692
    123  N         17.7600   13.2940  -39.5940 N.3   260  ARG260     -0.1245
    124  CA        18.6850   14.0480  -40.4330 C.3   260  ARG260      0.1563
    125  C         19.9840   13.2910  -40.7380 C.2   260  ARG260      0.2260
    126  O         20.8270   13.7580  -41.5150 O.2   260  ARG260     -0.2867
    127  CB        18.9730   15.4060  -39.7770 C.3   260  ARG260      0.0307
    128  CG        17.7640   16.3520  -39.7740 C.3   260  ARG260      0.0489
    129  CD        17.2710   16.6210  -41.2060 C.3   260  ARG260      0.2205
    130  NE        16.4530   17.8330  -41.3310 N.pl3 260  ARG260     -0.0865
    131  CZ        16.1540   18.4290  -42.4910 C.cat 260  ARG260      0.5346
    132  NH1       16.6050   17.9260  -43.6390 N.pl3 260  ARG260      0.1354
    133  NH2       15.4110   19.5360  -42.5100 N.pl3 260  ARG260      0.1354
    134  N         12.0000   30.2070  -31.9160 N.3   349  SER349     -0.1202
    135  CA        12.3600   29.1350  -32.8320 C.3   349  SER349      0.2020
    136  C         13.8400   29.0640  -33.1660 C.2   349  SER349      0.2618
    137  O         14.2690   28.1960  -33.9160 O.2   349  SER349     -0.2717
    138  CB        11.5520   29.2690  -34.1160 C.3   349  SER349      0.2103
    139  OG        11.4670   30.6250  -34.4900 O.3   349  SER349     -0.2182
    140  N         14.6250   29.9760  -32.6220 N.am  350  VAL350     -0.1979
    141  CA        16.0460   29.9440  -32.8850 C.3   350  VAL350      0.1595
    142  C         16.5950   28.7180  -32.1570 C.2   350  VAL350      0.2287
    143  O         16.7710   27.6570  -32.7480 O.2   350  VAL350     -0.2864
    144  CB        16.7260   31.2090  -32.3640 C.3   350  VAL350      0.0276
    145  CG1       18.1350   31.2780  -32.8580 C.3   350  VAL350      0.0022
    146  CG2       15.9700   32.4150  -32.8220 C.3   350  VAL350      0.0022
    147  N         15.0640   27.0210  -30.1030 N.3   352  ASN352     -0.1240
    148  CA        13.9480   26.0890  -29.9130 C.3   352  ASN352      0.1653
    149  C         13.8620   25.6740  -28.4500 C.2   352  ASN352      0.2266
    150  O         13.6980   24.4990  -28.1250 O.2   352  ASN352     -0.2867
    151  CB        14.1150   24.8370  -30.7850 C.3   352  ASN352      0.1155
    152  CG        13.6060   25.0310  -32.2140 C.2   352  ASN352      0.2627
    153  OD1       13.7270   24.1220  -33.0530 O.2   352  ASN352     -0.2716
    154  ND2       13.0320   26.2080  -32.4960 N.am  352  ASN352     -0.0877
    155  N         15.4560   20.3700  -28.6590 N.3   367  SER367     -0.1202
    156  CA        14.4420   20.1550  -29.6810 C.3   367  SER367      0.2020
    157  C         14.5640   18.8910  -30.5250 C.2   367  SER367      0.2618
    158  O         13.6470   18.5780  -31.2720 O.2   367  SER367     -0.2717
    159  CB        14.3660   21.3800  -30.6020 C.3   367  SER367      0.2103
    160  OG        15.6300   21.7150  -31.1360 O.3   367  SER367     -0.2182
    161  N         15.6660   18.1550  -30.4070 N.am  368  ASN368     -0.1974
    162  CA        15.8420   16.9440  -31.2190 C.3   368  ASN368      0.1688
    163  C         15.8480   15.6160  -30.4530 C.2   368  ASN368      0.2292
    164  O         15.6470   15.5840  -29.2350 O.2   368  ASN368     -0.2864
    165  CB        17.1350   17.0380  -32.0380 C.3   368  ASN368      0.1181
    166  CG        17.1960   18.2820  -32.8990 C.2   368  ASN368      0.2629
    167  OD1       16.2290   18.6210  -33.5790 O.2   368  ASN368     -0.2716
    168  ND2       18.3400   18.9620  -32.8860 N.am  368  ASN368     -0.0877
    169  N         11.4370   12.1160  -29.4180 N.3   426  ARG426     -0.1245
    170  CA        11.0960   13.5230  -29.1960 C.3   426  ARG426      0.1563
    171  C          9.6300   13.7510  -28.7720 C.2   426  ARG426      0.2260
    172  O          8.6930   13.2420  -29.3940 O.2   426  ARG426     -0.2867
    173  CB        11.4050   14.3390  -30.4610 C.3   426  ARG426      0.0307
    174  CG        10.9630   13.6720  -31.7600 C.3   426  ARG426      0.0489
    175  CD        10.8020   14.6900  -32.8690 C.3   426  ARG426      0.2205
    176  NE        11.9440   15.5980  -32.9400 N.pl3 426  ARG426     -0.0865
    177  CZ        12.1040   16.5330  -33.8770 C.cat 426  ARG426      0.5346
    178  NH1       11.1910   16.6860  -34.8300 N.pl3 426  ARG426      0.1354
    179  NH2       13.1800   17.3130  -33.8710 N.pl3 426  ARG426      0.1354
    180  N         -3.5890   21.8150  -36.9110 N.3   433  HIS433     -0.1241
    181  CA        -2.9580   22.4830  -38.0380 C.3   433  HIS433      0.1621
    182  C         -3.9060   23.5720  -38.5130 C.2   433  HIS433      0.2264
    183  O         -4.9990   23.2880  -39.0020 O.2   433  HIS433     -0.2867
    184  CB        -2.7000   21.4930  -39.1620 C.3   433  HIS433      0.0745
    185  CG        -1.4790   20.6580  -38.9580 C.ar  433  HIS433      0.0817
    186  ND1       -0.2020   21.1500  -39.1180 N.ar  433  HIS433     -0.2268
    187  CD2       -1.3370   19.3630  -38.5910 C.ar  433  HIS433      0.1154
    188  CE1        0.6740   20.1930  -38.8600 C.ar  433  HIS433      0.1986
    189  NE2        0.0110   19.0970  -38.5390 N.ar  433  HIS433     -0.2212
@<TRIPOS>BOND
     1    81    80    2
     2    78    79    1
     3    80    79    1
     4    72    71    2
     5    13    14    1
     6    79    82    1
     7    71    70    1
     8    14    15    1
     9    14    17    1
    10    82    83    1
    11    70    73    1
    12    70    69    1
    13    15    16    2
    14    17    18    1
    15    85    83   ar
    16    85    87   ar
    17    83    84   ar
    18    73    74    1
    19    74    75    1
    20    75    76    1
    21    20    18   ar
    22    18    19   ar
    23    87    86   ar
    24    84    86   ar
    25    76    77    1
    26    21    22    1
    27    88    89    1
    28    28    26   ar
    29    27    26   ar
    30    26    25    1
    31    22    25    1
    32    22    23    1
    33    89    92    1
    34    89    90    1
    35     4     3    2
    36    94    93   ar
    37    91    90    2
    38    93    95   ar
    39    93    92    1
    40    23    24    2
    41     3     2    1
    42   132   131    1
    43     1     2    1
    44    68    67    1
    45     2     5    1
    46   133   131    1
    47   131   130    2
    48    67    65   ar
    49    67    66   ar
    50     8    10   ar
    51     8     6   ar
    52     5     6    1
    53    10    11   ar
    54   126   125    2
    55    65    63   ar
    56   130   129    1
    57    36    34    1
    58    66    64   ar
    59   129   128    1
    60   122   121    1
    61     6     7   ar
    62   125   124    1
    63    34    33    1
    64   121   120    1
    65   124   127    1
    66   124   123    1
    67    11    12    1
    68    11     9   ar
    69    63    62   ar
    70    96    97    1
    71     7     9   ar
    72    64    62   ar
    73   127   128    1
    74    62    61    1
    75   184   185    1
    76   184   181    1
    77    33    35    1
    78    33    30    1
    79   186   185   ar
    80   186   188   ar
    81   120   119    1
    82    59    60    2
    83    59    58    1
    84   183   182    2
    85   185   187   ar
    86   102   104   ar
    87   102   101   ar
    88   188   189   ar
    89   104   106   ar
    90    97   100    1
    91    97    98    1
    92    29    30    1
    93    99    98    2
    94   187   189   ar
    95   182   181    1
    96    30    31    1
    97   100   101    1
    98   101   103   ar
    99    61    58    1
   100    58    57    1
   101   181   180    1
   102    56    54    1
   103   106   105   ar
   104   119   116    1
   105    45    43   ar
   106    45    47   ar
   107    54    55    1
   108    54    53    1
   109   103   105   ar
   110    43    42   ar
   111    48    47    1
   112    31    32    2
   113    47    46   ar
   114    53    50    1
   115   117   118    2
   116   117   116    1
   117   116   115    1
   118   109   110    2
   119   109   108    1
   120    42    41    1
   121    42    44   ar
   122   111   108    1
   123   111   112    1
   124    41    38    1
   125    46    44   ar
   126    49    50    1
   127    49    39   am
   128   108   107    1
   129    50    51    1
   130   114   112   am
   131   112   113    2
   132    37    38    1
   133   178   177    1
   134    52    51    2
   135    38    39    1
   136   139   138    1
   137    39    40    2
   138   138   135    1
   139   137   136    2
   140   177   179    1
   141   177   176    2
   142   167   166    2
   143   136   135    1
   144   136   140   am
   145   153   152    2
   146   176   175    1
   147   166   168   am
   148   166   165    1
   149   141   140    1
   150   141   144    1
   151   141   142    1
   152   175   174    1
   153   145   144    1
   154   135   134    1
   155   146   144    1
   156   143   142    2
   157   154   152   am
   158   152   151    1
   159   165   162    1
   160   174   173    1
   161   158   157    2
   162   162   163    1
   163   162   161    1
   164   160   159    1
   165   151   148    1
   166   159   156    1
   167   157   161   am
   168   157   156    1
   169   173   170    1
   170   163   164    2
   171   147   148    1
   172   148   149    1
   173   156   155    1
   174   169   170    1
   175   172   171    2
   176   170   171    1
   177   149   150    2
