@<TRIPOS>MOLECULE
tmp/3erdA01.pdb
 186 175 0 0 0
SMALL
GASTEIGER

@<TRIPOS>ATOM
      1  N         -0.9620    1.2440  -11.6810 N.3    39  MET39      -0.1245
      2  CA        -0.6390   -0.0320  -11.0590 C.3    39  MET39       0.1570
      3  C          0.2390   -0.8700  -11.9760 C.2    39  MET39       0.2261
      4  O          1.1700   -1.5440  -11.5240 O.2    39  MET39      -0.2867
      5  CB        -1.9170   -0.8110  -10.7460 C.3    39  MET39       0.0387
      6  CG        -2.6650   -0.3330   -9.5030 C.3    39  MET39       0.0595
      7  SD        -1.7530   -0.5060   -7.9400 S.3    39  MET39      -0.1393
      8  CE        -1.4720   -2.3020   -7.8830 C.3    39  MET39       0.0692
      9  N          3.8690    0.8080  -12.1920 N.3    42  LEU42      -0.1231
     10  CA         4.5870    0.5910  -10.9380 C.3    42  LEU42       0.1693
     11  C          5.0250   -0.8540  -10.7020 C.2    42  LEU42       0.2592
     12  O          6.1740   -1.1090  -10.3440 O.2    42  LEU42      -0.2718
     13  CB         3.7320    1.0620   -9.7660 C.3    42  LEU42       0.0284
     14  CG         3.4880    2.5710   -9.6760 C.3    42  LEU42       0.0019
     15  CD1        2.6340    2.8650   -8.4540 C.3    42  LEU42       0.0001
     16  CD2        4.8160    3.3150   -9.5970 C.3    42  LEU42       0.0001
     17  N          4.1110   -1.7970  -10.8900 N.am   43  THR43      -0.1953
     18  CA         4.4330   -3.2000  -10.6760 C.3    43  THR43       0.1897
     19  C          5.3710   -3.7300  -11.7590 C.2    43  THR43       0.2313
     20  O          6.2010   -4.5980  -11.4930 O.2    43  THR43      -0.2863
     21  CB         3.1600   -4.0600  -10.6430 C.3    43  THR43       0.1794
     22  OG1        2.4170   -3.8660  -11.8530 O.3    43  THR43      -0.2208
     23  CG2        2.2930   -3.6750   -9.4480 C.3    43  THR43       0.0378
     24  N          7.7090   -1.9920  -13.2950 N.3    45  LEU45      -0.1231
     25  CA         9.0310   -1.5080  -12.9250 C.3    45  LEU45       0.1693
     26  C          9.5620   -2.3360  -11.7420 C.2    45  LEU45       0.2591
     27  O         10.7190   -2.7580  -11.7260 O.2    45  LEU45      -0.2718
     28  CB         8.9360   -0.0260  -12.5530 C.3    45  LEU45       0.0284
     29  CG        10.1540    0.6660  -11.9430 C.3    45  LEU45       0.0019
     30  CD1       11.2390    0.8280  -12.9870 C.3    45  LEU45       0.0001
     31  CD2        9.7210    2.0300  -11.3950 C.3    45  LEU45       0.0001
     32  N          8.7050   -2.5860  -10.7610 N.am   46  ALA46      -0.1980
     33  CA         9.1160   -3.3510   -9.5920 C.3    46  ALA46       0.1597
     34  C          9.5720   -4.7520   -9.9890 C.2    46  ALA46       0.2287
     35  O         10.6320   -5.2130   -9.5610 O.2    46  ALA46      -0.2864
     36  CB         7.9690   -3.4360   -8.5950 C.3    46  ALA46       0.0319
     37  N         12.9050   -4.5930  -11.3900 N.3    49  GLU49      -0.1245
     38  CA        13.8870   -4.2240  -10.3780 C.3    49  GLU49       0.1567
     39  C         14.2450   -5.4450   -9.5180 C.2    49  GLU49       0.2260
     40  O         15.4020   -5.6310   -9.1250 O.2    49  GLU49      -0.2867
     41  CB        13.3250   -3.1190   -9.4760 C.3    49  GLU49       0.0388
     42  CG        13.3000   -1.7280  -10.1000 C.3    49  GLU49       0.1160
     43  CD        12.8260   -0.6610   -9.1130 C.2    49  GLU49       0.3649
     44  OE1       11.6020   -0.5420   -8.9200 O.co2  49  GLU49      -0.2457
     45  OE2       13.6760    0.0500   -8.5300 O.co2  49  GLU49      -0.2457
     46  N         12.2580   -7.4990    0.2980 N.3    79  TRP79      -0.1227
     47  CA        12.1620   -6.9100   -1.0340 C.3    79  TRP79       0.1737
     48  C         11.4490   -5.5590   -1.1680 C.2    79  TRP79       0.2595
     49  O         11.9760   -4.6590   -1.8210 O.2    79  TRP79      -0.2718
     50  CB        11.5750   -7.9200   -2.0360 C.3    79  TRP79       0.0564
     51  CG        10.0990   -8.1980   -1.9220 C.ar   79  TRP79       0.0003
     52  CD1        9.5050   -9.1940   -1.2020 C.ar   79  TRP79       0.0946
     53  CD2        9.0410   -7.5080   -2.6000 C.ar   79  TRP79       0.0152
     54  NE1        8.1420   -9.1710   -1.3930 N.ar   79  TRP79      -0.2442
     55  CE2        7.8310   -8.1470   -2.2470 C.ar   79  TRP79       0.0810
     56  CE3        8.9990   -6.4140   -3.4760 C.ar   79  TRP79       0.0012
     57  CZ2        6.5930   -7.7280   -2.7330 C.ar   79  TRP79       0.0191
     58  CZ3        7.7670   -5.9970   -3.9630 C.ar   79  TRP79       0.0001
     59  CH2        6.5780   -6.6570   -3.5870 C.ar   79  TRP79       0.0015
     60  N         10.2750   -5.3880   -0.5640 N.am   80  LEU80      -0.1980
     61  CA         9.5890   -4.1090   -0.7150 C.3    80  LEU80       0.1596
     62  C         10.3240   -3.0150    0.0580 C.2    80  LEU80       0.2287
     63  O         10.3280   -1.8570   -0.3490 O.2    80  LEU80      -0.2864
     64  CB         8.1260   -4.2090   -0.2620 C.3    80  LEU80       0.0297
     65  CG         7.2280   -2.9950   -0.5970 C.3    80  LEU80       0.0022
     66  CD1        7.4830   -2.4890   -2.0240 C.3    80  LEU80       0.0001
     67  CD2        5.7610   -3.3890   -0.4210 C.3    80  LEU80       0.0001
     68  N         13.1030   -1.9470   -2.1750 N.3    83  LEU83      -0.1231
     69  CA        12.6130   -1.1780   -3.3130 C.3    83  LEU83       0.1693
     70  C         12.2850    0.2450   -2.8410 C.2    83  LEU83       0.2591
     71  O         12.5880    1.2230   -3.5220 O.2    83  LEU83      -0.2718
     72  CB        11.3490   -1.8190   -3.8930 C.3    83  LEU83       0.0284
     73  CG        11.5040   -3.0710   -4.7610 C.3    83  LEU83       0.0019
     74  CD1       10.1700   -3.3750   -5.4510 C.3    83  LEU83       0.0001
     75  CD2       12.6140   -2.8600   -5.7900 C.3    83  LEU83       0.0001
     76  N         11.6740    0.3520   -1.6650 N.am   84  MET84      -0.1979
     77  CA        11.2890    1.6510   -1.1270 C.3    84  MET84       0.1605
     78  C         12.4550    2.5470   -0.7040 C.2    84  MET84       0.2287
     79  O         12.4280    3.7570   -0.9590 O.2    84  MET84      -0.2864
     80  CB        10.3090    1.4570    0.0310 C.3    84  MET84       0.0413
     81  CG         8.9190    1.0320   -0.4340 C.3    84  MET84       0.0598
     82  SD         7.7530    0.7720    0.9090 S.3    84  MET84      -0.1393
     83  CE         6.1970    0.8230    0.0150 C.3    84  MET84       0.0692
     84  N         13.9220    3.8870   -3.7890 N.3    87  LEU87      -0.1245
     85  CA        13.0250    4.8930   -4.3450 C.3    87  LEU87       0.1561
     86  C         13.2090    6.2220   -3.6160 C.2    87  LEU87       0.2260
     87  O         13.4260    7.2660   -4.2360 O.2    87  LEU87      -0.2867
     88  CB        11.5670    4.4250   -4.2130 C.3    87  LEU87       0.0270
     89  CG        10.4790    5.4980   -4.3520 C.3    87  LEU87       0.0019
     90  CD1       10.5610    6.1680   -5.7320 C.3    87  LEU87       0.0001
     91  CD2        9.1220    4.8590   -4.1530 C.3    87  LEU87       0.0001
     92  N         16.4020    7.8880   -4.5580 N.3    90  ARG90      -0.1245
     93  CA        16.4100    8.5180   -5.8810 C.3    90  ARG90       0.1563
     94  C         15.6260    9.8240   -5.8720 C.2    90  ARG90       0.2260
     95  O         15.9030   10.7190   -6.6680 O.2    90  ARG90      -0.2867
     96  CB        15.7640    7.6200   -6.9470 C.3    90  ARG90       0.0307
     97  CG        16.2340    6.1840   -7.0200 C.3    90  ARG90       0.0489
     98  CD        15.8220    5.5550   -8.3580 C.3    90  ARG90       0.2205
     99  NE        14.4340    5.0790   -8.3730 N.pl3  90  ARG90      -0.0865
    100  CZ        14.0430    3.9160   -7.8580 C.cat  90  ARG90       0.5346
    101  NH1       14.9320    3.1120   -7.2850 N.pl3  90  ARG90       0.1354
    102  NH2       12.7720    3.5490   -7.9230 N.pl3  90  ARG90       0.1354
    103  N         10.3140    7.3210   -9.3470 N.3   100  PHE100     -0.1241
    104  CA        10.2490    5.8830   -9.5570 C.3   100  PHE100      0.1605
    105  C         11.2410    5.5060  -10.6470 C.2   100  PHE100      0.2264
    106  O         11.8980    4.4680  -10.5790 O.2   100  PHE100     -0.2867
    107  CB         8.8340    5.4740   -9.9510 C.3   100  PHE100      0.0534
    108  CG         7.8630    5.5200   -8.8160 C.ar  100  PHE100     -0.0203
    109  CD1        7.7640    4.4520   -7.9240 C.ar  100  PHE100     -0.0042
    110  CD2        7.0400    6.6300   -8.6300 C.ar  100  PHE100     -0.0042
    111  CE1        6.8590    4.4880   -6.8680 C.ar  100  PHE100     -0.0003
    112  CE2        6.1280    6.6750   -7.5720 C.ar  100  PHE100     -0.0003
    113  CZ         6.0380    5.6020   -6.6910 C.ar  100  PHE100     -0.0000
    114  N         -3.4460    4.6360   -2.3500 N.3   117  MET117     -0.1245
    115  CA        -2.0340    4.8200   -2.6510 C.3   117  MET117      0.1570
    116  C         -1.4700    6.1720   -2.2160 C.2   117  MET117      0.2261
    117  O         -0.2730    6.2780   -1.9620 O.2   117  MET117     -0.2867
    118  CB        -1.7950    4.6020   -4.1540 C.3   117  MET117      0.0387
    119  CG        -0.3480    4.7600   -4.6060 C.3   117  MET117      0.0595
    120  SD         0.8070    3.6090   -3.8130 S.3   117  MET117     -0.1393
    121  CE         0.8580    2.2910   -5.0080 C.3   117  MET117      0.0692
    122  N          0.3720    6.0410    1.0530 N.3   120  ILE120     -0.1231
    123  CA         1.7130    5.4860    0.9240 C.3   120  ILE120      0.1692
    124  C          2.7000    6.4800    0.3030 C.2   120  ILE120      0.2592
    125  O          3.8610    6.5450    0.7160 O.2   120  ILE120     -0.2718
    126  CB         1.6890    4.1930    0.1030 C.3   120  ILE120      0.0266
    127  CG1        0.6700    3.2280    0.7280 C.3   120  ILE120      0.0019
    128  CG2        3.1040    3.5860    0.0400 C.3   120  ILE120      0.0020
    129  CD1        0.8110    1.7800    0.3090 C.3   120  ILE120      0.0001
    130  N          2.2440    7.2600   -0.6780 N.am  121  PHE121     -0.1976
    131  CA         3.1030    8.2540   -1.3230 C.3   121  PHE121      0.1639
    132  C          3.5750    9.3090   -0.3200 C.2   121  PHE121      0.2290
    133  O          4.7380    9.7260   -0.3440 O.2   121  PHE121     -0.2864
    134  CB         2.3560    8.9510   -2.4670 C.3   121  PHE121      0.0560
    135  CG         2.5160    8.2810   -3.8090 C.ar  121  PHE121     -0.0200
    136  CD1        2.5480    6.8920   -3.9170 C.ar  121  PHE121     -0.0042
    137  CD2        2.6020    9.0420   -4.9700 C.ar  121  PHE121     -0.0042
    138  CE1        2.6590    6.2730   -5.1630 C.ar  121  PHE121     -0.0003
    139  CE2        2.7130    8.4360   -6.2210 C.ar  121  PHE121     -0.0003
    140  CZ         2.7400    7.0480   -6.3180 C.ar  121  PHE121     -0.0000
    141  N          6.2920    7.9790    1.8690 N.3   124  LEU124     -0.1245
    142  CA         7.5080    7.8860    1.0700 C.3   124  LEU124      0.1561
    143  C          8.1510    9.2610    0.9050 C.2   124  LEU124      0.2260
    144  O          9.3700    9.4080    1.0310 O.2   124  LEU124     -0.2867
    145  CB         7.1960    7.2640   -0.2960 C.3   124  LEU124      0.0270
    146  CG         6.9190    5.7570   -0.1990 C.3   124  LEU124      0.0019
    147  CD1        6.3010    5.2360   -1.5010 C.3   124  LEU124      0.0001
    148  CD2        8.2210    5.0350    0.1160 C.3   124  LEU124      0.0001
    149  N          2.5100   -1.0210    2.3210 N.3   217  GLY217     -0.1225
    150  CA         2.5380   -1.2300    0.8850 C.3   217  GLY217      0.1811
    151  C          2.1640   -2.6510    0.5240 C.2   217  GLY217      0.2280
    152  O          1.4200   -2.8780   -0.4280 O.2   217  GLY217     -0.2866
    153  N         -1.4500   -3.1740    0.9400 N.3   220  HIS220     -0.1226
    154  CA        -2.0920   -2.4940   -0.1690 C.3   220  HIS220      0.1752
    155  C         -2.0010   -3.2870   -1.4700 C.2   220  HIS220      0.2595
    156  O         -2.9870   -3.4140   -2.2050 O.2   220  HIS220     -0.2718
    157  CB        -1.4740   -1.1180   -0.3710 C.3   220  HIS220      0.0759
    158  CG        -2.2260   -0.2730   -1.3470 C.ar  220  HIS220      0.0818
    159  ND1       -2.0060   -0.3360   -2.7060 N.ar  220  HIS220     -0.2268
    160  CD2       -3.2300    0.6170   -1.1680 C.ar  220  HIS220      0.1154
    161  CE1       -2.8420    0.4810   -3.3220 C.ar  220  HIS220      0.1986
    162  NE2       -3.5960    1.0710   -2.4120 N.ar  220  HIS220     -0.2212
    163  N         -0.8180   -3.8190   -1.7520 N.am  221  LEU221     -0.1980
    164  CA        -0.6040   -4.6000   -2.9620 C.3   221  LEU221      0.1596
    165  C         -1.4960   -5.8310   -2.9510 C.2   221  LEU221      0.2287
    166  O         -2.1040   -6.1650   -3.9640 O.2   221  LEU221     -0.2864
    167  CB         0.8600   -5.0240   -3.0740 C.3   221  LEU221      0.0297
    168  CG         1.3090   -5.7440   -4.3460 C.3   221  LEU221      0.0022
    169  CD1        0.7440   -5.0460   -5.5870 C.3   221  LEU221      0.0001
    170  CD2        2.8320   -5.7510   -4.3910 C.3   221  LEU221      0.0001
    171  N         -4.8830   -4.7450   -3.9040 N.3   224  MET224     -0.1245
    172  CA        -5.0530   -4.5330   -5.3350 C.3   224  MET224      0.1570
    173  C         -5.0970   -5.8700   -6.0710 C.2   224  MET224      0.2261
    174  O         -5.7150   -5.9830   -7.1270 O.2   224  MET224     -0.2867
    175  CB        -3.9090   -3.6740   -5.8820 C.3   224  MET224      0.0387
    176  CG        -3.9770   -2.2010   -5.4770 C.3   224  MET224      0.0595
    177  SD        -5.6650   -1.5950   -5.2750 S.3   224  MET224     -0.1393
    178  CE        -5.5720    0.0060   -6.0450 C.3   224  MET224      0.0692
    179  N          7.0090  -10.9080   -9.0270 N.3   236  LEU236     -0.1245
    180  CA         6.4140   -9.9690   -8.0950 C.3   236  LEU236      0.1561
    181  C          5.3420  -10.6660   -7.2730 C.2   236  LEU236      0.2260
    182  O          5.3200  -10.5520   -6.0520 O.2   236  LEU236     -0.2867
    183  CB         5.7940   -8.7900   -8.8380 C.3   236  LEU236      0.0270
    184  CG         5.1330   -7.7530   -7.9290 C.3   236  LEU236      0.0019
    185  CD1        6.0980   -7.3420   -6.8180 C.3   236  LEU236      0.0001
    186  CD2        4.7220   -6.5540   -8.7560 C.3   236  LEU236      0.0001
@<TRIPOS>BOND
     1    24    25    1
     2    30    29    1
     3    25    28    1
     4    25    26    1
     5    28    29    1
     6     9    10    1
     7     3     4    2
     8     3     2    1
     9    29    31    1
    10    22    21    1
    11    19    20    2
    12    19    18    1
    13    26    27    2
    14    26    32   am
    15     1     2    1
    16    37    38    1
    17     2     5    1
    18    10    11    1
    19    10    13    1
    20    17    11   am
    21    17    18    1
    22    32    33    1
    23     5     6    1
    24    11    12    2
    25    18    21    1
    26   105   106    2
    27   105   104    1
    28    21    23    1
    29    38    39    1
    30    38    41    1
    31    42    41    1
    32    42    43    1
    33    34    33    1
    34    34    35    2
    35   107   104    1
    36   107   108    1
    37    13    14    1
    38    14    16    1
    39    14    15    1
    40    33    36    1
    41   104   103    1
    42    39    40    2
    43     6     7    1
    44    43    44   ar
    45    43    45   ar
    46   179   180    1
    47   183   180    1
    48   183   184    1
    49   108   110   ar
    50   108   109   ar
    51   186   184    1
    52   110   112   ar
    53    99    98    1
    54    99   100    2
    55    98    97    1
    56   180   181    1
    57     7     8    1
    58   184   185    1
    59   109   111   ar
    60   102   100    1
    61   100   101    1
    62   112   113   ar
    63   181   182    2
    64   174   173    2
    65    97    96    1
    66    96    93    1
    67   111   113   ar
    68    95    94    2
    69   140   139   ar
    70   140   138   ar
    71   139   137   ar
    72   173   172    1
    73   178   177    1
    74   175   176    1
    75   175   172    1
    76    93    94    1
    77    93    92    1
    78    75    73    1
    79    90    89    1
    80   169   168    1
    81   176   177    1
    82    74    73    1
    83   172   171    1
    84   138   136   ar
    85   121   120    1
    86   137   135   ar
    87    73    72    1
    88   119   118    1
    89   119   120    1
    90   170   168    1
    91    89    88    1
    92    89    91    1
    93   168   167    1
    94    85    88    1
    95    85    84    1
    96    85    86    1
    97    87    86    2
    98   118   115    1
    99   166   165    2
   100    58    59   ar
   101    58    56   ar
   102   136   135   ar
   103    72    69    1
   104   135   134    1
   105    59    57   ar
   106    71    70    2
   107    56    53   ar
   108   161   159   ar
   109   161   162   ar
   110    69    70    1
   111    69    68    1
   112   167   164    1
   113   164   165    1
   114   164   163    1
   115    70    76   am
   116    57    55   ar
   117   159   158   ar
   118   115   114    1
   119   115   116    1
   120    53    55   ar
   121    53    51   ar
   122   134   131    1
   123   162   160   ar
   124    55    54   ar
   125   116   117    2
   126   156   155    2
   127    50    51    1
   128    50    47    1
   129    66    65    1
   130    51    52   ar
   131    49    48    2
   132   163   155   am
   133    76    77    1
   134   147   146    1
   135   155   154    1
   136    54    52   ar
   137   158   160   ar
   138   158   157    1
   139   131   130    1
   140   131   132    1
   141    48    47    1
   142    48    60   am
   143    77    78    1
   144    77    80    1
   145    47    46    1
   146    79    78    2
   147    61    60    1
   148    61    64    1
   149    61    62    1
   150   130   124   am
   151    65    67    1
   152    65    64    1
   153    81    80    1
   154    81    82    1
   155   152   151    2
   156   157   154    1
   157    63    62    2
   158   133   132    2
   159   145   146    1
   160   145   142    1
   161   146   148    1
   162   154   153    1
   163    83    82    1
   164   128   126    1
   165   126   127    1
   166   126   123    1
   167   124   125    2
   168   124   123    1
   169   129   127    1
   170   151   150    1
   171   150   149    1
   172   143   144    2
   173   143   142    1
   174   123   122    1
   175   142   141    1
