@<TRIPOS>MOLECULE
tmp/3ergA00.pdb
 197 191 0 0 0
SMALL
GASTEIGER

@<TRIPOS>ATOM
      1  N        -30.1130  -41.2090  -26.2750 N.3     6  THR6       -0.1218
      2  CA       -30.1420  -42.6160  -26.5650 C.3     6  THR6        0.1862
      3  C        -30.0450  -43.3480  -25.2050 C.2     6  THR6        0.2287
      4  O        -29.1960  -42.9910  -24.3860 O.2     6  THR6       -0.2866
      5  CB       -29.0570  -43.0190  -27.6160 C.3     6  THR6        0.1770
      6  OG1      -29.4480  -44.2250  -28.2860 O.3     6  THR6       -0.2211
      7  CG2      -27.6260  -43.1790  -27.0170 C.3     6  THR6        0.0375
      8  N        -26.6300  -44.7670  -23.7510 N.3     9  GLY9       -0.1210
      9  CA       -25.4710  -43.8940  -23.8390 C.3     9  GLY9        0.1940
     10  C        -24.9050  -43.5240  -22.4920 C.2     9  GLY9        0.2454
     11  O        -25.6390  -43.2330  -21.5930 O.2     9  GLY9       -0.2732
     12  N        -23.5640  -43.5210  -22.3520 N.am   10  PRO10      -0.2717
     13  CA       -22.9040  -43.2090  -21.0800 C.3    10  PRO10       0.1535
     14  C        -23.1660  -41.7860  -20.6090 C.2    10  PRO10       0.2598
     15  O        -23.3850  -41.5700  -19.4200 O.2    10  PRO10      -0.2715
     16  CB       -21.4030  -43.4110  -21.3960 C.3    10  PRO10       0.0310
     17  CG       -21.3990  -44.4560  -22.4810 C.3    10  PRO10       0.0237
     18  CD       -22.6180  -44.0930  -23.3330 C.3    10  PRO10       0.0939
     19  N        -23.1180  -40.8120  -21.5230 N.am   11  TYR11      -0.1961
     20  CA       -23.4520  -39.4350  -21.1400 C.3    11  TYR11       0.1756
     21  C        -24.9420  -39.3230  -20.7910 C.2    11  TYR11       0.2461
     22  O        -25.2950  -38.7310  -19.7680 O.2    11  TYR11      -0.2730
     23  CB       -23.0550  -38.4360  -22.2280 C.3    11  TYR11       0.0574
     24  CG       -21.5700  -38.1150  -22.2980 C.ar   11  TYR11      -0.0198
     25  CD1      -21.0130  -37.0800  -21.5280 C.ar   11  TYR11      -0.0009
     26  CD2      -20.7330  -38.8090  -23.1660 C.ar   11  TYR11      -0.0009
     27  CE1      -19.6030  -36.7770  -21.6290 C.ar   11  TYR11       0.0417
     28  CE2      -19.3610  -38.5180  -23.2690 C.ar   11  TYR11       0.0417
     29  CZ       -18.8080  -37.5170  -22.5270 C.ar   11  TYR11       0.1957
     30  OH       -17.4490  -37.2520  -22.6630 O.3    11  TYR11      -0.2866
     31  N        -25.8200  -39.8860  -21.6260 N.am   12  PRO12      -0.2727
     32  CA       -27.2620  -39.8930  -21.2170 C.3    12  PRO12       0.1402
     33  C        -27.4910  -40.5830  -19.8780 C.2    12  PRO12       0.2269
     34  O        -28.4030  -40.1970  -19.1280 O.2    12  PRO12      -0.2865
     35  CB       -27.9420  -40.6740  -22.3450 C.3    12  PRO12       0.0296
     36  CG       -27.0950  -40.3330  -23.5500 C.3    12  PRO12       0.0237
     37  CD       -25.6430  -40.2830  -23.0370 C.3    12  PRO12       0.0939
     38  N        -25.7440  -40.1680  -17.3350 N.3    14  ARG14      -0.1245
     39  CA       -25.5110  -39.1570  -16.2940 C.3    14  ARG14       0.1563
     40  C        -26.7960  -38.4200  -15.8660 C.2    14  ARG14       0.2260
     41  O        -26.9740  -38.0660  -14.6930 O.2    14  ARG14      -0.2867
     42  CB       -24.4560  -38.1480  -16.7670 C.3    14  ARG14       0.0307
     43  CG       -23.0820  -38.8020  -17.1200 C.3    14  ARG14       0.0489
     44  CD       -22.0540  -37.8040  -17.6480 C.3    14  ARG14       0.2205
     45  NE       -21.8690  -36.6810  -16.7360 N.pl3  14  ARG14      -0.0865
     46  CZ       -21.2120  -35.5530  -17.0290 C.cat  14  ARG14       0.5346
     47  NH1      -20.6670  -35.3580  -18.2230 N.pl3  14  ARG14       0.1354
     48  NH2      -21.1610  -34.5970  -16.1300 N.pl3  14  ARG14       0.1354
     49  N        -27.9400  -42.3880  -32.8190 N.3    35  LEU35      -0.1245
     50  CA       -26.5330  -41.9980  -33.0980 C.3    35  LEU35       0.1561
     51  C        -25.9040  -42.7610  -34.2760 C.2    35  LEU35       0.2260
     52  O        -25.2110  -42.1620  -35.1070 O.2    35  LEU35      -0.2867
     53  CB       -25.6850  -42.1170  -31.8380 C.3    35  LEU35       0.0270
     54  CG       -26.1560  -41.2700  -30.6490 C.3    35  LEU35       0.0019
     55  CD1      -25.0990  -41.2160  -29.5970 C.3    35  LEU35       0.0001
     56  CD2      -26.4660  -39.8740  -31.0970 C.3    35  LEU35       0.0001
     57  N        -27.8690  -37.0070  -34.6670 N.3    40  HIS40      -0.1226
     58  CA       -27.2790  -35.9050  -33.9190 C.3    40  HIS40       0.1752
     59  C        -26.4030  -34.9950  -34.7880 C.2    40  HIS40       0.2595
     60  O        -26.0650  -33.9140  -34.3730 O.2    40  HIS40      -0.2718
     61  CB       -26.4770  -36.4630  -32.7310 C.3    40  HIS40       0.0759
     62  CG       -25.3250  -37.3380  -33.1270 C.ar   40  HIS40       0.0818
     63  ND1      -25.4420  -38.3810  -34.0260 N.ar   40  HIS40      -0.2268
     64  CD2      -24.0270  -37.3240  -32.7320 C.ar   40  HIS40       0.1154
     65  CE1      -24.2620  -38.9700  -34.1670 C.ar   40  HIS40       0.1986
     66  NE2      -23.3840  -38.3330  -33.4080 N.ar   40  HIS40      -0.2212
     67  N        -26.0550  -35.4220  -36.0020 N.am   41  LYS41      -0.1980
     68  CA       -25.1640  -34.6160  -36.8530 C.3    41  LYS41       0.1596
     69  C        -25.9190  -33.8920  -37.9580 C.2    41  LYS41       0.2287
     70  O        -25.3310  -33.1190  -38.7200 O.2    41  LYS41      -0.2864
     71  CB       -24.0230  -35.4600  -37.4550 C.3    41  LYS41       0.0298
     72  CG       -23.1240  -36.1970  -36.4160 C.3    41  LYS41       0.0038
     73  CD       -22.0310  -35.3240  -35.7560 C.3    41  LYS41       0.0206
     74  CE       -22.5170  -34.6440  -34.4240 C.3    41  LYS41       0.1093
     75  NZ       -21.4080  -34.4740  -33.3760 N.3    41  LYS41      -0.1314
     76  N        -24.5910  -33.2940  -29.7020 N.3    53  THR53      -0.1203
     77  CA       -24.4730  -34.3960  -28.7550 C.3    53  THR53       0.1994
     78  C        -25.7180  -34.5690  -27.8690 C.2    53  THR53       0.2618
     79  O        -26.5300  -33.6270  -27.7090 O.2    53  THR53      -0.2717
     80  CB       -23.2610  -34.2250  -27.7760 C.3    53  THR53       0.1784
     81  OG1      -23.3650  -32.9570  -27.0920 O.3    53  THR53      -0.2211
     82  CG2      -21.9010  -34.3210  -28.5140 C.3    53  THR53       0.0376
     83  N        -25.8480  -35.7620  -27.2680 N.am   54  VAL54      -0.1966
     84  CA       -26.9440  -36.0590  -26.3530 C.3    54  VAL54       0.1712
     85  C        -26.4140  -36.3370  -24.9700 C.2    54  VAL54       0.2458
     86  O        -25.3010  -36.8340  -24.8320 O.2    54  VAL54      -0.2730
     87  CB       -27.8520  -37.2630  -26.8430 C.3    54  VAL54       0.0289
     88  CG1      -28.6400  -36.8610  -28.0600 C.3    54  VAL54       0.0023
     89  CG2      -27.0370  -38.5660  -27.1020 C.3    54  VAL54       0.0023
     90  N        -27.2040  -36.0420  -23.9210 N.am   55  PRO55      -0.2727
     91  CA       -28.5890  -35.5900  -23.9310 C.3    55  PRO55       0.1402
     92  C        -28.8090  -34.0730  -24.0020 C.2    55  PRO55       0.2269
     93  O        -27.9120  -33.2910  -23.7000 O.2    55  PRO55      -0.2865
     94  CB       -29.1220  -36.1240  -22.6170 C.3    55  PRO55       0.0296
     95  CG       -27.9610  -36.0760  -21.7420 C.3    55  PRO55       0.0237
     96  CD       -26.7370  -36.3180  -22.5620 C.3    55  PRO55       0.0939
     97  N        -25.7500  -30.2220  -22.3380 N.3    67  GLU67      -0.1231
     98  CA       -24.6370  -30.5370  -21.4150 C.3    67  GLU67       0.1699
     99  C        -25.0790  -31.1750  -20.1020 C.2    67  GLU67       0.2592
    100  O        -25.9330  -30.6250  -19.3840 O.2    67  GLU67      -0.2718
    101  CB       -23.7480  -29.3060  -21.1650 C.3    67  GLU67       0.0402
    102  CG       -23.2090  -28.6670  -22.4690 C.3    67  GLU67       0.1161
    103  CD       -22.2510  -29.5860  -23.1840 C.2    67  GLU67       0.3649
    104  OE1      -21.4170  -30.2270  -22.4900 O.co2  67  GLU67      -0.2457
    105  OE2      -22.3660  -29.7180  -24.4230 O.co2  67  GLU67      -0.2457
    106  N        -24.5040  -32.3360  -19.7790 N.am   68  CYS68      -0.1956
    107  CA       -24.9430  -33.1250  -18.5840 C.3    68  CYS68       0.1843
    108  C        -24.8310  -32.3000  -17.3260 C.2    68  CYS68       0.2626
    109  O        -25.7200  -32.3290  -16.4850 O.2    68  CYS68      -0.2714
    110  CB       -24.1510  -34.4470  -18.4620 C.3    68  CYS68       0.0997
    111  SG       -24.4250  -35.6120  -19.8460 S.3    68  CYS68      -0.0797
    112  N        -23.7410  -31.5580  -17.1820 N.am   69  THR69      -0.1950
    113  CA       -23.5540  -30.7600  -15.9890 C.3    69  THR69       0.1897
    114  C        -24.6560  -29.7040  -15.8350 C.2    69  THR69       0.2313
    115  O        -25.2320  -29.5720  -14.7670 O.2    69  THR69      -0.2863
    116  CB       -22.1700  -30.0590  -16.0230 C.3    69  THR69       0.1794
    117  OG1      -21.1480  -31.0570  -16.1850 O.3    69  THR69      -0.2208
    118  CG2      -21.8970  -29.2920  -14.7390 C.3    69  THR69       0.0378
    119  N        -14.8150  -35.6030  -16.0780 N.3   103  GLU103     -0.1245
    120  CA       -14.9550  -35.3790  -17.5050 C.3   103  GLU103      0.1567
    121  C        -13.6140  -35.3280  -18.2330 C.2   103  GLU103      0.2260
    122  O        -13.3930  -36.0540  -19.2130 O.2   103  GLU103     -0.2867
    123  CB       -15.7510  -34.0880  -17.7610 C.3   103  GLU103      0.0388
    124  CG       -17.2480  -34.2160  -17.4170 C.3   103  GLU103      0.1160
    125  CD       -18.0100  -32.9480  -17.7300 C.2   103  GLU103      0.3649
    126  OE1      -17.3830  -31.8810  -17.6790 O.co2 103  GLU103     -0.2457
    127  OE2      -19.2180  -33.0000  -18.0240 O.co2 103  GLU103     -0.2457
    128  N        -14.4550  -38.0020  -20.9490 N.3   108  ASP108     -0.1239
    129  CA       -14.2660  -37.4620  -22.3230 C.3   108  ASP108      0.1674
    130  C        -13.1950  -38.2440  -23.0950 C.2   108  ASP108      0.2266
    131  O        -13.3660  -38.4630  -24.2920 O.2   108  ASP108     -0.2867
    132  CB       -13.8980  -35.9440  -22.3370 C.3   108  ASP108      0.1410
    133  CG       -15.0310  -35.0250  -21.8460 C.2   108  ASP108      0.3668
    134  OD1      -16.1700  -35.4580  -21.5950 O.co2 108  ASP108     -0.2456
    135  OD2      -14.7740  -33.8150  -21.6650 O.co2 108  ASP108     -0.2456
    136  N        -14.4940  -41.5270  -24.5380 N.3   111  SER111     -0.1217
    137  CA       -15.3810  -41.1430  -25.6300 C.3   111  SER111      0.1889
    138  C        -14.6370  -40.6900  -26.8640 C.2   111  SER111      0.2288
    139  O        -15.0130  -41.0410  -27.9590 O.2   111  SER111     -0.2866
    140  CB       -16.3650  -40.0370  -25.1900 C.3   111  SER111      0.2089
    141  OG       -17.1210  -39.6290  -26.3150 O.3   111  SER111     -0.2183
    142  N        -13.0560  -43.9040  -28.2990 N.3   114  PHE114     -0.1227
    143  CA       -14.1130  -44.5870  -29.0470 C.3   114  PHE114      0.1736
    144  C        -14.3470  -44.0130  -30.4570 C.2   114  PHE114      0.2595
    145  O        -14.3680  -44.7640  -31.4330 O.2   114  PHE114     -0.2718
    146  CB       -15.4200  -44.5720  -28.2360 C.3   114  PHE114      0.0547
    147  CG       -16.5980  -45.0800  -28.9960 C.ar  114  PHE114     -0.0202
    148  CD1      -16.7560  -46.4470  -29.2420 C.ar  114  PHE114     -0.0042
    149  CD2      -17.5680  -44.1860  -29.4680 C.ar  114  PHE114     -0.0042
    150  CE1      -17.8740  -46.9260  -29.9700 C.ar  114  PHE114     -0.0003
    151  CE2      -18.6950  -44.6540  -30.1670 C.ar  114  PHE114     -0.0003
    152  CZ       -18.8460  -46.0130  -30.4260 C.ar  114  PHE114     -0.0000
    153  N        -14.5220  -42.6890  -30.5700 N.am  115  HIS115     -0.1975
    154  CA       -14.8260  -42.0800  -31.8910 C.3   115  HIS115      0.1656
    155  C        -13.6380  -41.9950  -32.8430 C.2   115  HIS115      0.2291
    156  O        -13.8270  -41.9590  -34.0720 O.2   115  HIS115     -0.2864
    157  CB       -15.5110  -40.7010  -31.7630 C.3   115  HIS115      0.0771
    158  CG       -16.8130  -40.7500  -31.0250 C.ar  115  HIS115      0.0820
    159  ND1      -17.9920  -41.2000  -31.6020 N.ar  115  HIS115     -0.2267
    160  CD2      -17.1110  -40.4360  -29.7400 C.ar  115  HIS115      0.1154
    161  CE1      -18.9620  -41.1470  -30.6990 C.ar  115  HIS115      0.1986
    162  NE2      -18.4540  -40.6900  -29.5610 N.ar  115  HIS115     -0.2212
    163  N        -19.0330  -44.8280  -34.3500 N.3   121  LEU121     -0.1245
    164  CA       -20.4020  -44.8990  -34.8200 C.3   121  LEU121      0.1561
    165  C        -20.4670  -45.3630  -36.2640 C.2   121  LEU121      0.2260
    166  O        -21.5550  -45.5640  -36.8240 O.2   121  LEU121     -0.2867
    167  CB       -21.1000  -43.5490  -34.6210 C.3   121  LEU121      0.0270
    168  CG       -21.4500  -43.1540  -33.1910 C.3   121  LEU121      0.0019
    169  CD1      -22.0740  -41.7490  -33.1540 C.3   121  LEU121      0.0001
    170  CD2      -22.3830  -44.1690  -32.5240 C.3   121  LEU121      0.0001
    171  N        -20.7650  -41.6100  -39.9680 N.3   125  VAL125     -0.1231
    172  CA       -20.7580  -40.6380  -38.8970 C.3   125  VAL125      0.1692
    173  C        -19.3440  -40.1470  -38.5740 C.2   125  VAL125      0.2591
    174  O        -19.1270  -38.9560  -38.3860 O.2   125  VAL125     -0.2718
    175  CB       -21.3950  -41.2270  -37.6450 C.3   125  VAL125      0.0266
    176  CG1      -21.2860  -40.2570  -36.4630 C.3   125  VAL125      0.0020
    177  CG2      -22.8510  -41.5970  -37.9270 C.3   125  VAL125      0.0020
    178  N        -18.3820  -41.0560  -38.5030 N.am  126  GLU126     -0.1979
    179  CA       -17.0220  -40.6320  -38.1930 C.3   126  GLU126      0.1602
    180  C        -16.3040  -40.1740  -39.4560 C.2   126  GLU126      0.2287
    181  O        -15.4800  -40.9120  -40.0100 O.2   126  GLU126     -0.2864
    182  CB       -16.2480  -41.7470  -37.4780 C.3   126  GLU126      0.0415
    183  CG       -17.0270  -42.4400  -36.3260 C.3   126  GLU126      0.1163
    184  CD       -17.2990  -41.5310  -35.1460 C.2   126  GLU126      0.3649
    185  OE1      -16.9860  -40.3480  -35.2490 O.co2 126  GLU126     -0.2457
    186  OE2      -17.8280  -41.9890  -34.0970 O.co2 126  GLU126     -0.2457
    187  N        -18.6120  -46.2760  -20.2050 N.3   176  PHE176     -0.1241
    188  CA       -17.9680  -46.1290  -21.5130 C.3   176  PHE176      0.1605
    189  C        -16.7440  -47.0300  -21.6860 C.2   176  PHE176      0.2264
    190  O        -16.5560  -47.6450  -22.7490 O.2   176  PHE176     -0.2867
    191  CB       -17.5990  -44.6710  -21.7870 C.3   176  PHE176      0.0534
    192  CG       -17.9100  -44.2270  -23.1930 C.ar  176  PHE176     -0.0203
    193  CD1      -18.3820  -42.9440  -23.4390 C.ar  176  PHE176     -0.0042
    194  CD2      -17.7600  -45.0940  -24.2640 C.ar  176  PHE176     -0.0042
    195  CE1      -18.6810  -42.5190  -24.7610 C.ar  176  PHE176     -0.0003
    196  CE2      -18.0760  -44.6870  -25.5860 C.ar  176  PHE176     -0.0003
    197  CZ       -18.5350  -43.3940  -25.8260 C.ar  176  PHE176     -0.0000
@<TRIPOS>BOND
     1   181   180    2
     2   171   172    1
     3   180   179    1
     4   172   173    1
     5   172   175    1
     6    70    69    2
     7   173   178   am
     8   173   174    2
     9   178   179    1
    10   179   182    1
    11    69    68    1
    12   177   175    1
    13   175   176    1
    14   182   183    1
    15    71    68    1
    16    71    72    1
    17    68    67    1
    18   166   165    2
    19    72    73    1
    20   183   184    1
    21   165   164    1
    22    67    59   am
    23    73    74    1
    24   185   184   ar
    25   184   186   ar
    26    52    51    2
    27   164   167    1
    28   164   163    1
    29    59    60    2
    30    59    58    1
    31    57    58    1
    32   167   168    1
    33    74    75    1
    34    51    50    1
    35    65    63   ar
    36    65    66   ar
    37   156   155    2
    38    63    62   ar
    39    58    61    1
    40    66    64   ar
    41   168   169    1
    42   168   170    1
    43    62    64   ar
    44    62    61    1
    45    50    49    1
    46    50    53    1
    47   155   154    1
    48   154   157    1
    49   154   153    1
    50    53    54    1
    51   157   158    1
    52   159   158   ar
    53   159   161   ar
    54   145   144    2
    55    56    54    1
    56   158   160   ar
    57   161   162   ar
    58    54    55    1
    59   153   144   am
    60   144   143    1
    61   152   151   ar
    62   152   150   ar
    63   151   149   ar
    64   150   148   ar
    65   160   162   ar
    66    76    77    1
    67   149   147   ar
    68   148   147   ar
    69   143   142    1
    70   143   146    1
    71   147   146    1
    72    77    78    1
    73    77    80    1
    74    82    80    1
    75     6     5    1
    76    88    87    1
    77   139   138    2
    78    78    79    2
    79    78    83   am
    80    80    81    1
    81     5     7    1
    82     5     2    1
    83    83    84    1
    84    89    87    1
    85   138   137    1
    86    87    84    1
    87     2     1    1
    88     2     3    1
    89    84    85    1
    90   141   140    1
    91   197   196   ar
    92   197   195   ar
    93   137   140    1
    94   137   136    1
    95   196   194   ar
    96     3     4    2
    97    85    86    2
    98    85    90   am
    99   195   193   ar
   100   105   103   ar
   101   131   130    2
   102   194   192   ar
   103    92    91    1
   104    92    93    2
   105    91    90    1
   106    91    94    1
   107    90    96    1
   108     9     8    1
   109     9    10    1
   110    36    37    1
   111    36    35    1
   112   193   192   ar
   113    18    17    1
   114    18    12    1
   115    28    26   ar
   116    28    29   ar
   117   192   191    1
   118   103   104   ar
   119   103   102    1
   120    26    24   ar
   121   130   129    1
   122    37    31    1
   123   190   189    2
   124    30    29    1
   125    94    95    1
   126    96    95    1
   127    29    27   ar
   128    10    12   am
   129    10    11    2
   130    17    16    1
   131   102   101    1
   132    12    13    1
   133    35    32    1
   134    97    98    1
   135   132   129    1
   136   132   133    1
   137   129   128    1
   138    24    23    1
   139    24    25   ar
   140    23    20    1
   141   133   135   ar
   142   133   134   ar
   143   191   188    1
   144   189   188    1
   145    27    25   ar
   146    31    32    1
   147    31    21   am
   148    19    20    1
   149    19    14   am
   150   188   187    1
   151    98   101    1
   152    98    99    1
   153    16    13    1
   154    32    33    1
   155    20    21    1
   156    13    14    1
   157    21    22    2
   158    14    15    2
   159    99   106   am
   160    99   100    2
   161    33    34    2
   162   111   110    1
   163   106   107    1
   164   122   121    2
   165   107   110    1
   166   107   108    1
   167   121   120    1
   168    47    46    1
   169   127   125   ar
   170   123   120    1
   171   123   124    1
   172   125   126   ar
   173   125   124    1
   174    44    43    1
   175    44    45    1
   176   120   119    1
   177    38    39    1
   178   108   112   am
   179   108   109    2
   180   112   113    1
   181    43    42    1
   182    46    45    2
   183    46    48    1
   184    42    39    1
   185    39    40    1
   186   117   116    1
   187   116   113    1
   188   116   118    1
   189   113   114    1
   190    40    41    2
   191   114   115    2
