@<TRIPOS>MOLECULE
tmp/3erkA00.pdb
 132 119 0 0 0
SMALL
GASTEIGER

@<TRIPOS>ATOM
      1  N        -18.9720   21.6880   38.3690 N.3    24  ILE24      -0.1245
      2  CA       -18.5560   21.2560   39.7030 C.3    24  ILE24       0.1561
      3  C        -17.2550   21.9310   40.1240 C.2    24  ILE24       0.2260
      4  O        -17.1210   22.3380   41.2760 O.2    24  ILE24      -0.2867
      5  CB       -18.3480   19.7360   39.7660 C.3    24  ILE24       0.0252
      6  CG1      -19.7050   19.0310   39.8040 C.3    24  ILE24       0.0019
      7  CG2      -17.5160   19.3830   40.9890 C.3    24  ILE24       0.0019
      8  CD1      -19.6370   17.5840   40.2110 C.3    24  ILE24       0.0001
      9  N        -14.5970   19.5650   36.0290 N.3    32  VAL32      -0.1245
     10  CA       -15.5460   18.4960   36.3170 C.3    32  VAL32       0.1561
     11  C        -16.9880   18.9820   36.3360 C.2    32  VAL32       0.2260
     12  O        -17.2940   20.0440   36.8720 O.2    32  VAL32      -0.2867
     13  CB       -15.2170   17.8150   37.6760 C.3    32  VAL32       0.0252
     14  CG1      -16.1470   16.6490   37.9320 C.3    32  VAL32       0.0019
     15  CG2      -13.7930   17.3350   37.6690 C.3    32  VAL32       0.0019
     16  N        -20.2350   11.6520   36.8830 N.3    45  ALA45      -0.1245
     17  CA       -19.2760   12.7310   37.0500 C.3    45  ALA45       0.1562
     18  C        -18.3590   12.6070   35.8480 C.2    45  ALA45       0.2260
     19  O        -17.9780   11.5010   35.4670 O.2    45  ALA45      -0.2867
     20  CB       -18.4910   12.5600   38.3500 C.3    45  ALA45       0.0290
     21  N        -14.8520   14.4330   33.8440 N.3    47  LYS47      -0.1245
     22  CA       -13.7310   15.3470   33.9310 C.3    47  LYS47       0.1561
     23  C        -13.0830   15.5510   32.5680 C.2    47  LYS47       0.2260
     24  O        -12.6860   14.6000   31.9030 O.2    47  LYS47      -0.2867
     25  CB       -12.6840   14.8280   34.9180 C.3    47  LYS47       0.0271
     26  CG       -11.3460   15.5660   34.8480 C.3    47  LYS47       0.0035
     27  CD       -10.7520   15.7580   36.2240 C.3    47  LYS47       0.0206
     28  CE        -9.3690   15.1480   36.3070 C.3    47  LYS47       0.1093
     29  NZ        -9.1540   14.4410   37.6020 N.3    47  LYS47      -0.1314
     30  N         -2.4280    7.0730   35.4960 N.3    64  GLU64      -0.1245
     31  CA        -3.6380    6.9270   36.2900 C.3    64  GLU64       0.1567
     32  C         -4.7540    6.2140   35.5340 C.2    64  GLU64       0.2260
     33  O         -5.5390    5.4860   36.1360 O.2    64  GLU64      -0.2867
     34  CB        -4.1320    8.2870   36.7830 C.3    64  GLU64       0.0388
     35  CG        -5.6250    8.3150   37.0680 C.3    64  GLU64       0.1160
     36  CD        -6.0310    9.4230   38.0280 C.2    64  GLU64       0.3649
     37  OE1       -5.4670   10.5420   37.9330 O.co2  64  GLU64      -0.2457
     38  OE2       -6.9210    9.1650   38.8750 O.co2  64  GLU64      -0.2457
     39  N        -12.6040    4.1100   43.1210 N.3    77  ILE77      -0.1245
     40  CA       -13.4310    4.5860   42.0180 C.3    77  ILE77       0.1561
     41  C        -13.0270    3.9670   40.6800 C.2    77  ILE77       0.2260
     42  O        -11.8420    3.8130   40.3870 O.2    77  ILE77      -0.2867
     43  CB       -13.3520    6.1230   41.9030 C.3    77  ILE77       0.0252
     44  CG1      -14.5420    6.6410   41.1000 C.3    77  ILE77       0.0019
     45  CG2      -12.0380    6.5400   41.2390 C.3    77  ILE77       0.0019
     46  CD1      -15.7650    6.9580   41.9400 C.3    77  ILE77       0.0001
     47  N        -13.2970   11.6430   31.0070 N.3    96  ILE96      -0.1245
     48  CA       -13.3470   10.4060   31.7590 C.3    96  ILE96       0.1561
     49  C        -14.6230   10.4600   32.5810 C.2    96  ILE96       0.2260
     50  O        -14.9400   11.4850   33.1780 O.2    96  ILE96      -0.2867
     51  CB       -12.1130   10.2580   32.6640 C.3    96  ILE96       0.0252
     52  CG1      -10.8510   10.2450   31.8010 C.3    96  ILE96       0.0019
     53  CG2      -12.1830    8.9480   33.4380 C.3    96  ILE96       0.0019
     54  CD1       -9.9230   11.4240   32.0210 C.3    96  ILE96       0.0001
     55  N        -16.9990    8.7540   35.6280 N.3    98  GLN98      -0.1231
     56  CA       -16.9700    7.9380   36.8330 C.3    98  GLN98       0.1698
     57  C        -18.3120    8.0760   37.5320 C.2    98  GLN98       0.2592
     58  O        -19.0660    9.0120   37.2590 O.2    98  GLN98      -0.2718
     59  CB       -15.8880    8.4280   37.7930 C.3    98  GLN98       0.0381
     60  CG       -14.4630    8.0880   37.4120 C.3    98  GLN98       0.0905
     61  CD       -13.4420    8.7920   38.3110 C.2    98  GLN98       0.2608
     62  OE1      -13.8040    9.5790   39.1960 O.2    98  GLN98      -0.2717
     63  NE2      -12.1630    8.5110   38.0860 N.am   98  GLN98      -0.0878
     64  N        -18.6020    7.1470   38.4370 N.am   99  ASP99      -0.1960
     65  CA       -19.8400    7.1900   39.2020 C.3    99  ASP99       0.1840
     66  C        -19.9040    8.5430   39.8860 C.2    99  ASP99       0.2622
     67  O        -18.8750    9.1400   40.2090 O.2    99  ASP99      -0.2715
     68  CB       -19.8330    6.1270   40.2910 C.3    99  ASP99       0.1450
     69  CG       -20.1820    4.7570   39.7770 C.2    99  ASP99       0.3671
     70  OD1      -20.4780    4.6180   38.5720 O.co2  99  ASP99      -0.2456
     71  OD2      -20.1590    3.8140   40.5970 O.co2  99  ASP99      -0.2456
     72  N        -21.1140    9.0160   40.1270 N.am  100  LEU100     -0.1963
     73  CA       -21.2830   10.2910   40.7920 C.3   100  LEU100      0.1728
     74  C        -21.2090   10.0630   42.2900 C.2   100  LEU100      0.2616
     75  O        -22.0120    9.3200   42.8550 O.2   100  LEU100     -0.2715
     76  CB       -22.6370   10.9010   40.4360 C.3   100  LEU100      0.0311
     77  CG       -23.0070   12.2360   41.0830 C.3   100  LEU100      0.0022
     78  CD1      -21.8190   13.1920   41.0750 C.3   100  LEU100      0.0001
     79  CD2      -24.1800   12.8360   40.3160 C.3   100  LEU100      0.0001
     80  N        -20.2330   10.6830   42.9320 N.am  101  MET101     -0.1977
     81  CA       -20.1050   10.5520   44.3640 C.3   101  MET101      0.1605
     82  C        -20.4080   11.9490   44.8600 C.2   101  MET101      0.2287
     83  O        -19.6920   12.8930   44.5560 O.2   101  MET101     -0.2864
     84  CB       -18.6880   10.1240   44.7440 C.3   101  MET101      0.0413
     85  CG       -18.2770    8.7530   44.2080 C.3   101  MET101      0.0598
     86  SD       -19.2830    7.3780   44.8600 S.3   101  MET101     -0.1393
     87  CE       -18.4410    6.9820   46.4060 C.3   101  MET101      0.0692
     88  N        -17.1020   14.0360   49.7530 N.3   104  ASP104     -0.1239
     89  CA       -15.8280   13.4070   50.0850 C.3   104  ASP104      0.1674
     90  C        -15.5590   13.6770   51.5510 C.2   104  ASP104      0.2266
     91  O        -16.1840   14.5490   52.1380 O.2   104  ASP104     -0.2867
     92  CB       -14.7010   13.9800   49.2170 C.3   104  ASP104      0.1410
     93  CG       -14.3800   15.4360   49.5340 C.2   104  ASP104      0.3668
     94  OD1      -14.2670   15.7900   50.7240 O.co2 104  ASP104     -0.2456
     95  OD2      -14.2280   16.2360   48.5850 O.co2 104  ASP104     -0.2456
     96  N        -14.9720   17.4570   52.8590 N.3   107  LYS107     -0.1245
     97  CA       -16.1430   18.3010   53.0110 C.3   107  LYS107      0.1561
     98  C        -16.9610   17.8190   54.1890 C.2   107  LYS107      0.2260
     99  O        -17.4680   18.6120   54.9670 O.2   107  LYS107     -0.2867
    100  CB       -16.9860   18.2650   51.7370 C.3   107  LYS107      0.0271
    101  CG       -16.4980   19.2250   50.6580 C.3   107  LYS107      0.0035
    102  CD       -16.1940   18.5230   49.3290 C.3   107  LYS107      0.0206
    103  CE       -17.3020   17.5480   48.8960 C.3   107  LYS107      0.1093
    104  NZ       -16.9550   16.7700   47.6540 N.3   107  LYS107     -0.1314
    105  N         -9.8270   14.6160   51.1160 N.3   146  SER146     -0.1202
    106  CA       -10.4220   15.0600   49.8630 C.3   146  SER146      0.2020
    107  C        -10.3070   14.0090   48.7590 C.2   146  SER146      0.2618
    108  O        -10.9730   14.1120   47.7230 O.2   146  SER146     -0.2717
    109  CB        -9.7620   16.3510   49.4110 C.3   146  SER146      0.2103
    110  OG        -8.6050   16.0560   48.6680 O.3   146  SER146     -0.2182
    111  N         -9.4690   12.9980   48.9820 N.am  147  ASN147     -0.1974
    112  CA        -9.2740   11.9500   47.9980 C.3   147  ASN147      0.1688
    113  C        -10.0640   10.6990   48.3250 C.2   147  ASN147      0.2292
    114  O         -9.8280    9.6420   47.7500 O.2   147  ASN147     -0.2864
    115  CB        -7.7950   11.6040   47.8670 C.3   147  ASN147      0.1181
    116  CG        -7.0820   12.4850   46.8670 C.2   147  ASN147      0.2629
    117  OD1       -5.8610   12.6020   46.8810 O.2   147  ASN147     -0.2716
    118  ND2       -7.8480   13.1130   45.9880 N.am  147  ASN147     -0.0877
    119  N        -13.8590    9.5730   48.2470 N.3   149  LEU149     -0.1245
    120  CA       -15.2200    9.9050   47.8420 C.3   149  LEU149      0.1561
    121  C        -16.2520    9.1900   48.6920 C.2   149  LEU149      0.2260
    122  O        -16.0330    8.0730   49.1650 O.2   149  LEU149     -0.2867
    123  CB       -15.4370    9.5550   46.3670 C.3   149  LEU149      0.0270
    124  CG       -14.4140   10.1880   45.4190 C.3   149  LEU149      0.0019
    125  CD1      -14.4450    9.5010   44.0670 C.3   149  LEU149      0.0001
    126  CD2      -14.7040   11.6620   45.2860 C.3   149  LEU149      0.0001
    127  N         -9.8560    7.7400   45.4140 N.3   159  CYS159     -0.1235
    128  CA        -9.6950    8.2420   44.0590 C.3   159  CYS159      0.1677
    129  C         -8.3890    8.9940   43.9800 C.2   159  CYS159      0.2270
    130  O         -7.6200    9.0020   44.9350 O.2   159  CYS159     -0.2867
    131  CB       -10.8540    9.1720   43.6750 C.3   159  CYS159      0.0956
    132  SG       -10.8210   10.8120   44.4530 S.3   159  CYS159     -0.0801
@<TRIPOS>BOND
     1    47    48    1
     2    48    49    1
     3    48    51    1
     4    52    54    1
     5    52    51    1
     6    24    23    2
     7    23    22    1
     8    49    50    2
     9    51    53    1
    10    21    22    1
    11    22    25    1
    12    26    25    1
    13    26    27    1
    14    19    18    2
    15    30    31    1
    16    32    33    2
    17    32    31    1
    18    55    56    1
    19    18    17    1
    20     9    10    1
    21    27    28    1
    22    31    34    1
    23    28    29    1
    24    10    11    1
    25    10    13    1
    26    11    12    2
    27    34    35    1
    28    56    57    1
    29    56    59    1
    30    16    17    1
    31    17    20    1
    32    35    36    1
    33    58    57    2
    34    60    59    1
    35    60    61    1
    36    57    64   am
    37    15    13    1
    38    13    14    1
    39    37    36   ar
    40    36    38   ar
    41    63    61   am
    42    61    62    2
    43     1     2    1
    44    64    65    1
    45    70    69   ar
    46    65    66    1
    47    65    68    1
    48     2     5    1
    49     2     3    1
    50     5     6    1
    51     5     7    1
    52    69    68    1
    53    69    71   ar
    54     6     8    1
    55    66    72   am
    56    66    67    2
    57     3     4    2
    58    72    73    1
    59    79    77    1
    60    42    41    2
    61    76    73    1
    62    76    77    1
    63    41    40    1
    64    73    74    1
    65    78    77    1
    66    44    43    1
    67    44    46    1
    68    45    43    1
    69    43    40    1
    70    40    39    1
    71    74    75    2
    72    74    80   am
    73    80    81    1
    74   131   128    1
    75   131   132    1
    76   129   128    1
    77   129   130    2
    78   128   127    1
    79   125   124    1
    80    85    84    1
    81    85    86    1
    82    81    84    1
    83    81    82    1
    84    83    82    2
    85    86    87    1
    86   126   124    1
    87   124   123    1
    88   118   116   am
    89   123   120    1
    90   116   117    2
    91   116   115    1
    92   104   103    1
    93   108   107    2
    94   114   113    2
    95   120   119    1
    96   120   121    1
    97   115   112    1
    98   112   113    1
    99   112   111    1
   100    95    93   ar
   101   110   109    1
   102   121   122    2
   103   107   111   am
   104   107   106    1
   105   103   102    1
   106    92    93    1
   107    92    89    1
   108   102   101    1
   109   109   106    1
   110    93    94   ar
   111    88    89    1
   112   106   105    1
   113    89    90    1
   114   101   100    1
   115    90    91    2
   116   100    97    1
   117    96    97    1
   118    97    98    1
   119    98    99    2
