@<TRIPOS>MOLECULE
tmp/3ernD00.pdb
 82 78 0 0 0
SMALL
GASTEIGER

@<TRIPOS>ATOM
      1  N         57.6320  -52.3030   16.5480 N.3   101  ALA101     -0.1231
      2  CA        57.1590  -51.6090   17.7620 C.3   101  ALA101      0.1694
      3  C         55.9850  -52.3370   18.4250 C.2   101  ALA101      0.2591
      4  O         55.0560  -52.7610   17.7510 O.2   101  ALA101     -0.2718
      5  CB        56.7540  -50.1740   17.4140 C.3   101  ALA101      0.0304
      6  N         56.0230  -52.4810   19.7500 N.am  102  GLN102     -0.1979
      7  CA        54.9230  -53.1270   20.4770 C.3   102  GLN102      0.1601
      8  C         53.7400  -52.1840   20.5790 C.2   102  GLN102      0.2287
      9  O         52.5830  -52.6040   20.5020 O.2   102  GLN102     -0.2864
     10  CB        55.3620  -53.5620   21.8800 C.3   102  GLN102      0.0394
     11  CG        54.3620  -54.5130   22.5780 C.3   102  GLN102      0.0908
     12  CD        54.2780  -55.8630   21.9060 C.2   102  GLN102      0.2608
     13  OE1       55.2880  -56.4270   21.4980 O.2   102  GLN102     -0.2717
     14  NE2       53.0680  -56.3850   21.7690 N.am  102  GLN102     -0.0878
     15  N         53.0800  -47.4710   20.3210 N.3   104  PRO104     -0.2102
     16  CA        51.6540  -47.3570   20.0160 C.3   104  PRO104      0.1504
     17  C         51.2380  -48.0330   18.7160 C.2   104  PRO104      0.2576
     18  O         52.0790  -48.5210   17.9620 O.2   104  PRO104     -0.2718
     19  CB        51.4350  -45.8460   19.9130 C.3   104  PRO104      0.0282
     20  CG        52.7580  -45.2780   19.6140 C.3   104  PRO104      0.0208
     21  CD        53.7710  -46.1730   20.2340 C.3   104  PRO104      0.0893
     22  N         49.9280  -48.0540   18.4980 N.am  105  LYS105     -0.1966
     23  CA        49.2880  -48.6120   17.3230 C.3   105  LYS105      0.1728
     24  C         49.6380  -47.7300   16.1200 C.2   105  LYS105      0.2616
     25  O         49.3370  -46.5440   16.1180 O.2   105  LYS105     -0.2715
     26  CB        47.7710  -48.6290   17.5690 C.3   105  LYS105      0.0311
     27  CG        46.9520  -49.4830   16.6140 C.3   105  LYS105      0.0038
     28  CD        47.0820  -50.9540   16.9710 C.3   105  LYS105      0.0206
     29  CE        46.2770  -51.8250   16.0360 C.3   105  LYS105      0.1093
     30  NZ        46.3730  -53.2380   16.5000 N.3   105  LYS105     -0.1314
     31  N         50.2960  -48.3100   15.1180 N.am  106  MET106     -0.1963
     32  CA        50.7540  -47.5520   13.9420 C.3   106  MET106      0.1736
     33  C         49.7120  -47.4970   12.8400 C.2   106  MET106      0.2616
     34  O         49.6470  -46.5190   12.0880 O.2   106  MET106     -0.2715
     35  CB        52.0410  -48.1500   13.3540 C.3   106  MET106      0.0427
     36  CG        53.2300  -48.1820   14.2810 C.3   106  MET106      0.0599
     37  SD        53.7920  -46.5550   14.7650 S.3   106  MET106     -0.1393
     38  CE        54.9210  -46.9850   16.0900 C.3   106  MET106      0.0692
     39  N         48.9090  -48.5550   12.7490 N.am  107  LEU107     -0.1977
     40  CA        48.0140  -48.7780   11.6100 C.3   107  LEU107      0.1596
     41  C         47.1870  -47.5670   11.1590 C.2   107  LEU107      0.2287
     42  O         47.1670  -47.2810    9.9700 O.2   107  LEU107     -0.2864
     43  CB        47.1240  -50.0090   11.8180 C.3   107  LEU107      0.0297
     44  CG        46.2900  -50.4590   10.6120 C.3   107  LEU107      0.0022
     45  CD1       47.1670  -50.7780    9.4000 C.3   107  LEU107      0.0001
     46  CD2       45.4030  -51.6480   10.9670 C.3   107  LEU107      0.0001
     47  N         49.5640  -45.0520    9.2230 N.3   110  ILE110     -0.1245
     48  CA        50.3710  -45.5020    8.0900 C.3   110  ILE110      0.1561
     49  C         49.9730  -44.8060    6.7750 C.2   110  ILE110      0.2260
     50  O         50.8500  -44.2850    6.0930 O.2   110  ILE110     -0.2867
     51  CB        50.4360  -47.0420    7.9900 C.3   110  ILE110      0.0252
     52  CG1       51.3680  -47.5810    9.0800 C.3   110  ILE110      0.0019
     53  CG2       50.9430  -47.4940    6.6090 C.3   110  ILE110      0.0019
     54  CD1       51.3290  -49.0840    9.2370 C.3   110  ILE110      0.0001
     55  N         53.8060  -52.2280    9.8480 N.3   132  ALA132     -0.1231
     56  CA        54.2900  -52.2780   11.2250 C.3   132  ALA132      0.1694
     57  C         54.0500  -53.6600   11.8080 C.2   132  ALA132      0.2593
     58  O         53.1120  -54.3570   11.4120 O.2   132  ALA132     -0.2718
     59  CB        53.6380  -51.2260   12.0320 C.3   132  ALA132      0.0304
     60  N         54.9410  -54.0860   12.7030 N.am  133  THR133     -0.1939
     61  CA        54.8260  -55.3930   13.3540 C.3   133  THR133      0.2028
     62  C         55.2740  -55.2870   14.8080 C.2   133  THR133      0.2642
     63  O         56.0890  -54.4310   15.1400 O.2   133  THR133     -0.2714
     64  CB        55.6640  -56.4660   12.6130 C.3   133  THR133      0.1808
     65  OG1       55.3170  -57.7710   13.0800 O.3   133  THR133     -0.2208
     66  CG2       57.1750  -56.2720   12.8270 C.3   133  THR133      0.0379
     67  N         54.7170  -56.1300   15.6730 N.am  134  THR134     -0.1950
     68  CA        55.2250  -56.2660   17.0590 C.3   134  THR134      0.1897
     69  C         56.2390  -57.4060   17.0610 C.2   134  THR134      0.2313
     70  O         56.3990  -58.1240   16.0490 O.2   134  THR134     -0.2863
     71  CB        54.1170  -56.6420   18.0790 C.3   134  THR134      0.1794
     72  OG1       53.7140  -58.0100   17.8720 O.3   134  THR134     -0.2208
     73  CG2       52.8990  -55.7300   17.9720 C.3   134  THR134      0.0378
     74  N         55.8510  -59.6000   19.5700 N.3   136  GLU136     -0.1245
     75  CA        55.0630  -60.4640   20.4530 C.3   136  GLU136      0.1567
     76  C         55.5370  -60.3910   21.9120 C.2   136  GLU136      0.2260
     77  O         55.6370  -61.4140   22.5820 O.2   136  GLU136     -0.2867
     78  CB        55.0150  -61.9170   19.9460 C.3   136  GLU136      0.0388
     79  CG        54.2500  -62.0860   18.6250 C.3   136  GLU136      0.1160
     80  CD        53.8920  -63.5200   18.2720 C.2   136  GLU136      0.3649
     81  OE1       54.1490  -64.4670   19.0640 O.co2 136  GLU136     -0.2457
     82  OE2       53.3370  -63.7080   17.1660 O.co2 136  GLU136     -0.2457
@<TRIPOS>BOND
     1    50    49    2
     2    53    51    1
     3    49    48    1
     4    51    48    1
     5    51    52    1
     6    48    47    1
     7    52    54    1
     8    45    44    1
     9    55    56    1
    10    42    41    2
    11    44    46    1
    12    44    43    1
    13    41    40    1
    14    56    57    1
    15    56    59    1
    16    58    57    2
    17    40    43    1
    18    40    39    1
    19    57    60   am
    20    34    33    2
    21    64    66    1
    22    64    65    1
    23    64    61    1
    24    60    61    1
    25    39    33   am
    26    33    32    1
    27    61    62    1
    28    35    32    1
    29    35    36    1
    30    32    31    1
    31    36    37    1
    32    37    38    1
    33    62    63    2
    34    62    67   am
    35    31    24   am
    36    67    68    1
    37    29    30    1
    38    29    28    1
    39    70    69    2
    40    25    24    2
    41    24    23    1
    42     1     2    1
    43    27    28    1
    44    27    26    1
    45    68    69    1
    46    68    71    1
    47    82    80   ar
    48    23    26    1
    49    23    22    1
    50     5     2    1
    51     4     3    2
    52     2     3    1
    53    72    71    1
    54    18    17    2
    55    73    71    1
    56    80    79    1
    57    80    81   ar
    58     3     6   am
    59    22    17   am
    60    79    78    1
    61    17    16    1
    62    74    75    1
    63    20    19    1
    64    20    21    1
    65     6     7    1
    66    19    16    1
    67    78    75    1
    68    16    15    1
    69    21    15    1
    70    75    76    1
    71     7     8    1
    72     7    10    1
    73     9     8    2
    74    13    12    2
    75    14    12   am
    76    10    11    1
    77    12    11    1
    78    76    77    2
