@<TRIPOS>MOLECULE
tmp/3errB00.pdb
 177 167 0 0 0
SMALL
GASTEIGER

@<TRIPOS>ATOM
      1  N         54.3920   10.8300   48.8300 N.3   332  THR332     -0.1218
      2  CA        53.4330   11.1130   49.9100 C.3   332  THR332      0.1862
      3  C         52.0720   11.4310   49.2830 C.2   332  THR332      0.2287
      4  O         51.9810   12.0440   48.2010 O.2   332  THR332     -0.2866
      5  CB        53.9040   12.3330   50.7980 C.3   332  THR332      0.1770
      6  OG1       52.8490   12.7320   51.6640 O.3   332  THR332     -0.2211
      7  CG2       54.3250   13.4930   49.9440 C.3   332  THR332      0.0375
      8  N         50.2550   13.5650   50.1190 N.3   334  GLU334     -0.1245
      9  CA        50.1090   15.0330   50.0740 C.3   334  GLU334      0.1567
     10  C         50.0450   15.5230   48.5980 C.2   334  GLU334      0.2260
     11  O         49.4110   16.5270   48.2930 O.2   334  GLU334     -0.2867
     12  CB        51.2370   15.7140   50.8720 C.3   334  GLU334      0.0388
     13  CG        51.2450   17.2580   50.8420 C.3   334  GLU334      0.1160
     14  CD        52.6540   17.8130   50.9840 C.2   334  GLU334      0.3649
     15  OE1       53.5280   17.0840   51.5280 O.co2 334  GLU334     -0.2457
     16  OE2       52.9020   18.9590   50.5570 O.co2 334  GLU334     -0.2457
     17  N         60.1970    6.6510   46.9470 N.3   363  ARG363     -0.1245
     18  CA        61.2550    7.6410   46.8420 C.3   363  ARG363      0.1563
     19  C         62.4660    7.0330   46.1630 C.2   363  ARG363      0.2260
     20  O         62.7510    5.8530   46.3760 O.2   363  ARG363     -0.2867
     21  CB        61.6430    8.1800   48.2250 C.3   363  ARG363      0.0307
     22  CG        60.4590    8.4650   49.0980 C.3   363  ARG363      0.0489
     23  CD        60.6750    9.7210   49.9780 C.3   363  ARG363      0.2205
     24  NE        59.3850   10.2770   50.4500 N.pl3 363  ARG363     -0.0865
     25  CZ        59.2390   10.9800   51.5670 C.cat 363  ARG363      0.5346
     26  NH1       60.3100   11.1970   52.3220 N.pl3 363  ARG363      0.1354
     27  NH2       58.0460   11.4560   51.9320 N.pl3 363  ARG363      0.1354
     28  N         65.3260    8.1070   46.7840 N.3   365  GLU365     -0.1245
     29  CA        66.4280    8.3060   47.7200 C.3   365  GLU365      0.1567
     30  C         67.7460    8.7420   46.9950 C.2   365  GLU365      0.2260
     31  O         68.8530    8.2740   47.3380 O.2   365  GLU365     -0.2867
     32  CB        66.6270    7.0560   48.5920 C.3   365  GLU365      0.0388
     33  CG        65.5480    6.8930   49.6810 C.3   365  GLU365      0.1160
     34  CD        65.2950    8.2160   50.4860 C.2   365  GLU365      0.3649
     35  OE1       64.1170    8.5390   50.8050 O.co2 365  GLU365     -0.2457
     36  OE2       66.2870    8.9460   50.7750 O.co2 365  GLU365     -0.2457
     37  N         64.9480   -0.9560   58.0270 N.3   376  LEU376     -0.1231
     38  CA        63.6970   -0.3140   57.6220 C.3   376  LEU376      0.1693
     39  C         63.6870    1.2220   57.6700 C.2   376  LEU376      0.2592
     40  O         62.6090    1.8500   57.6210 O.2   376  LEU376     -0.2718
     41  CB        62.5920   -0.8320   58.5270 C.3   376  LEU376      0.0284
     42  CG        62.6670   -2.3500   58.7210 C.3   376  LEU376      0.0019
     43  CD1       61.6410   -2.8040   59.7870 C.3   376  LEU376      0.0001
     44  CD2       62.3520   -2.9870   57.4270 C.3   376  LEU376      0.0001
     45  N         64.8520    1.8490   57.7570 N.am  377  MET377     -0.1965
     46  CA        64.8850    3.2880   57.9750 C.3   377  MET377      0.1736
     47  C         64.6360    4.1220   56.7020 C.2   377  MET377      0.2616
     48  O         64.0000    5.1850   56.7420 O.2   377  MET377     -0.2715
     49  CB        66.1960    3.7040   58.6660 C.3   377  MET377      0.0427
     50  CG        66.3340    3.1350   60.0540 C.3   377  MET377      0.0599
     51  SD        65.0610    3.8150   61.1790 S.3   377  MET377     -0.1393
     52  CE        64.3470    2.3670   61.9080 C.3   377  MET377      0.0692
     53  N         65.1390    3.6620   55.5700 N.am  378  ARG378     -0.1963
     54  CA        65.1110    4.4840   54.3670 C.3   378  ARG378      0.1729
     55  C         65.0030    3.2780   53.4660 C.2   378  ARG378      0.2616
     56  O         65.9490    2.5180   53.3300 O.2   378  ARG378     -0.2715
     57  CB        66.3700    5.3720   54.3220 C.3   378  ARG378      0.0348
     58  CG        66.5090    6.3460   53.1310 C.3   378  ARG378      0.0492
     59  CD        67.4360    7.5310   53.5100 C.3   378  ARG378      0.2205
     60  NE        66.7430    8.4240   54.4550 N.pl3 378  ARG378     -0.0865
     61  CZ        67.1740    9.6130   54.8760 C.cat 378  ARG378      0.5346
     62  NH1       68.3480   10.1280   54.4740 N.pl3 378  ARG378      0.1354
     63  NH2       66.4160   10.2960   55.7310 N.pl3 378  ARG378      0.1354
     64  N         63.8230    3.1030   52.8860 N.am  379  VAL379     -0.1977
     65  CA        63.5130    2.1230   51.8370 C.3   379  VAL379      0.1596
     66  C         62.8510    2.8270   50.6520 C.2   379  VAL379      0.2287
     67  O         62.4090    3.9740   50.7720 O.2   379  VAL379     -0.2864
     68  CB        62.6330    0.9950   52.4000 C.3   379  VAL379      0.0276
     69  CG1       63.4690    0.2000   53.4780 C.3   379  VAL379      0.0022
     70  CG2       61.3180    1.5360   53.0310 C.3   379  VAL379      0.0022
     71  N         57.2430    2.4100   50.5870 N.3   382  PHE382     -0.1241
     72  CA        56.6470    2.2420   51.8850 C.3   382  PHE382      0.1605
     73  C         55.1800    2.6210   51.9290 C.2   382  PHE382      0.2264
     74  O         54.5440    2.9400   50.9160 O.2   382  PHE382     -0.2867
     75  CB        57.4470    3.0140   52.9450 C.3   382  PHE382      0.0534
     76  CG        57.5930    4.5240   52.6970 C.ar  382  PHE382     -0.0203
     77  CD1       58.4780    5.0110   51.7610 C.ar  382  PHE382     -0.0042
     78  CD2       56.9130    5.4350   53.5090 C.ar  382  PHE382     -0.0042
     79  CE1       58.6460    6.3920   51.5840 C.ar  382  PHE382     -0.0003
     80  CE2       57.0540    6.8040   53.3440 C.ar  382  PHE382     -0.0003
     81  CZ        57.9240    7.2780   52.3790 C.ar  382  PHE382     -0.0000
     82  N         52.0880    5.0730   53.8510 N.3   384  LYS384     -0.1245
     83  CA        51.9340    6.2540   54.6710 C.3   384  LYS384      0.1561
     84  C         50.4980    6.7370   54.7780 C.2   384  LYS384      0.2260
     85  O         49.7590    6.7700   53.7660 O.2   384  LYS384     -0.2867
     86  CB        52.8370    7.3200   54.1070 C.3   384  LYS384      0.0271
     87  CG        52.9650    8.6290   54.8810 C.3   384  LYS384      0.0035
     88  CD        53.6950    9.5690   53.9130 C.3   384  LYS384      0.0206
     89  CE        54.7190   10.3280   54.6030 C.3   384  LYS384      0.1093
     90  NZ        54.0710   11.6770   54.9940 N.3   384  LYS384     -0.1314
     91  N         48.6290   10.1140   55.7950 N.3   386  GLU386     -0.1245
     92  CA        49.1200   11.4920   55.7510 C.3   386  GLU386      0.1567
     93  C         47.9580   12.3060   56.2600 C.2   386  GLU386      0.2260
     94  O         46.8670   11.9710   55.9110 O.2   386  GLU386     -0.2867
     95  CB        49.2700   11.8410   54.3010 C.3   386  GLU386      0.0388
     96  CG        49.9270   13.2090   53.9580 C.3   386  GLU386      0.1160
     97  CD        51.1930   13.5220   54.7360 C.2   386  GLU386      0.3649
     98  OE1       51.5600   14.6980   54.6860 O.co2 386  GLU386     -0.2457
     99  OE2       51.8570   12.6430   55.3550 O.co2 386  GLU386     -0.2457
    100  N         63.5490   11.0820   63.0940 N.3   452  GLU452     -0.1231
    101  CA        62.3020   11.6360   62.6570 C.3   452  GLU452      0.1699
    102  C         61.2800   10.5940   62.2570 C.2   452  GLU452      0.2593
    103  O         61.5870    9.6230   61.5860 O.2   452  GLU452     -0.2718
    104  CB        62.4840   12.6140   61.5210 C.3   452  GLU452      0.0402
    105  CG        61.1470   13.2040   61.2120 C.3   452  GLU452      0.1161
    106  CD        61.1400   14.0380   59.9480 C.2   452  GLU452      0.3649
    107  OE1       62.1120   14.8020   59.7830 O.co2 452  GLU452     -0.2457
    108  OE2       60.1610   13.9250   59.1540 O.co2 452  GLU452     -0.2457
    109  N         60.0410   10.8030   62.6710 N.am  453  THR453     -0.1939
    110  CA        58.9470   10.0420   62.1220 C.3   453  THR453      0.2028
    111  C         57.8340   10.9170   61.5170 C.2   453  THR453      0.2642
    112  O         56.9190   10.3640   60.9280 O.2   453  THR453     -0.2714
    113  CB        58.2790    9.1970   63.2590 C.3   453  THR453      0.1808
    114  OG1       58.0120   10.0830   64.3550 O.3   453  THR453     -0.2208
    115  CG2       59.2680    8.1270   63.7590 C.3   453  THR453      0.0379
    116  N         57.7980   12.2370   61.7990 N.am  454  HIS454     -0.1959
    117  CA        56.7020   13.0990   61.3190 C.3   454  HIS454      0.1787
    118  C         57.2800   14.4910   61.1160 C.2   454  HIS454      0.2620
    119  O         58.0880   14.9440   61.9250 O.2   454  HIS454     -0.2715
    120  CB        55.5030   13.3280   62.2890 C.3   454  HIS454      0.0785
    121  CG        54.8350   12.0920   62.7670 C.ar  454  HIS454      0.0821
    122  ND1       55.4630   11.1790   63.5910 N.ar  454  HIS454     -0.2267
    123  CD2       53.5780   11.6190   62.5580 C.ar  454  HIS454      0.1154
    124  CE1       54.6350   10.1710   63.8280 C.ar  454  HIS454      0.1986
    125  NE2       53.4930   10.3990   63.1900 N.ar  454  HIS454     -0.2212
    126  N         56.7660   15.2040   60.1130 N.am  455  SER455     -0.1950
    127  CA        57.1710   16.5690   59.8990 C.3   455  SER455      0.1924
    128  C         55.8950   17.3660   59.7100 C.2   455  SER455      0.2314
    129  O         55.2150   17.2200   58.6550 O.2   455  SER455     -0.2863
    130  CB        58.0250   16.6880   58.6300 C.3   455  SER455      0.2116
    131  OG        58.9280   17.7570   58.8450 O.3   455  SER455     -0.2180
    132  N         50.1830   20.2580   56.3020 N.3   485  ASN485     -0.1240
    133  CA        50.1250   18.8030   56.3920 C.3   485  ASN485      0.1653
    134  C         51.0500   18.2860   57.4940 C.2   485  ASN485      0.2266
    135  O         51.8130   19.0790   58.0400 O.2   485  ASN485     -0.2867
    136  CB        50.5890   18.2110   55.1060 C.3   485  ASN485      0.1155
    137  CG        52.0290   18.5980   54.7870 C.2   485  ASN485      0.2627
    138  OD1       52.2830   19.5460   54.0470 O.2   485  ASN485     -0.2716
    139  ND2       52.9670   17.8610   55.3530 N.am  485  ASN485     -0.0877
    140  N         52.4890   13.8670   58.5860 N.3   487  THR487     -0.1218
    141  CA        52.2250   12.4070   58.6080 C.3   487  THR487      0.1862
    142  C         51.2370   12.0460   59.7210 C.2   487  THR487      0.2287
    143  O         51.1770   12.7090   60.7930 O.2   487  THR487     -0.2866
    144  CB        53.5880   11.6980   58.9030 C.3   487  THR487      0.1770
    145  OG1       54.4940   12.0690   57.8690 O.3   487  THR487     -0.2211
    146  CG2       53.5120   10.1960   58.8950 C.3   487  THR487      0.0375
    147  N         53.7350    6.1960   59.2840 N.3   490  ALA490     -0.1245
    148  CA        54.4160    5.6120   58.1130 C.3   490  ALA490      0.1562
    149  C         55.0810    4.3000   58.4770 C.2   490  ALA490      0.2260
    150  O         55.7460    4.2130   59.4540 O.2   490  ALA490     -0.2867
    151  CB        55.4880    6.6270   57.5360 C.3   490  ALA490      0.0290
    152  N         57.7930    1.1830   56.8890 N.3   492  PRO492     -0.2102
    153  CA        58.1530    0.3490   58.0250 C.3   492  PRO492      0.1504
    154  C         58.9630    1.0890   59.0480 C.2   492  PRO492      0.2576
    155  O         59.3230    0.5090   60.0890 O.2   492  PRO492     -0.2718
    156  CB        59.0370   -0.6850   57.3890 C.3   492  PRO492      0.0282
    157  CG        59.8400    0.1670   56.3760 C.3   492  PRO492      0.0208
    158  CD        58.8170    1.1140   55.8250 C.3   492  PRO492      0.0893
    159  N         59.3070    2.3410   58.7620 N.am  493  ARG493     -0.1966
    160  CA        60.2630    3.0090   59.6740 C.3   493  ARG493      0.1729
    161  C         59.7570    2.9780   61.0910 C.2   493  ARG493      0.2616
    162  O         60.5220    2.8110   62.0210 O.2   493  ARG493     -0.2715
    163  CB        60.6020    4.4580   59.3130 C.3   493  ARG493      0.0348
    164  CG        61.4310    5.0580   60.4680 C.3   493  ARG493      0.0492
    165  CD        61.7180    6.5580   60.2890 C.3   493  ARG493      0.2205
    166  NE        62.4550    6.8030   59.0610 N.pl3 493  ARG493     -0.0865
    167  CZ        63.3510    7.7840   58.9010 C.cat 493  ARG493      0.5346
    168  NH1       63.6100    8.6460   59.8850 N.pl3 493  ARG493      0.1354
    169  NH2       63.9950    7.9220   57.7390 N.pl3 493  ARG493      0.1354
    170  N         58.4590    3.1700   61.2640 N.am  494  ILE494     -0.1977
    171  CA        57.8580    3.1140   62.6470 C.3   494  ILE494      0.1596
    172  C         58.0640    1.7280   63.3280 C.2   494  ILE494      0.2287
    173  O         58.1710    1.6120   64.5390 O.2   494  ILE494     -0.2864
    174  CB        56.3320    3.4790   62.6020 C.3   494  ILE494      0.0276
    175  CG1       55.8100    3.9230   63.9870 C.3   494  ILE494      0.0022
    176  CG2       55.5120    2.2800   62.0550 C.3   494  ILE494      0.0022
    177  CD1       56.5780    5.1800   64.6070 C.3   494  ILE494      0.0001
@<TRIPOS>BOND
     1    19    20    2
     2    19    18    1
     3    28    29    1
     4    18    17    1
     5    18    21    1
     6    30    31    2
     7    30    29    1
     8    29    32    1
     9     4     3    2
    10    21    22    1
    11    11    10    2
    12    32    33    1
    13    10     9    1
    14     1     2    1
    15    22    23    1
    16     3     2    1
    17    33    34    1
    18     2     5    1
    19     7     5    1
    20    23    24    1
    21     9     8    1
    22     9    12    1
    23    24    25    2
    24    34    36   ar
    25    34    35   ar
    26    16    14   ar
    27    71    72    1
    28    66    67    2
    29    66    65    1
    30     5     6    1
    31    13    12    1
    32    13    14    1
    33    74    73    2
    34    14    15   ar
    35    25    27    1
    36    25    26    1
    37    79    77   ar
    38    79    81   ar
    39    77    76   ar
    40    65    68    1
    41    65    64    1
    42    72    73    1
    43    72    75    1
    44    81    80   ar
    45    68    70    1
    46    68    69    1
    47    76    75    1
    48    76    78   ar
    49    64    55   am
    50    58    59    1
    51    58    57    1
    52    56    55    2
    53    80    78   ar
    54    55    54    1
    55    59    60    1
    56    85    84    2
    57    82    83    1
    58    88    89    1
    59    88    87    1
    60    96    95    1
    61    96    97    1
    62   138   137    2
    63    86    83    1
    64    86    87    1
    65    95    92    1
    66    57    54    1
    67    54    53    1
    68    60    61    2
    69    62    61    1
    70    89    90    1
    71    83    84    1
    72    98    97   ar
    73    97    99   ar
    74   137   136    1
    75   137   139   am
    76    61    63    1
    77   136   133    1
    78    53    47   am
    79    92    91    1
    80    92    93    1
    81   158   157    1
    82   158   152    1
    83    94    93    2
    84   132   133    1
    85   157   156    1
    86   133   134    1
    87    47    48    2
    88    47    46    1
    89   152   153    1
    90   156   153    1
    91    44    42    1
    92   134   135    2
    93   151   148    1
    94    40    39    2
    95    38    39    1
    96    38    37    1
    97    38    41    1
    98    39    45   am
    99   169   167    1
   100    45    46    1
   101   145   144    1
   102    46    49    1
   103   153   154    1
   104   148   149    1
   105   148   147    1
   106   149   150    2
   107    41    42    1
   108   140   141    1
   109   141   144    1
   110   141   142    1
   111   130   131    1
   112   130   127    1
   113   129   128    2
   114    49    50    1
   115    42    43    1
   116   159   154   am
   117   159   160    1
   118   146   144    1
   119   167   166    2
   120   167   168    1
   121   154   155    2
   122   166   165    1
   123   108   106   ar
   124   163   160    1
   125   163   164    1
   126   160   161    1
   127   128   127    1
   128   142   143    2
   129   107   106   ar
   130   127   126    1
   131   106   105    1
   132    50    51    1
   133   126   118   am
   134   165   164    1
   135   112   111    2
   136   161   170   am
   137   161   162    2
   138   118   117    1
   139   118   119    2
   140    51    52    1
   141   105   104    1
   142   170   171    1
   143   117   116    1
   144   117   120    1
   145   111   116   am
   146   111   110    1
   147   104   101    1
   148   103   102    2
   149   176   174    1
   150   110   109    1
   151   110   113    1
   152   102   101    1
   153   102   109   am
   154   120   121    1
   155   123   121   ar
   156   123   125   ar
   157   174   171    1
   158   174   175    1
   159   171   172    1
   160   101   100    1
   161   121   122   ar
   162   125   124   ar
   163   113   115    1
   164   113   114    1
   165   172   173    2
   166   122   124   ar
   167   175   177    1
