@<TRIPOS>MOLECULE
tmp/3es6A01.pdb
 153 152 0 0 0
SMALL
GASTEIGER

@<TRIPOS>ATOM
      1  N        131.3620   28.6150    2.8600 N.3    13  TYR13      -0.1241
      2  CA       132.3610   29.4100    2.1550 C.3    13  TYR13       0.1605
      3  C        131.6560   30.4560    1.3100 C.2    13  TYR13       0.2264
      4  O        130.7120   30.1390    0.5870 O.2    13  TYR13      -0.2867
      5  CB       133.2020   28.5180    1.2380 C.3    13  TYR13       0.0534
      6  CG       134.1940   27.6250    1.9510 C.ar   13  TYR13      -0.0201
      7  CD1      133.8320   26.3510    2.3960 C.ar   13  TYR13      -0.0009
      8  CD2      135.5050   28.0480    2.1650 C.ar   13  TYR13      -0.0009
      9  CE1      134.7520   25.5300    3.0490 C.ar   13  TYR13       0.0417
     10  CE2      136.4280   27.2420    2.8160 C.ar   13  TYR13       0.0417
     11  CZ       136.0510   25.9860    3.2580 C.ar   13  TYR13       0.1957
     12  OH       136.9790   25.1920    3.9000 O.3    13  TYR13      -0.2866
     13  N        146.0130   25.4610    4.3800 N.3    68  LEU68      -0.1245
     14  CA       145.1300   24.7660    3.4510 C.3    68  LEU68       0.1561
     15  C        143.8220   25.5350    3.2090 C.2    68  LEU68       0.2260
     16  O        143.1860   25.3560    2.1700 O.2    68  LEU68      -0.2867
     17  CB       144.9440   23.2760    3.8310 C.3    68  LEU68       0.0270
     18  CG       143.8050   22.5650    4.5900 C.3    68  LEU68       0.0019
     19  CD1      143.4430   23.2440    5.9100 C.3    68  LEU68       0.0001
     20  CD2      142.5690   22.3850    3.7070 C.3    68  LEU68       0.0001
     21  N        144.8080   27.5870    0.3540 N.3    71  ALA71      -0.1231
     22  CA       144.7170   26.7040   -0.8070 C.3    71  ALA71       0.1694
     23  C        143.2980   26.6710   -1.3680 C.2    71  ALA71       0.2591
     24  O        143.1040   26.8640   -2.5700 O.2    71  ALA71      -0.2718
     25  CB       145.1810   25.3010   -0.4450 C.3    71  ALA71       0.0304
     26  N        142.3160   26.4470   -0.4890 N.am   72  ARG72      -0.1980
     27  CA       140.9050   26.3630   -0.8850 C.3    72  ARG72       0.1597
     28  C        140.3960   27.6860   -1.4390 C.2    72  ARG72       0.2287
     29  O        139.6680   27.6990   -2.4340 O.2    72  ARG72      -0.2864
     30  CB       140.0100   25.9000    0.2710 C.3    72  ARG72       0.0334
     31  CG       140.4670   24.6230    0.9680 C.3    72  ARG72       0.0492
     32  CD       139.2830   23.8360    1.5240 C.3    72  ARG72       0.2205
     33  NE       139.5210   23.4050    2.9050 N.pl3  72  ARG72      -0.0865
     34  CZ       139.0440   22.2810    3.4380 C.cat  72  ARG72       0.5346
     35  NH1      138.3140   21.4360    2.7110 N.pl3  72  ARG72       0.1354
     36  NH2      139.3120   21.9900    4.7060 N.pl3  72  ARG72       0.1354
     37  N        141.2490   28.0360   -5.1980 N.3    75  ILE75      -0.1231
     38  CA       140.3860   27.2300   -6.0660 C.3    75  ILE75       0.1692
     39  C        138.9610   27.7770   -6.0930 C.2    75  ILE75       0.2592
     40  O        138.2780   27.6900   -7.1130 O.2    75  ILE75      -0.2718
     41  CB       140.3380   25.7290   -5.6290 C.3    75  ILE75       0.0266
     42  CG1      141.6770   25.2520   -5.0350 C.3    75  ILE75       0.0019
     43  CG2      139.8680   24.8330   -6.7850 C.3    75  ILE75       0.0020
     44  CD1      142.8410   25.1180   -6.0320 C.3    75  ILE75       0.0001
     45  N        138.5250   28.3440   -4.9700 N.am   76  PHE76      -0.1976
     46  CA       137.1750   28.8830   -4.8430 C.3    76  PHE76       0.1639
     47  C        136.9690   30.0990   -5.7410 C.2    76  PHE76       0.2290
     48  O        136.0920   30.0970   -6.6040 O.2    76  PHE76      -0.2864
     49  CB       136.8740   29.2450   -3.3850 C.3    76  PHE76       0.0560
     50  CG       135.4170   29.4630   -3.1000 C.ar   76  PHE76      -0.0200
     51  CD1      134.6160   28.4090   -2.6720 C.ar   76  PHE76      -0.0042
     52  CD2      134.8420   30.7160   -3.2510 C.ar   76  PHE76      -0.0042
     53  CE1      133.2650   28.5970   -2.4050 C.ar   76  PHE76      -0.0003
     54  CE2      133.4920   30.9120   -2.9860 C.ar   76  PHE76      -0.0003
     55  CZ       132.7050   29.8480   -2.5590 C.ar   76  PHE76      -0.0000
     56  N        129.5970   28.2140   -0.9430 N.3    98  GLY98      -0.1225
     57  CA       129.8230   26.7740   -0.8760 C.3    98  GLY98       0.1811
     58  C        129.4940   26.1820    0.4790 C.2    98  GLY98       0.2280
     59  O        129.9840   26.6450    1.5060 O.2    98  GLY98      -0.2866
     60  N        129.6620   22.5980    2.5770 N.3   100  PHE100     -0.1241
     61  CA       130.3500   21.3240    2.6040 C.3   100  PHE100      0.1605
     62  C        130.2690   20.8160    4.0350 C.2   100  PHE100      0.2264
     63  O        130.5370   21.5640    4.9730 O.2   100  PHE100     -0.2867
     64  CB       131.8040   21.5200    2.1450 C.3   100  PHE100      0.0534
     65  CG       132.7700   20.5110    2.7020 C.ar  100  PHE100     -0.0203
     66  CD1      132.8770   19.2380    2.1410 C.ar  100  PHE100     -0.0042
     67  CD2      133.5870   20.8370    3.7800 C.ar  100  PHE100     -0.0042
     68  CE1      133.7790   18.2940    2.6590 C.ar  100  PHE100     -0.0003
     69  CE2      134.4870   19.9040    4.3090 C.ar  100  PHE100     -0.0003
     70  CZ       134.5840   18.6300    3.7460 C.ar  100  PHE100     -0.0000
     71  N        127.8500   18.3520   -0.2310 N.3   114  TRP114     -0.1241
     72  CA       128.8300   19.2330   -0.8460 C.3   114  TRP114      0.1605
     73  C        128.1420   19.9300   -2.0110 C.2   114  TRP114      0.2264
     74  O        127.8520   19.3060   -3.0350 O.2   114  TRP114     -0.2867
     75  CB       130.0250   18.4200   -1.3430 C.3   114  TRP114      0.0550
     76  CG       131.2680   19.2110   -1.6300 C.ar  114  TRP114      0.0003
     77  CD1      131.3660   20.5620   -1.8380 C.ar  114  TRP114      0.0946
     78  CD2      132.5910   18.6890   -1.7760 C.ar  114  TRP114      0.0152
     79  NE1      132.6710   20.9110   -2.0860 N.ar  114  TRP114     -0.2442
     80  CE2      133.4440   19.7800   -2.0590 C.ar  114  TRP114      0.0810
     81  CE3      133.1410   17.4050   -1.6910 C.ar  114  TRP114      0.0012
     82  CZ2      134.8160   19.6240   -2.2630 C.ar  114  TRP114      0.0191
     83  CZ3      134.5080   17.2500   -1.8920 C.ar  114  TRP114      0.0001
     84  CH2      135.3290   18.3550   -2.1730 C.ar  114  TRP114      0.0015
     85  N        127.4000   23.9020   -4.2000 N.3   116  TYR116     -0.1241
     86  CA       127.7410   25.2920   -4.4920 C.3   116  TYR116      0.1605
     87  C        126.5440   26.0700   -5.0420 C.2   116  TYR116      0.2264
     88  O        125.7180   25.5250   -5.7760 O.2   116  TYR116     -0.2867
     89  CB       128.9280   25.3720   -5.4560 C.3   116  TYR116      0.0534
     90  CG       130.2280   24.8510   -4.8790 C.ar  116  TYR116     -0.0201
     91  CD1      130.5320   23.4900   -4.9180 C.ar  116  TYR116     -0.0009
     92  CD2      131.1570   25.7170   -4.2970 C.ar  116  TYR116     -0.0009
     93  CE1      131.7170   23.0020   -4.3940 C.ar  116  TYR116      0.0417
     94  CE2      132.3510   25.2350   -3.7670 C.ar  116  TYR116      0.0417
     95  CZ       132.6190   23.8760   -3.8220 C.ar  116  TYR116      0.1957
     96  OH       133.7850   23.3770   -3.3030 O.3   116  TYR116     -0.2866
     97  N        130.1250   15.1160  -10.2420 N.3   133  TRP133     -0.1241
     98  CA       129.5520   16.4240   -9.9660 C.3   133  TRP133      0.1605
     99  C        128.3210   16.5990  -10.8390 C.2   133  TRP133      0.2264
    100  O        128.2370   16.0230  -11.9250 O.2   133  TRP133     -0.2867
    101  CB       130.5680   17.5480  -10.1900 C.3   133  TRP133      0.0550
    102  CG       131.6670   17.5820   -9.1580 C.ar  133  TRP133      0.0003
    103  CD1      132.9040   17.0170   -9.2660 C.ar  133  TRP133      0.0946
    104  CD2      131.6240   18.2090   -7.8660 C.ar  133  TRP133      0.0152
    105  NE1      133.6370   17.2540   -8.1260 N.ar  133  TRP133     -0.2442
    106  CE2      132.8750   17.9820   -7.2490 C.ar  133  TRP133      0.0810
    107  CE3      130.6510   18.9410   -7.1720 C.ar  133  TRP133      0.0012
    108  CZ2      133.1820   18.4590   -5.9690 C.ar  133  TRP133      0.0191
    109  CZ3      130.9580   19.4180   -5.8980 C.ar  133  TRP133      0.0001
    110  CH2      132.2140   19.1720   -5.3130 C.ar  133  TRP133      0.0015
    111  N        136.9720   19.9440  -12.6080 N.3   147  TRP147     -0.1241
    112  CA       137.0340   19.1990  -11.3560 C.3   147  TRP147      0.1605
    113  C        137.0730   17.6880  -11.5640 C.2   147  TRP147      0.2264
    114  O        137.4140   16.9430  -10.6450 O.2   147  TRP147     -0.2867
    115  CB       135.8510   19.5890  -10.4730 C.3   147  TRP147      0.0550
    116  CG       135.9180   21.0050   -9.9610 C.ar  147  TRP147      0.0003
    117  CD1      136.8330   21.9650  -10.3000 C.ar  147  TRP147      0.0946
    118  CD2      135.0130   21.6230   -9.0410 C.ar  147  TRP147      0.0152
    119  NE1      136.5620   23.1350   -9.6360 N.ar  147  TRP147     -0.2442
    120  CE2      135.4500   22.9550   -8.8570 C.ar  147  TRP147      0.0810
    121  CE3      133.8750   21.1830   -8.3530 C.ar  147  TRP147      0.0012
    122  CZ2      134.7880   23.8520   -8.0120 C.ar  147  TRP147      0.0191
    123  CZ3      133.2210   22.0720   -7.5090 C.ar  147  TRP147      0.0001
    124  CH2      133.6800   23.3940   -7.3470 C.ar  147  TRP147      0.0015
    125  N        140.1570   12.4370   -9.3150 N.3   153  TYR153     -0.1241
    126  CA       139.6260   13.5490   -8.5260 C.3   153  TYR153      0.1605
    127  C        138.2770   13.2400   -7.8900 C.2   153  TYR153      0.2264
    128  O        138.0390   13.5690   -6.7280 O.2   153  TYR153     -0.2867
    129  CB       139.5070   14.8200   -9.3720 C.3   153  TYR153      0.0534
    130  CG       140.8090   15.3670   -9.9240 C.ar  153  TYR153     -0.0201
    131  CD1      142.0230   15.1770   -9.2550 C.ar  153  TYR153     -0.0009
    132  CD2      140.8180   16.1070  -11.1030 C.ar  153  TYR153     -0.0009
    133  CE1      143.2110   15.6910   -9.7670 C.ar  153  TYR153      0.0417
    134  CE2      141.9970   16.6240  -11.6180 C.ar  153  TYR153      0.0417
    135  CZ       143.1870   16.4140  -10.9470 C.ar  153  TYR153      0.1957
    136  OH       144.3490   16.9280  -11.4680 O.3   153  TYR153     -0.2866
    137  N        137.1640   13.2150   -3.8540 N.3   157  ALA157     -0.1245
    138  CA       136.0040   13.9770   -3.4010 C.3   157  ALA157      0.1562
    139  C        135.0610   13.1030   -2.5830 C.2   157  ALA157      0.2260
    140  O        134.5360   13.5360   -1.5600 O.2   157  ALA157     -0.2867
    141  CB       135.2820   14.5800   -4.5800 C.3   157  ALA157      0.0290
    142  N        136.9160   12.4220    0.7540 N.3   160  TYR160     -0.1241
    143  CA       136.9280   13.5610    1.6600 C.3   160  TYR160      0.1605
    144  C        135.6360   13.6250    2.4590 C.2   160  TYR160      0.2264
    145  O        135.6640   13.7870    3.6820 O.2   160  TYR160     -0.2867
    146  CB       137.1750   14.8840    0.9260 C.3   160  TYR160      0.0534
    147  CG       137.9320   15.8820    1.7840 C.ar  160  TYR160     -0.0201
    148  CD1      139.2720   16.1910    1.5140 C.ar  160  TYR160     -0.0009
    149  CD2      137.3210   16.4950    2.8900 C.ar  160  TYR160     -0.0009
    150  CE1      139.9830   17.0990    2.3140 C.ar  160  TYR160      0.0417
    151  CE2      138.0220   17.4010    3.6980 C.ar  160  TYR160      0.0417
    152  CZ       139.3520   17.6980    3.4030 C.ar  160  TYR160      0.1957
    153  OH       140.0470   18.5910    4.1960 O.3   160  TYR160     -0.2866
@<TRIPOS>BOND
     1   111   112    1
     2   100    99    2
     3   134   132   ar
     4   134   135   ar
     5   113   112    1
     6   113   114    2
     7   136   135    1
     8   112   115    1
     9   132   130   ar
    10   135   133   ar
    11    99    98    1
    12   115   116    1
    13   117   116   ar
    14   117   119   ar
    15    97    98    1
    16   101    98    1
    17   101   102    1
    18   116   118   ar
    19   130   129    1
    20   130   131   ar
    21   133   131   ar
    22   119   120   ar
    23   129   126    1
    24   125   126    1
    25   103   102   ar
    26   103   105   ar
    27   102   104   ar
    28   118   120   ar
    29   118   121   ar
    30   120   122   ar
    31   126   127    1
    32   121   123   ar
    33   105   106   ar
    34   122   124   ar
    35   127   128    2
    36   104   106   ar
    37   104   107   ar
    38   123   124   ar
    39   106   108   ar
    40   107   109   ar
    41    40    39    2
    42    43    41    1
    43    48    47    2
    44    39    38    1
    45    39    45   am
    46    38    41    1
    47    38    37    1
    48    44    42    1
    49   108   110   ar
    50   109   110   ar
    51    88    87    2
    52    47    46    1
    53    41    42    1
    54    89    90    1
    55    89    86    1
    56    87    86    1
    57    45    46    1
    58    91    90   ar
    59    91    93   ar
    60    90    92   ar
    61    46    49    1
    62   141   138    1
    63    86    85    1
    64    93    95   ar
    65    92    94   ar
    66   137   138    1
    67    95    94   ar
    68    95    96    1
    69   138   139    1
    70    49    50    1
    71    52    50   ar
    72    52    54   ar
    73    50    51   ar
    74    74    73    2
    75    54    55   ar
    76    51    53   ar
    77   139   140    2
    78    24    23    2
    79    55    53   ar
    80    29    28    2
    81    82    84   ar
    82    82    80   ar
    83    84    83   ar
    84    79    80   ar
    85    79    77   ar
    86    80    78   ar
    87    73    72    1
    88    83    81   ar
    89    77    76   ar
    90    78    81   ar
    91    78    76   ar
    92    76    75    1
    93    28    27    1
    94    23    22    1
    95    23    26   am
    96    75    72    1
    97    56    57    1
    98    27    26    1
    99    27    30    1
   100    57    58    1
   101    72    71    1
   102    22    25    1
   103    22    21    1
   104    30    31    1
   105    58    59    2
   106     4     3    2
   107   142   143    1
   108   146   143    1
   109   146   147    1
   110    31    32    1
   111     5     6    1
   112     5     2    1
   113     3     2    1
   114   148   147   ar
   115   148   150   ar
   116    32    33    1
   117   143   144    1
   118   147   149   ar
   119     6     8   ar
   120     6     7   ar
   121    66    68   ar
   122    66    65   ar
   123    64    61    1
   124    64    65    1
   125     2     1    1
   126     8    10   ar
   127    16    15    2
   128   150   152   ar
   129     7     9   ar
   130   144   145    2
   131    60    61    1
   132    61    62    1
   133    68    70   ar
   134    65    67   ar
   135    35    34    1
   136    10    11   ar
   137   149   151   ar
   138    33    34    2
   139     9    11   ar
   140    15    14    1
   141    11    12    1
   142   152   151   ar
   143   152   153    1
   144    34    36    1
   145    14    17    1
   146    14    13    1
   147    20    18    1
   148    70    69   ar
   149    67    69   ar
   150    17    18    1
   151    62    63    2
   152    18    19    1
