@<TRIPOS>MOLECULE
tmp/3es6A00.pdb
 99 93 0 0 0
SMALL
GASTEIGER

@<TRIPOS>ATOM
      1  N        111.9890   35.7860   32.7100 N.3   189  VAL189     -0.1245
      2  CA       111.6850   37.0790   33.3160 C.3   189  VAL189      0.1561
      3  C        110.5100   37.7310   32.5820 C.2   189  VAL189      0.2260
      4  O        110.5260   37.8480   31.3540 O.2   189  VAL189     -0.2867
      5  CB       112.9390   38.0040   33.3060 C.3   189  VAL189      0.0252
      6  CG1      112.5640   39.4730   33.4880 C.3   189  VAL189      0.0019
      7  CG2      113.9380   37.5670   34.3790 C.3   189  VAL189      0.0019
      8  N        108.0810   41.1250   31.9720 N.3   191  THR191     -0.1218
      9  CA       108.1950   42.5860   32.0000 C.3   191  THR191      0.1862
     10  C        107.0370   43.2630   31.2690 C.2   191  THR191      0.2287
     11  O        106.7770   42.9740   30.1000 O.2   191  THR191     -0.2866
     12  CB       109.5260   43.0600   31.3760 C.3   191  THR191      0.1770
     13  OG1      110.6200   42.5840   32.1670 O.3   191  THR191     -0.2211
     14  CG2      109.5910   44.5800   31.3030 C.3   191  THR191      0.0375
     15  N        106.1890   41.4370   27.8890 N.3   203  LYS203     -0.1245
     16  CA       107.3340   40.7430   27.3150 C.3   203  LYS203      0.1561
     17  C        107.7510   39.5830   28.2160 C.2   203  LYS203      0.2260
     18  O        107.9230   39.7590   29.4270 O.2   203  LYS203     -0.2867
     19  CB       108.4930   41.7290   27.1470 C.3   203  LYS203      0.0271
     20  CG       109.7230   41.1810   26.4420 C.3   203  LYS203      0.0035
     21  CD       110.8960   42.1360   26.6240 C.3   203  LYS203      0.0206
     22  CE       112.0300   41.7760   25.6780 C.3   203  LYS203      0.1093
     23  NZ       113.0910   42.8180   25.7070 N.3   203  LYS203     -0.1314
     24  N        110.8160   37.0210   28.5380 N.3   205  LEU205     -0.1245
     25  CA       112.1730   36.7060   28.1000 C.3   205  LEU205      0.1561
     26  C        112.7150   35.4220   28.7180 C.2   205  LEU205      0.2260
     27  O        112.7290   35.2660   29.9370 O.2   205  LEU205     -0.2867
     28  CB       113.1180   37.8750   28.4060 C.3   205  LEU205      0.0270
     29  CG       114.6270   37.6170   28.3070 C.3   205  LEU205      0.0019
     30  CD1      115.0690   37.5490   26.8540 C.3   205  LEU205      0.0001
     31  CD2      115.4180   38.6780   29.0580 C.3   205  LEU205      0.0001
     32  N        116.2380   33.1940   28.8160 N.3   207  TYR207     -0.1227
     33  CA       117.6590   33.4540   28.5850 C.3   207  TYR207      0.1736
     34  C        118.5940   32.4610   29.2710 C.2   207  TYR207      0.2595
     35  O        118.1840   31.7520   30.1870 O.2   207  TYR207     -0.2718
     36  CB       118.0130   34.8980   28.9680 C.3   207  TYR207      0.0548
     37  CG       117.9160   35.2210   30.4420 C.ar  207  TYR207     -0.0200
     38  CD1      116.7000   35.5990   31.0200 C.ar  207  TYR207     -0.0009
     39  CD2      119.0500   35.1770   31.2550 C.ar  207  TYR207     -0.0009
     40  CE1      116.6140   35.9040   32.3750 C.ar  207  TYR207      0.0417
     41  CE2      118.9760   35.4780   32.6070 C.ar  207  TYR207      0.0417
     42  CZ       117.7600   35.8440   33.1620 C.ar  207  TYR207      0.1957
     43  OH       117.7030   36.1450   34.5040 O.3   207  TYR207     -0.2866
     44  N        119.8450   32.4280   28.8050 N.am  208  ASP208     -0.1974
     45  CA       120.9130   31.5620   29.3300 C.3   208  ASP208      0.1709
     46  C        120.6800   30.0580   29.1330 C.2   208  ASP208      0.2293
     47  O        121.1570   29.2420   29.9260 O.2   208  ASP208     -0.2864
     48  CB       121.2090   31.8760   30.8090 C.3   208  ASP208      0.1436
     49  CG       121.9710   33.1820   30.9970 C.2   208  ASP208      0.3671
     50  OD1      122.7010   33.5990   30.0670 O.co2 208  ASP208     -0.2456
     51  OD2      121.8470   33.7900   32.0870 O.co2 208  ASP208     -0.2456
     52  N        124.0380   33.7100   21.3140 N.3   235  HIS235     -0.1241
     53  CA       125.2720   34.3360   21.7770 C.3   235  HIS235      0.1621
     54  C        126.4050   33.3260   21.6420 C.2   235  HIS235      0.2264
     55  O        126.5430   32.4110   22.4560 O.2   235  HIS235     -0.2867
     56  CB       125.1370   34.8380   23.2160 C.3   235  HIS235      0.0745
     57  CG       124.2130   36.0100   23.3630 C.ar  235  HIS235      0.0817
     58  ND1      124.3790   37.1840   22.6570 N.ar  235  HIS235     -0.2268
     59  CD2      123.1210   36.1920   24.1430 C.ar  235  HIS235      0.1154
     60  CE1      123.4230   38.0330   22.9890 C.ar  235  HIS235      0.1986
     61  NE2      122.6470   37.4560   23.8880 N.ar  235  HIS235     -0.2212
     62  N        129.3610   33.2190   24.3190 N.3   238  ASN238     -0.1240
     63  CA       128.7510   32.6690   25.5190 C.3   238  ASN238      0.1653
     64  C        128.3580   31.2040   25.3180 C.2   238  ASN238      0.2266
     65  O        128.4140   30.4060   26.2500 O.2   238  ASN238     -0.2867
     66  CB       127.5140   33.5030   25.8560 C.3   238  ASN238      0.1155
     67  CG       127.2240   33.5400   27.3340 C.2   238  ASN238      0.2627
     68  OD1      127.0110   32.4990   27.9530 O.2   238  ASN238     -0.2716
     69  ND2      127.2310   34.7450   27.9210 N.am  238  ASN238     -0.0877
     70  N        125.2520   30.3640   24.3720 N.3   240  THR240     -0.1218
     71  CA       123.9120   30.2780   24.9650 C.3   240  THR240      0.1862
     72  C        122.8570   30.9140   24.0650 C.2   240  THR240      0.2287
     73  O        123.1860   31.6290   23.1140 O.2   240  THR240     -0.2866
     74  CB       123.8420   30.9530   26.3660 C.3   240  THR240      0.1770
     75  OG1      124.3850   32.2790   26.2970 O.3   240  THR240     -0.2211
     76  CG2      124.5950   30.1400   27.4160 C.3   240  THR240      0.0375
     77  N        118.9080   33.0320   23.7400 N.3   242  GLN242     -0.1245
     78  CA       117.9710   33.9600   24.3530 C.3   242  GLN242      0.1566
     79  C        116.7480   34.0520   23.4420 C.2   242  GLN242      0.2260
     80  O        116.8910   34.0970   22.2180 O.2   242  GLN242     -0.2867
     81  CB       118.6330   35.3260   24.5050 C.3   242  GLN242      0.0367
     82  CG       118.4300   35.9860   25.8460 C.3   242  GLN242      0.0905
     83  CD       119.6260   36.8270   26.2460 C.2   242  GLN242      0.2608
     84  OE1      119.7010   38.0130   25.9290 O.2   242  GLN242     -0.2717
     85  NE2      120.5720   36.2140   26.9450 N.am  242  GLN242     -0.0878
     86  N        112.4910   35.7210   23.4050 N.3   244  TRP244     -0.1241
     87  CA       111.4110   36.4580   24.0690 C.3   244  TRP244      0.1605
     88  C        110.1650   36.6560   23.1980 C.2   244  TRP244      0.2264
     89  O        110.2520   36.7130   21.9700 O.2   244  TRP244     -0.2867
     90  CB       111.9070   37.8130   24.5840 C.3   244  TRP244      0.0550
     91  CG       112.1940   38.7710   23.4880 C.ar  244  TRP244      0.0003
     92  CD1      111.3520   39.7240   22.9780 C.ar  244  TRP244      0.0946
     93  CD2      113.4000   38.8590   22.7390 C.ar  244  TRP244      0.0152
     94  NE1      111.9710   40.4080   21.9630 N.ar  244  TRP244     -0.2442
     95  CE2      113.2300   39.8950   21.7940 C.ar  244  TRP244      0.0810
     96  CE3      114.6150   38.1630   22.7730 C.ar  244  TRP244      0.0012
     97  CZ2      114.2290   40.2510   20.8920 C.ar  244  TRP244      0.0191
     98  CZ3      115.6030   38.5130   21.8780 C.ar  244  TRP244      0.0001
     99  CH2      115.4050   39.5490   20.9490 C.ar  244  TRP244      0.0015
@<TRIPOS>BOND
     1    97    99   ar
     2    97    95   ar
     3    99    98   ar
     4    52    53    1
     5    54    53    1
     6    54    55    2
     7    53    56    1
     8    95    94   ar
     9    95    93   ar
    10    98    96   ar
    11    94    92   ar
    12    89    88    2
    13    80    79    2
    14    58    60   ar
    15    58    57   ar
    16    93    96   ar
    17    93    91   ar
    18    92    91   ar
    19    60    61   ar
    20    73    72    2
    21    88    87    1
    22    56    57    1
    23    57    59   ar
    24    86    87    1
    25    79    78    1
    26    91    90    1
    27    77    78    1
    28    61    59   ar
    29    72    71    1
    30    87    90    1
    31    62    63    1
    32    78    81    1
    33    70    71    1
    34    81    82    1
    35    71    74    1
    36    64    63    1
    37    64    65    2
    38    63    66    1
    39    22    23    1
    40    22    21    1
    41    82    83    1
    42    66    67    1
    43    84    83    2
    44    83    85   am
    45    75    74    1
    46    74    76    1
    47    20    21    1
    48    20    19    1
    49    30    29    1
    50    19    16    1
    51    16    15    1
    52    16    17    1
    53    67    69   am
    54    67    68    2
    55    25    28    1
    56    25    24    1
    57    25    26    1
    58    17    18    2
    59    29    28    1
    60    29    31    1
    61    33    32    1
    62    33    36    1
    63    33    34    1
    64    26    27    2
    65    44    34   am
    66    44    45    1
    67    36    37    1
    68    46    45    1
    69    46    47    2
    70    34    35    2
    71    45    48    1
    72    50    49   ar
    73    11    10    2
    74    37    38   ar
    75    37    39   ar
    76    48    49    1
    77    49    51   ar
    78    38    40   ar
    79    39    41   ar
    80    10     9    1
    81    14    12    1
    82     4     3    2
    83    12     9    1
    84    12    13    1
    85     8     9    1
    86    40    42   ar
    87     3     2    1
    88    41    42   ar
    89     1     2    1
    90    42    43    1
    91     5     2    1
    92     5     6    1
    93     5     7    1
