@<TRIPOS>MOLECULE
tmp/3es8H00.pdb
 165 158 0 0 0
SMALL
GASTEIGER

@<TRIPOS>ATOM
      1  N         20.6030   76.1440    4.0040 N.3    15  ARG15      -0.1245
      2  CA        19.2000   75.7900    4.1830 C.3    15  ARG15       0.1563
      3  C         18.7060   76.5220    5.4190 C.2    15  ARG15       0.2260
      4  O         19.5040   77.0680    6.1790 O.2    15  ARG15      -0.2867
      5  CB        19.0390   74.2880    4.4190 C.3    15  ARG15       0.0307
      6  CG        19.5030   73.4080    3.2830 C.3    15  ARG15       0.0489
      7  CD        19.4050   71.9450    3.6690 C.3    15  ARG15       0.2205
      8  NE        19.7870   71.0790    2.5610 N.pl3  15  ARG15      -0.0865
      9  CZ        19.6340   69.7590    2.5500 C.cat  15  ARG15       0.5346
     10  NH1       19.1020   69.1350    3.5920 N.pl3  15  ARG15       0.1354
     11  NH2       20.0070   69.0650    1.4830 N.pl3  15  ARG15       0.1354
     12  N         23.5230   68.9180   -4.9410 N.3    42  ASP42      -0.1239
     13  CA        24.0540   68.5200   -3.6360 C.3    42  ASP42       0.1674
     14  C         25.2530   67.5660   -3.5790 C.2    42  ASP42       0.2266
     15  O         25.0800   66.3630   -3.4040 O.2    42  ASP42      -0.2867
     16  CB        22.8950   67.9270   -2.8120 C.3    42  ASP42       0.1410
     17  CG        23.1860   67.8780   -1.3160 C.2    42  ASP42       0.3668
     18  OD1       22.3110   67.3820   -0.5580 O.co2  42  ASP42      -0.2456
     19  OD2       24.2790   68.3310   -0.9040 O.co2  42  ASP42      -0.2456
     20  N         27.6000   65.2640    0.4130 N.3    45  HIS45      -0.1241
     21  CA        27.2940   63.9760    1.0390 C.3    45  HIS45       0.1621
     22  C         28.6120   63.2040    1.1280 C.2    45  HIS45       0.2264
     23  O         29.5510   63.4960    0.3920 O.2    45  HIS45      -0.2867
     24  CB        26.3000   63.1850    0.1790 C.3    45  HIS45       0.0745
     25  CG        24.8690   63.6150    0.3270 C.ar   45  HIS45       0.0817
     26  ND1       24.0940   63.2760    1.4190 N.ar   45  HIS45      -0.2268
     27  CD2       24.0560   64.3100   -0.5060 C.ar   45  HIS45       0.1154
     28  CE1       22.8670   63.7400    1.2480 C.ar   45  HIS45       0.1986
     29  NE2       22.8180   64.3710    0.0880 N.ar   45  HIS45      -0.2212
     30  N         24.8740   54.8670   -2.7880 N.3    89  TYR89      -0.1227
     31  CA        23.8410   55.9060   -2.7680 C.3    89  TYR89       0.1736
     32  C         24.3020   57.3040   -3.2350 C.2    89  TYR89       0.2595
     33  O         23.6560   57.9340   -4.0830 O.2    89  TYR89      -0.2718
     34  CB        23.2680   55.9730   -1.3400 C.3    89  TYR89       0.0548
     35  CG        22.0430   56.8380   -1.1420 C.ar   89  TYR89      -0.0200
     36  CD1       21.2550   57.2470   -2.2190 C.ar   89  TYR89      -0.0009
     37  CD2       21.6460   57.2140    0.1400 C.ar   89  TYR89      -0.0009
     38  CE1       20.1010   58.0110   -2.0240 C.ar   89  TYR89       0.0417
     39  CE2       20.4890   57.9760    0.3470 C.ar   89  TYR89       0.0417
     40  CZ        19.7260   58.3710   -0.7400 C.ar   89  TYR89       0.1957
     41  OH        18.5970   59.1350   -0.5440 O.3    89  TYR89      -0.2866
     42  N         25.4320   57.7660   -2.7030 N.am   90  TYR90      -0.1976
     43  CA        25.9390   59.0960   -3.0260 C.3    90  TYR90       0.1639
     44  C         27.1630   59.1720   -3.9300 C.2    90  TYR90       0.2290
     45  O         28.0760   59.9590   -3.6690 O.2    90  TYR90      -0.2864
     46  CB        26.2370   59.8520   -1.7310 C.3    90  TYR90       0.0560
     47  CG        25.0520   59.9550   -0.8020 C.ar   90  TYR90      -0.0198
     48  CD1       23.8410   60.4900   -1.2420 C.ar   90  TYR90      -0.0009
     49  CD2       25.1480   59.5480    0.5310 C.ar   90  TYR90      -0.0009
     50  CE1       22.7580   60.6220   -0.3810 C.ar   90  TYR90       0.0417
     51  CE2       24.0660   59.6790    1.4040 C.ar   90  TYR90       0.0417
     52  CZ        22.8790   60.2180    0.9410 C.ar   90  TYR90       0.1957
     53  OH        21.8160   60.3740    1.7990 O.3    90  TYR90      -0.2866
     54  N         14.3230   66.5360    9.7820 N.3   135  PHE135     -0.1241
     55  CA        15.5450   65.7690    9.9580 C.3   135  PHE135      0.1605
     56  C         15.6490   65.0840   11.3160 C.2   135  PHE135      0.2264
     57  O         15.0610   65.5410   12.2980 O.2   135  PHE135     -0.2867
     58  CB        16.7340   66.6630    9.6220 C.3   135  PHE135      0.0534
     59  CG        16.6550   67.2220    8.2220 C.ar  135  PHE135     -0.0203
     60  CD1       16.0210   68.4390    7.9770 C.ar  135  PHE135     -0.0042
     61  CD2       17.1170   66.4840    7.1410 C.ar  135  PHE135     -0.0042
     62  CE1       15.8450   68.9080    6.6780 C.ar  135  PHE135     -0.0003
     63  CE2       16.9450   66.9430    5.8350 C.ar  135  PHE135     -0.0003
     64  CZ        16.3060   68.1570    5.6030 C.ar  135  PHE135     -0.0000
     65  N          7.7830   63.9840    6.3220 N.3   162  ARG162     -0.1245
     66  CA         8.4240   62.6810    6.4540 C.3   162  ARG162      0.1563
     67  C          9.4670   62.8500    7.5650 C.2   162  ARG162      0.2260
     68  O         10.0160   63.9420    7.7580 O.2   162  ARG162     -0.2867
     69  CB         9.0630   62.2110    5.1400 C.3   162  ARG162      0.0307
     70  CG        10.1270   63.1020    4.5460 C.3   162  ARG162      0.0489
     71  CD        10.8000   62.3890    3.3740 C.3   162  ARG162      0.2205
     72  NE        11.7090   63.2600    2.6320 N.pl3 162  ARG162     -0.0865
     73  CZ        12.8410   62.8500    2.0640 C.cat 162  ARG162      0.5346
     74  NH1       13.6030   63.7160    1.4070 N.pl3 162  ARG162      0.1354
     75  NH2       13.2210   61.5760    2.1640 N.pl3 162  ARG162      0.1354
     76  N         13.0580   61.4470    9.4970 N.3   164  TYR164     -0.1241
     77  CA        14.2650   60.6290    9.4840 C.3   164  TYR164      0.1605
     78  C         14.3750   60.1020   10.9150 C.2   164  TYR164      0.2264
     79  O         14.3340   60.8800   11.8700 O.2   164  TYR164     -0.2867
     80  CB        15.4730   61.4860    9.1240 C.3   164  TYR164      0.0534
     81  CG        15.5460   61.8230    7.6570 C.ar  164  TYR164     -0.0201
     82  CD1       16.0590   60.9110    6.7380 C.ar  164  TYR164     -0.0009
     83  CD2       15.1200   63.0580    7.1840 C.ar  164  TYR164     -0.0009
     84  CE1       16.1540   61.2260    5.3780 C.ar  164  TYR164      0.0417
     85  CE2       15.2100   63.3830    5.8300 C.ar  164  TYR164      0.0417
     86  CZ        15.7320   62.4650    4.9310 C.ar  164  TYR164      0.1957
     87  OH        15.8580   62.7950    3.5930 O.3   164  TYR164     -0.2866
     88  N         12.1850   57.3820    7.6730 N.3   193  ASP193     -0.1239
     89  CA        13.3990   57.0550    6.9330 C.3   193  ASP193      0.1674
     90  C         14.5320   56.6960    7.8840 C.2   193  ASP193      0.2266
     91  O         14.9180   57.5090    8.7320 O.2   193  ASP193     -0.2867
     92  CB        13.8090   58.2610    6.0870 C.3   193  ASP193      0.1410
     93  CG        14.7350   57.8990    4.9550 C.2   193  ASP193      0.3668
     94  OD1       15.7010   57.1350    5.1790 O.co2 193  ASP193     -0.2456
     95  OD2       14.4910   58.3980    3.8360 O.co2 193  ASP193     -0.2456
     96  N         17.5870   55.6980    6.7610 N.3   195  SER195     -0.1217
     97  CA        18.8580   56.0050    6.1240 C.3   195  SER195      0.1889
     98  C         19.8810   54.8640    6.2050 C.2   195  SER195      0.2288
     99  O         21.0840   55.1100    6.3340 O.2   195  SER195     -0.2866
    100  CB        19.4470   57.2720    6.7510 C.3   195  SER195      0.2089
    101  OG        18.5660   58.3700    6.5940 O.3   195  SER195     -0.2183
    102  N         15.8500   53.5550   -2.1420 N.3   246  HIS246     -0.1241
    103  CA        16.3650   54.3540   -3.2450 C.3   246  HIS246      0.1621
    104  C         17.0230   53.4930   -4.3070 C.2   246  HIS246      0.2264
    105  O         17.5820   52.4420   -4.0060 O.2   246  HIS246     -0.2867
    106  CB        17.4050   55.3490   -2.7270 C.3   246  HIS246      0.0745
    107  CG        16.8520   56.3750   -1.7860 C.ar  246  HIS246      0.0817
    108  ND1       16.2160   57.5210   -2.2210 N.ar  246  HIS246     -0.2268
    109  CD2       16.8210   56.4160   -0.4320 C.ar  246  HIS246      0.1154
    110  CE1       15.8170   58.2210   -1.1740 C.ar  246  HIS246      0.1986
    111  NE2       16.1710   57.5730   -0.0770 N.ar  246  HIS246     -0.2212
    112  N         20.5150   60.6250   -8.1180 N.3   271  PHE271     -0.1241
    113  CA        21.1890   59.4100   -7.6440 C.3   271  PHE271      0.1605
    114  C         21.3770   58.3270   -8.6980 C.2   271  PHE271      0.2264
    115  O         22.1660   57.4050   -8.5060 O.2   271  PHE271     -0.2867
    116  CB        20.4240   58.7970   -6.4720 C.3   271  PHE271      0.0534
    117  CG        20.2260   59.7370   -5.3280 C.ar  271  PHE271     -0.0203
    118  CD1       21.3220   60.2790   -4.6620 C.ar  271  PHE271     -0.0042
    119  CD2       18.9440   60.0900   -4.9140 C.ar  271  PHE271     -0.0042
    120  CE1       21.1460   61.1590   -3.5980 C.ar  271  PHE271     -0.0003
    121  CE2       18.7540   60.9700   -3.8480 C.ar  271  PHE271     -0.0003
    122  CZ        19.8630   61.5050   -3.1910 C.ar  271  PHE271     -0.0000
    123  N         14.4810   62.4220   -3.6350 N.3   296  THR296     -0.1203
    124  CA        15.2080   63.6750   -3.7760 C.3   296  THR296      0.1994
    125  C         16.4800   63.7190   -2.9410 C.2   296  THR296      0.2619
    126  O         16.6530   62.9210   -2.0260 O.2   296  THR296     -0.2717
    127  CB        14.3260   64.8480   -3.3010 C.3   296  THR296      0.1784
    128  OG1       15.0130   66.0840   -3.4980 O.3   296  THR296     -0.2211
    129  CG2       14.0170   64.7010   -1.8120 C.3   296  THR296      0.0376
    130  N         17.3650   64.6540   -3.2790 N.am  297  THR297     -0.1938
    131  CA        18.5760   64.8870   -2.4950 C.3   297  THR297      0.2028
    132  C         18.4400   66.3420   -2.0200 C.2   297  THR297      0.2642
    133  O         19.3150   66.8660   -1.3340 O.2   297  THR297     -0.2714
    134  CB        19.8770   64.7660   -3.3240 C.3   297  THR297      0.1808
    135  OG1       20.9990   64.8920   -2.4400 O.3   297  THR297     -0.2208
    136  CG2       19.9660   65.8630   -4.3860 C.3   297  THR297      0.0379
    137  N         17.3060   66.9470   -2.3960 N.am  298  GLN298     -0.1976
    138  CA        16.9280   68.3410   -2.1160 C.3   298  GLN298      0.1601
    139  C         17.7120   69.2140   -3.0850 C.2   298  GLN298      0.2287
    140  O         18.8280   69.6260   -2.8000 O.2   298  GLN298     -0.2864
    141  CB        17.2230   68.7410   -0.6560 C.3   298  GLN298      0.0394
    142  CG        16.4070   67.9700    0.4120 C.3   298  GLN298      0.0908
    143  CD        14.8860   68.0130    0.1830 C.2   298  GLN298      0.2608
    144  OE1       14.4020   68.5770   -0.8080 O.2   298  GLN298     -0.2717
    145  NE2       14.1310   67.4060    1.1030 N.am  298  GLN298     -0.0878
    146  N         25.2280   62.7670    7.6790 N.3   383  GLN383     -0.1245
    147  CA        24.2030   61.7510    7.5380 C.3   383  GLN383      0.1566
    148  C         22.8250   62.3410    7.8010 C.2   383  GLN383      0.2260
    149  O         21.8640   61.9910    7.1200 O.2   383  GLN383     -0.2867
    150  CB        24.4230   60.5980    8.5240 C.3   383  GLN383      0.0367
    151  CG        25.7670   59.9030    8.4400 C.3   383  GLN383      0.0905
    152  CD        25.9240   58.8360    9.5200 C.2   383  GLN383      0.2608
    153  OE1       25.5070   59.0300   10.6700 O.2   383  GLN383     -0.2717
    154  NE2       26.5320   57.7100    9.1600 N.am  383  GLN383     -0.0878
    155  N         22.0340   65.7690    7.7790 N.3   385  ARG385     -0.1245
    156  CA        21.8150   67.0530    7.1060 C.3   385  ARG385      0.1563
    157  C         21.5170   68.1520    8.1400 C.2   385  ARG385      0.2260
    158  O         20.6980   69.0440    7.9060 O.2   385  ARG385     -0.2867
    159  CB        20.6520   66.9470    6.1010 C.3   385  ARG385      0.0307
    160  CG        20.6250   65.6480    5.2980 C.3   385  ARG385      0.0489
    161  CD        21.9880   65.3170    4.6890 C.3   385  ARG385      0.2205
    162  NE        22.3160   66.1370    3.5190 N.pl3 385  ARG385     -0.0865
    163  CZ        23.5480   66.2910    3.0390 C.cat 385  ARG385      0.5346
    164  NH1       24.5710   65.6930    3.6340 N.pl3 385  ARG385      0.1354
    165  NH2       23.7600   67.0140    1.9440 N.pl3 385  ARG385      0.1354
@<TRIPOS>BOND
     1   114   115    2
     2   114   113    1
     3   112   113    1
     4   113   116    1
     5   116   117    1
     6   117   119   ar
     7   117   118   ar
     8    12    13    1
     9   119   121   ar
    10   118   120   ar
    11   136   134    1
    12   104   105    2
    13   104   103    1
    14    33    32    2
    15    44    45    2
    16    44    43    1
    17   121   122   ar
    18   124   123    1
    19   124   127    1
    20   124   125    1
    21    13    14    1
    22    13    16    1
    23   120   122   ar
    24    14    15    2
    25   128   127    1
    26   134   131    1
    27   134   135    1
    28   127   129    1
    29   130   125   am
    30   130   131    1
    31   103   106    1
    32   103   102    1
    33    32    31    1
    34    32    42   am
    35   139   140    2
    36   139   138    1
    37    43    42    1
    38    43    46    1
    39   125   126    2
    40    16    17    1
    41    30    31    1
    42    31    34    1
    43   106   107    1
    44   131   132    1
    45   137   138    1
    46   137   132   am
    47   108   107   ar
    48   108   110   ar
    49    36    38   ar
    50    36    35   ar
    51   138   141    1
    52    38    40   ar
    53   132   133    2
    54   107   109   ar
    55    46    47    1
    56    34    35    1
    57    17    19   ar
    58    17    18   ar
    59    48    47   ar
    60    48    50   ar
    61   110   111   ar
    62    35    37   ar
    63   144   143    2
    64    47    49   ar
    65    40    41    1
    66    40    39   ar
    67   141   142    1
    68    27    29   ar
    69    27    25   ar
    70   109   111   ar
    71    50    52   ar
    72    29    28   ar
    73    37    39   ar
    74    24    25    1
    75    24    21    1
    76   143   142    1
    77   143   145   am
    78    25    26   ar
    79    23    22    2
    80    20    21    1
    81    49    51   ar
    82    52    51   ar
    83    52    53    1
    84    21    22    1
    85    28    26   ar
    86    74    73    1
    87    11     9    1
    88   165   163    1
    89    73    75    1
    90    73    72    2
    91     9     8    2
    92     9    10    1
    93     8     7    1
    94    72    71    1
    95   163   162    2
    96   163   164    1
    97     6     7    1
    98     6     5    1
    99    71    70    1
   100   162   161    1
   101    87    86    1
   102    95    93   ar
   103     1     2    1
   104     2     5    1
   105     2     3    1
   106    70    69    1
   107   161   160    1
   108    86    84   ar
   109    86    85   ar
   110    93    94   ar
   111    93    92    1
   112    69    66    1
   113   160   159    1
   114    84    82   ar
   115     3     4    2
   116    64    63   ar
   117    64    62   ar
   118    85    83   ar
   119    63    61   ar
   120    92    89    1
   121   159   156    1
   122    97    98    1
   123    97   100    1
   124    97    96    1
   125    98    99    2
   126    65    66    1
   127    66    67    1
   128   101   100    1
   129    62    60   ar
   130    82    81   ar
   131    89    88    1
   132    89    90    1
   133   156   155    1
   134   156   157    1
   135   149   148    2
   136    61    59   ar
   137    83    81   ar
   138   147   146    1
   139   147   148    1
   140   147   150    1
   141    67    68    2
   142    81    80    1
   143    90    91    2
   144   158   157    2
   145    60    59   ar
   146    59    58    1
   147   151   150    1
   148   151   152    1
   149    80    77    1
   150   154   152   am
   151    77    76    1
   152    77    78    1
   153   152   153    2
   154    58    55    1
   155    54    55    1
   156    55    56    1
   157    78    79    2
   158    56    57    2
