@<TRIPOS>MOLECULE
tmp/3esbA00.pdb
 116 109 0 0 0
SMALL
GASTEIGER

@<TRIPOS>ATOM
      1  N         23.3670    3.3760   19.7730 N.3    26  GLY26      -0.1210
      2  CA        23.7840    2.8570   21.0720 C.3    26  GLY26       0.1956
      3  C         23.1450    1.5180   21.3910 C.2    26  GLY26       0.2613
      4  O         22.2470    1.0640   20.6700 O.2    26  GLY26      -0.2717
      5  N         23.5920    0.8910   22.4810 N.am   27  SER27      -0.1938
      6  CA        23.0720   -0.4030   22.9070 C.3    27  SER27       0.2055
      7  C         21.5500   -0.3920   23.0760 C.2    27  SER27       0.2644
      8  O         20.9700    0.5600   23.6500 O.2    27  SER27      -0.2714
      9  CB        23.7290   -0.8570   24.2120 C.3    27  SER27       0.2130
     10  OG        25.1410   -0.7440   24.1610 O.3    27  SER27      -0.2179
     11  N         20.9210   -1.4610   22.5830 N.am   28  THR28      -0.1936
     12  CA        19.4690   -1.7040   22.6940 C.3    28  THR28       0.2028
     13  C         18.5830   -0.7510   21.8910 C.2    28  THR28       0.2642
     14  O         17.3560   -0.8430   21.9970 O.2    28  THR28      -0.2714
     15  CB        18.9370   -1.7530   24.1840 C.3    28  THR28       0.1808
     16  OG1       18.6180   -0.4220   24.6570 O.3    28  THR28      -0.2208
     17  CG2       19.9230   -2.4530   25.1360 C.3    28  THR28       0.0379
     18  N         19.1790    0.1450   21.0990 N.am   29  GLU29      -0.1976
     19  CA        18.4050    1.1770   20.3790 C.3    29  GLU29       0.1602
     20  C         17.6130    0.6440   19.1680 C.2    29  GLU29       0.2287
     21  O         17.9860   -0.3780   18.5710 O.2    29  GLU29      -0.2864
     22  CB        19.2950    2.3600   19.9820 C.3    29  GLU29       0.0415
     23  CG        19.7100    3.2510   21.1650 C.3    29  GLU29       0.1163
     24  CD        20.1590    4.6360   20.7440 C.2    29  GLU29       0.3649
     25  OE1       21.0000    4.7680   19.8380 O.co2  29  GLU29      -0.2457
     26  OE2       19.6770    5.6160   21.3410 O.co2  29  GLU29      -0.2457
     27  N         24.2050   -4.8760   24.8050 N.3    66  LEU66      -0.1245
     28  CA        24.7040   -4.2410   26.0280 C.3    66  LEU66       0.1561
     29  C         26.0270   -4.8480   26.5420 C.2    66  LEU66       0.2260
     30  O         26.9670   -4.1200   26.8400 O.2    66  LEU66      -0.2867
     31  CB        23.6340   -4.3100   27.1290 C.3    66  LEU66       0.0270
     32  CG        23.3040   -3.0790   27.9830 C.3    66  LEU66       0.0019
     33  CD1       23.1530   -3.4400   29.4880 C.3    66  LEU66       0.0001
     34  CD2       24.2780   -1.9090   27.7850 C.3    66  LEU66       0.0001
     35  N         29.6740   -3.8790   25.1740 N.3    69  ASN69      -0.1240
     36  CA        30.3660   -2.7200   25.7280 C.3    69  ASN69       0.1653
     37  C         31.5790   -3.1550   26.5440 C.2    69  ASN69       0.2266
     38  O         32.6010   -2.4590   26.5960 O.2    69  ASN69      -0.2867
     39  CB        29.4110   -1.9360   26.6300 C.3    69  ASN69       0.1155
     40  CG        28.4980   -1.0140   25.8570 C.2    69  ASN69       0.2627
     41  OD1       28.9510   -0.0570   25.2470 O.2    69  ASN69      -0.2716
     42  ND2       27.2060   -1.2930   25.8880 N.am   69  ASN69      -0.0877
     43  N         26.6730    6.8150   18.8120 N.3   104  TYR104     -0.1227
     44  CA        26.3170    7.1520   20.1790 C.3   104  TYR104      0.1736
     45  C         26.6520    5.9590   21.0560 C.2   104  TYR104      0.2596
     46  O         26.2400    4.8510   20.7440 O.2   104  TYR104     -0.2718
     47  CB        24.8090    7.4280   20.2620 C.3   104  TYR104      0.0548
     48  CG        24.2110    7.4630   21.6520 C.ar  104  TYR104     -0.0200
     49  CD1       24.8030    8.2060   22.6820 C.ar  104  TYR104     -0.0009
     50  CD2       23.0310    6.7760   21.9310 C.ar  104  TYR104     -0.0009
     51  CE1       24.2300    8.2550   23.9640 C.ar  104  TYR104      0.0417
     52  CE2       22.4570    6.8210   23.1850 C.ar  104  TYR104      0.0417
     53  CZ        23.0530    7.5690   24.1860 C.ar  104  TYR104      0.1957
     54  OH        22.4700    7.5960   25.4220 O.3   104  TYR104     -0.2866
     55  N         27.3870    6.1920   22.1460 N.am  105  SER105     -0.1938
     56  CA        27.6050    5.1750   23.1830 C.3   105  SER105      0.2055
     57  C         28.4380    4.0130   22.5980 C.2   105  SER105      0.2642
     58  O         29.5330    4.2600   22.0900 O.2   105  SER105     -0.2714
     59  CB        26.2420    4.7290   23.7490 C.3   105  SER105      0.2130
     60  OG        26.3950    3.8750   24.8750 O.3   105  SER105     -0.2179
     61  N         27.9200    2.7740   22.6070 N.am  106  GLN106     -0.1976
     62  CA        28.6380    1.6740   21.9520 C.3   106  GLN106      0.1601
     63  C         28.8830    1.9990   20.4910 C.2   106  GLN106      0.2287
     64  O         29.9090    1.6220   19.9320 O.2   106  GLN106     -0.2864
     65  CB        27.8990    0.3350   22.0610 C.3   106  GLN106      0.0394
     66  CG        28.6870   -0.8030   21.4370 C.3   106  GLN106      0.0908
     67  CD        27.9940   -2.1590   21.4900 C.2   106  GLN106      0.2608
     68  OE1       28.4060   -3.0840   20.7830 O.2   106  GLN106     -0.2717
     69  NE2       26.9420   -2.2890   22.3070 N.am  106  GLN106     -0.0878
     70  N         32.2790    6.0430   24.7430 N.3   135  THR135     -0.1218
     71  CA        32.6170    5.1410   25.8570 C.3   135  THR135      0.1862
     72  C         34.1040    4.9140   26.0130 C.2   135  THR135      0.2287
     73  O         34.5320    4.4010   27.0470 O.2   135  THR135     -0.2866
     74  CB        31.9040    3.7780   25.7560 C.3   135  THR135      0.1770
     75  OG1       32.1150    3.2250   24.4470 O.3   135  THR135     -0.2211
     76  CG2       30.4050    3.9310   26.0030 C.3   135  THR135      0.0375
     77  N         30.3860    7.5260   31.2200 N.3   162  VAL162     -0.1245
     78  CA        30.9920    6.6660   30.1770 C.3   162  VAL162      0.1561
     79  C         32.1460    7.3800   29.4840 C.2   162  VAL162      0.2260
     80  O         33.0340    6.7380   28.9100 O.2   162  VAL162     -0.2867
     81  CB        29.9770    6.1070   29.1390 C.3   162  VAL162      0.0252
     82  CG1       28.6470    5.7260   29.8020 C.3   162  VAL162      0.0019
     83  CG2       29.7620    7.0910   27.9740 C.3   162  VAL162      0.0019
     84  N         31.1920    2.5510   32.7160 N.3   167  LEU167     -0.1245
     85  CA        30.0430    2.1810   31.8960 C.3   167  LEU167      0.1561
     86  C         28.7150    2.4160   32.6300 C.2   167  LEU167      0.2260
     87  O         27.6620    1.9180   32.2220 O.2   167  LEU167     -0.2867
     88  CB        30.1860    0.7510   31.3540 C.3   167  LEU167      0.0270
     89  CG        31.2250    0.6280   30.2230 C.3   167  LEU167      0.0019
     90  CD1       31.6540   -0.8320   29.9780 C.3   167  LEU167      0.0001
     91  CD2       30.7200    1.3080   28.9040 C.3   167  LEU167      0.0001
     92  N         25.5560    4.4870   33.4140 N.3   169  VAL169     -0.1245
     93  CA        24.7530    5.4170   32.6560 C.3   169  VAL169      0.1561
     94  C         24.0740    6.3860   33.6200 C.2   169  VAL169      0.2260
     95  O         23.1110    6.0230   34.2970 O.2   169  VAL169     -0.2867
     96  CB        23.7060    4.6780   31.7950 C.3   169  VAL169      0.0252
     97  CG1       22.7170    5.6590   31.1820 C.3   169  VAL169      0.0019
     98  CG2       24.4030    3.8330   30.7220 C.3   169  VAL169      0.0019
     99  N         24.0960   11.2790   29.9850 N.3   173  HIS173     -0.1226
    100  CA        24.2920   10.3310   28.8960 C.3   173  HIS173      0.1752
    101  C         23.0350   10.2730   28.0250 C.2   173  HIS173      0.2595
    102  O         23.0700    9.8860   26.8540 O.2   173  HIS173     -0.2718
    103  CB        24.6400    8.9390   29.4620 C.3   173  HIS173      0.0759
    104  CG        25.0230    7.9410   28.4130 C.ar  173  HIS173      0.0818
    105  ND1       26.1850    8.0460   27.6780 N.ar  173  HIS173     -0.2268
    106  CD2       24.3850    6.8380   27.9540 C.ar  173  HIS173      0.1154
    107  CE1       26.2550    7.0440   26.8250 C.ar  173  HIS173      0.1986
    108  NE2       25.1760    6.2970   26.9730 N.ar  173  HIS173     -0.2212
    109  N         21.9270   10.6890   28.6170 N.am  174  LEU174     -0.1980
    110  CA        20.6330   10.6250   27.9760 C.3   174  LEU174      0.1596
    111  C         20.2260   11.9700   27.3550 C.2   174  LEU174      0.2287
    112  O         19.1530   12.0940   26.7650 O.2   174  LEU174     -0.2864
    113  CB        19.6030   10.1620   29.0090 C.3   174  LEU174      0.0297
    114  CG        19.3710    8.6770   29.3730 C.3   174  LEU174      0.0022
    115  CD1       20.4130    7.6310   28.8780 C.3   174  LEU174      0.0001
    116  CD2       19.1460    8.5420   30.8910 C.3   174  LEU174      0.0001
@<TRIPOS>BOND
     1    21    20    2
     2    43    44    1
     3    20    19    1
     4     1     2    1
     5    25    24   ar
     6    64    63    2
     7    22    19    1
     8    22    23    1
     9    44    47    1
    10    44    45    1
    11    47    48    1
    12    19    18    1
    13    63    62    1
    14     4     3    2
    15    46    45    2
    16    24    23    1
    17    24    26   ar
    18    68    67    2
    19    45    55   am
    20     2     3    1
    21    18    13   am
    22     3     5   am
    23    66    67    1
    24    66    65    1
    25    67    69   am
    26    48    50   ar
    27    48    49   ar
    28    13    14    2
    29    13    12    1
    30    50    52   ar
    31    62    65    1
    32    62    61    1
    33    58    57    2
    34    55    56    1
    35     5     6    1
    36    11    12    1
    37    11     7   am
    38    57    61   am
    39    57    56    1
    40    49    51   ar
    41    12    15    1
    42     6     7    1
    43     6     9    1
    44     7     8    2
    45    56    59    1
    46    52    53   ar
    47    59    60    1
    48    51    53   ar
    49    10     9    1
    50    15    16    1
    51    15    17    1
    52    53    54    1
    53    75    74    1
    54    70    71    1
    55    27    28    1
    56    35    36    1
    57    41    40    2
    58    36    37    1
    59    36    39    1
    60    74    71    1
    61    74    76    1
    62    71    72    1
    63    40    42   am
    64    40    39    1
    65    72    73    2
    66    28    29    1
    67    28    31    1
    68    29    30    2
    69    37    38    2
    70   112   111    2
    71   107   108   ar
    72   107   105   ar
    73   102   101    2
    74   108   106   ar
    75    31    32    1
    76   111   110    1
    77   105   104   ar
    78    34    32    1
    79   106   104   ar
    80    83    81    1
    81   110   109    1
    82   110   113    1
    83    32    33    1
    84   101   109   am
    85   101   100    1
    86   104   103    1
    87   115   114    1
    88   100   103    1
    89   100    99    1
    90    91    89    1
    91    80    79    2
    92   113   114    1
    93    81    82    1
    94    81    78    1
    95   114   116    1
    96    79    78    1
    97    90    89    1
    98    78    77    1
    99    89    88    1
   100    98    96    1
   101    97    96    1
   102    88    85    1
   103    96    93    1
   104    85    86    1
   105    85    84    1
   106    87    86    2
   107    93    92    1
   108    93    94    1
   109    94    95    2
