@<TRIPOS>MOLECULE
tmp/3escA00.pdb
 126 119 0 0 0
SMALL
GASTEIGER

@<TRIPOS>ATOM
      1  N         26.2620  -21.0230   12.6810 N.3    25  GLY25      -0.1210
      2  CA        27.6590  -21.0230   12.1880 C.3    25  GLY25       0.1956
      3  C         27.9170  -22.1550   11.2060 C.2    25  GLY25       0.2612
      4  O         27.0890  -23.0180   10.9560 O.2    25  GLY25      -0.2717
      5  N         29.1320  -22.0660   10.6490 N.am   26  SER26      -0.1952
      6  CA        29.5010  -23.1280    9.6800 C.3    26  SER26       0.1924
      7  C         29.3430  -24.5250   10.2460 C.2    26  SER26       0.2314
      8  O         29.7540  -24.7670   11.4000 O.2    26  SER26      -0.2863
      9  CB        30.9650  -22.9560    9.2470 C.3    26  SER26       0.2116
     10  OG        31.1250  -21.6910    8.6340 O.3    26  SER26      -0.2180
     11  N         27.0830  -26.1800   11.4410 N.3    28  GLU28      -0.1245
     12  CA        26.3010  -26.4600   12.6280 C.3    28  GLU28       0.1567
     13  C         25.0200  -27.2420   12.3610 C.2    28  GLU28       0.2260
     14  O         24.5030  -27.2600   11.2250 O.2    28  GLU28      -0.2867
     15  CB        25.9530  -25.1320   13.3520 C.3    28  GLU28       0.0388
     16  CG        27.2400  -24.5430   13.9820 C.3    28  GLU28       0.1160
     17  CD        26.9230  -23.5940   15.0990 C.2    28  GLU28       0.3649
     18  OE1       25.9590  -22.7850   14.9700 O.co2  28  GLU28      -0.2457
     19  OE2       27.6290  -23.5850   16.1470 O.co2  28  GLU28      -0.2457
     20  N         31.9940  -24.6250    5.2440 N.3    65  LEU65      -0.1231
     21  CA        33.2250  -23.9190    5.6380 C.3    65  LEU65       0.1693
     22  C         33.7990  -23.0980    4.5270 C.2    65  LEU65       0.2592
     23  O         34.2760  -21.9860    4.6980 O.2    65  LEU65      -0.2718
     24  CB        34.2700  -24.9650    6.0610 C.3    65  LEU65       0.0284
     25  CG        35.0000  -25.0070    7.3820 C.3    65  LEU65       0.0019
     26  CD1       34.3260  -24.2630    8.5270 C.3    65  LEU65       0.0001
     27  CD2       35.2390  -26.4750    7.8090 C.3    65  LEU65       0.0001
     28  N         33.8310  -23.6710    3.2910 N.am   66  GLY66      -0.1957
     29  CA        34.4990  -22.9440    2.2340 C.3    66  GLY66       0.1869
     30  C         33.8740  -21.6130    1.9120 C.2    66  GLY66       0.2309
     31  O         34.4790  -20.6570    1.4580 O.2    66  GLY66      -0.2863
     32  N         32.9880  -19.2990    3.7770 N.3    68  ASN68      -0.1225
     33  CA        33.5500  -18.1530    4.4940 C.3    68  ASN68       0.1785
     34  C         34.5410  -17.2970    3.7060 C.2    68  ASN68       0.2597
     35  O         34.8240  -16.1370    3.9870 O.2    68  ASN68      -0.2718
     36  CB        34.2850  -18.6300    5.7820 C.3    68  ASN68       0.1169
     37  CG        33.3300  -19.1920    6.8240 C.2    68  ASN68       0.2627
     38  OD1       32.7050  -18.4100    7.6070 O.2    68  ASN68      -0.2716
     39  ND2       33.1750  -20.4950    6.8540 N.am   68  ASN68      -0.0877
     40  N         35.1880  -17.9420    2.6930 N.am   69  ALA69      -0.1979
     41  CA        36.1910  -17.2670    1.8800 C.3    69  ALA69       0.1597
     42  C         35.5810  -16.4850    0.7380 C.2    69  ALA69       0.2287
     43  O         36.3030  -15.7480    0.0580 O.2    69  ALA69      -0.2864
     44  CB        37.1130  -18.3440    1.3150 C.3    69  ALA69       0.0319
     45  N         25.8060  -16.3860   14.1660 N.3   103  TYR103     -0.1227
     46  CA        27.0950  -16.7750   14.7010 C.3   103  TYR103      0.1736
     47  C         28.0680  -17.0740   13.5400 C.2   103  TYR103      0.2596
     48  O         27.7500  -17.9220   12.7200 O.2   103  TYR103     -0.2718
     49  CB        26.9280  -18.0450   15.5170 C.3   103  TYR103      0.0548
     50  CG        28.2020  -18.7010   16.0370 C.ar  103  TYR103     -0.0200
     51  CD1       29.3040  -18.0260   16.5280 C.ar  103  TYR103     -0.0009
     52  CD2       28.2400  -20.1110   15.9930 C.ar  103  TYR103     -0.0009
     53  CE1       30.4570  -18.6920   16.9960 C.ar  103  TYR103      0.0417
     54  CE2       29.3900  -20.7630   16.4630 C.ar  103  TYR103      0.0417
     55  CZ        30.4490  -20.0570   16.9530 C.ar  103  TYR103      0.1957
     56  OH        31.5600  -20.7640   17.3860 O.3   103  TYR103     -0.2866
     57  N         29.2420  -16.4530   13.5720 N.am  104  SER104     -0.1938
     58  CA        30.3490  -16.8510   12.6880 C.3   104  SER104      0.2055
     59  C         29.9130  -16.6230   11.2520 C.2   104  SER104      0.2642
     60  O         29.5430  -15.4690   10.9300 O.2   104  SER104     -0.2714
     61  CB        30.7800  -18.2920   13.0120 C.3   104  SER104      0.2130
     62  OG        32.1070  -18.4810   12.4340 O.3   104  SER104     -0.2179
     63  N         29.9260  -17.6470   10.3530 N.am  105  GLN105     -0.1976
     64  CA        29.3900  -17.3700    9.0090 C.3   105  GLN105      0.1601
     65  C         27.9740  -16.8330    9.0560 C.2   105  GLN105      0.2287
     66  O         27.5840  -16.0210    8.2170 O.2   105  GLN105     -0.2864
     67  CB        29.4520  -18.6860    8.2100 C.3   105  GLN105      0.0394
     68  CG        28.8850  -18.4580    6.7830 C.3   105  GLN105      0.0908
     69  CD        28.9970  -19.6650    5.8870 C.2   105  GLN105      0.2608
     70  OE1       29.5750  -20.7240    6.2540 O.2   105  GLN105     -0.2717
     71  NE2       28.4210  -19.4810    4.7290 N.am  105  GLN105     -0.0878
     72  N         32.5640  -12.5690   11.5970 N.3   134  THR134     -0.1218
     73  CA        33.7460  -12.7880   10.7520 C.3   134  THR134      0.1862
     74  C         34.0210  -11.5440    9.9160 C.2   134  THR134      0.2287
     75  O         35.1250  -11.5000    9.3560 O.2   134  THR134     -0.2866
     76  CB        33.5270  -13.9770    9.8100 C.3   134  THR134      0.1770
     77  OG1       32.2990  -13.7300    9.1210 O.3   134  THR134     -0.2211
     78  CG2       33.4490  -15.2770   10.5790 C.3   134  THR134      0.0375
     79  N         38.5890  -14.3560   14.3620 N.3   161  VAL161     -0.1245
     80  CA        37.7320  -14.0390   13.2070 C.3   161  VAL161      0.1561
     81  C         37.2080  -12.5950   13.3110 C.2   161  VAL161      0.2260
     82  O         36.7650  -12.1010   12.2800 O.2   161  VAL161     -0.2867
     83  CB        36.5350  -14.9820   12.9950 C.3   161  VAL161      0.0252
     84  CG1       36.9870  -16.4520   13.1300 C.3   161  VAL161      0.0019
     85  CG2       35.3490  -14.7060   13.9340 C.3   161  VAL161      0.0019
     86  N         40.3890  -16.0690    9.6850 N.3   166  LEU166     -0.1231
     87  CA        39.4400  -17.1910    9.6990 C.3   166  LEU166      0.1693
     88  C         39.8650  -18.2670   10.6940 C.2   166  LEU166      0.2592
     89  O         39.2150  -19.3030   10.7830 O.2   166  LEU166     -0.2718
     90  CB        39.2190  -17.7980    8.3020 C.3   166  LEU166      0.0284
     91  CG        38.4440  -16.8000    7.3920 C.3   166  LEU166      0.0019
     92  CD1       38.3890  -17.3470    5.9710 C.3   166  LEU166      0.0001
     93  CD2       37.0770  -16.4960    7.9550 C.3   166  LEU166      0.0001
     94  N         40.9930  -18.0560   11.4080 N.am  167  ILE167     -0.1966
     95  CA        41.3540  -19.0330   12.4430 C.3   167  ILE167      0.1727
     96  C         40.3300  -19.0700   13.5600 C.2   167  ILE167      0.2616
     97  O         39.9810  -17.9950   14.0890 O.2   167  ILE167     -0.2715
     98  CB        42.7530  -18.7070   13.0330 C.3   167  ILE167      0.0290
     99  CG1       43.8650  -18.8760   11.9740 C.3   167  ILE167      0.0022
    100  CG2       43.1170  -19.5470   14.2350 C.3   167  ILE167      0.0023
    101  CD1       45.1650  -18.2190   12.4630 C.3   167  ILE167      0.0001
    102  N         39.8930  -20.3000   13.8940 N.am  168  VAL168     -0.1977
    103  CA        38.9450  -20.4760   15.0140 C.3   168  VAL168      0.1596
    104  C         39.7110  -20.8910   16.2380 C.2   168  VAL168      0.2287
    105  O         40.2520  -22.0200   16.2990 O.2   168  VAL168     -0.2864
    106  CB        37.9400  -21.5690   14.6290 C.3   168  VAL168      0.0276
    107  CG1       37.0680  -22.0240   15.7860 C.3   168  VAL168      0.0022
    108  CG2       37.1160  -21.0310   13.4480 C.3   168  VAL168      0.0022
    109  N         36.3770  -18.0960   20.1260 N.3   172  HIS172     -0.1226
    110  CA        35.2690  -18.2130   19.1640 C.3   172  HIS172      0.1752
    111  C         34.2310  -19.2360   19.5800 C.2   172  HIS172      0.2595
    112  O         33.0800  -19.1980   19.0940 O.2   172  HIS172     -0.2718
    113  CB        35.8430  -18.6330   17.8130 C.3   172  HIS172      0.0759
    114  CG        34.8320  -18.5420   16.6920 C.ar  172  HIS172      0.0818
    115  ND1       34.3630  -17.3150   16.2480 N.ar  172  HIS172     -0.2268
    116  CD2       34.2110  -19.4980   16.0040 C.ar  172  HIS172      0.1154
    117  CE1       33.4760  -17.5710   15.2810 C.ar  172  HIS172      0.1986
    118  NE2       33.3690  -18.8860   15.1120 N.ar  172  HIS172     -0.2212
    119  N         34.6420  -20.1770   20.4330 N.am  173  LEU173     -0.1980
    120  CA        33.8220  -21.3220   20.8440 C.3   173  LEU173      0.1596
    121  C         33.1550  -21.0460   22.1720 C.2   173  LEU173      0.2287
    122  O         32.5230  -21.9580   22.7580 O.2   173  LEU173     -0.2864
    123  CB        34.7130  -22.5710   20.9060 C.3   173  LEU173      0.0297
    124  CG        34.9420  -23.4680   19.6900 C.3   173  LEU173      0.0022
    125  CD1       34.4720  -22.9780   18.3340 C.3   173  LEU173      0.0001
    126  CD2       36.3980  -23.9600   19.5710 C.3   173  LEU173      0.0001
@<TRIPOS>BOND
     1    43    42    2
     2    42    41    1
     3    44    41    1
     4    31    30    2
     5    41    40    1
     6    30    29    1
     7    29    28    1
     8    40    34   am
     9    28    22   am
    10    34    35    2
    11    34    33    1
    12    32    33    1
    13    33    36    1
    14    22    23    2
    15    22    21    1
    16    71    69   am
    17    20    21    1
    18    21    24    1
    19    36    37    1
    20    69    70    2
    21    69    68    1
    22    92    91    1
    23    24    25    1
    24    68    67    1
    25    37    39   am
    26    37    38    2
    27    25    27    1
    28    25    26    1
    29    91    93    1
    30    91    90    1
    31    67    64    1
    32    66    65    2
    33    90    87    1
    34    10     9    1
    35    64    65    1
    36    64    63    1
    37    77    76    1
    38     9     6    1
    39    75    74    2
    40     6     7    1
    41     6     5    1
    42    86    87    1
    43    87    88    1
    44    76    78    1
    45    76    73    1
    46    74    73    1
    47     7     8    2
    48    63    59   am
    49     5     3   am
    50    88    89    2
    51    88    94   am
    52    73    72    1
    53    60    59    2
    54     4     3    2
    55     3     2    1
    56    14    13    2
    57    59    58    1
    58    94    95    1
    59    11    12    1
    60    99   101    1
    61    99    98    1
    62     2     1    1
    63    82    81    2
    64    13    12    1
    65    62    61    1
    66    95    98    1
    67    95    96    1
    68    12    15    1
    69    58    61    1
    70    58    57    1
    71    48    47    2
    72    83    84    1
    73    83    80    1
    74    83    85    1
    75    98   100    1
    76    80    81    1
    77    80    79    1
    78    15    16    1
    79   108   106    1
    80    47    57   am
    81    47    46    1
    82    96   102   am
    83    96    97    2
    84   102   103    1
    85    16    17    1
    86    45    46    1
    87   106   103    1
    88   106   107    1
    89    46    49    1
    90    18    17   ar
    91   103   104    1
    92    17    19   ar
    93   118   117   ar
    94   118   116   ar
    95   117   115   ar
    96    49    50    1
    97    52    50   ar
    98    52    54   ar
    99   116   114   ar
   100    50    51   ar
   101   104   105    2
   102   115   114   ar
   103    54    55   ar
   104    51    53   ar
   105   114   113    1
   106    55    53   ar
   107    55    56    1
   108   113   110    1
   109   125   124    1
   110   112   111    2
   111   110   111    1
   112   110   109    1
   113   126   124    1
   114   111   119   am
   115   124   123    1
   116   119   120    1
   117   120   123    1
   118   120   121    1
   119   121   122    2
