@<TRIPOS>MOLECULE
tmp/3esjA00.pdb
 79 77 0 0 0
SMALL
GASTEIGER

@<TRIPOS>ATOM
      1  N          8.6290   23.7210   15.0760 N.3   103  ALA103     -0.1231
      2  CA         7.2260   23.5030   14.7450 C.3   103  ALA103      0.1694
      3  C          6.9500   23.9990   13.3380 C.2   103  ALA103      0.2592
      4  O          7.4470   25.0660   12.9170 O.2   103  ALA103     -0.2718
      5  CB         6.3320   24.2300   15.7450 C.3   103  ALA103      0.0304
      6  N          6.1580   23.2140   12.6070 N.am  104  GLN104     -0.1966
      7  CA         5.6730   23.6070   11.2840 C.3   104  GLN104      0.1733
      8  C          4.6280   24.7150   11.3950 C.2   104  GLN104      0.2616
      9  O          4.5740   25.6140   10.5510 O.2   104  GLN104     -0.2715
     10  CB         5.0750   22.3930   10.5780 C.3   104  GLN104      0.0408
     11  CG         4.7490   22.6130    9.1090 C.3   104  GLN104      0.0908
     12  CD         5.9790   22.9050    8.2520 C.2   104  GLN104      0.2608
     13  OE1        7.0920   22.4230    8.5140 O.2   104  GLN104     -0.2717
     14  NE2        5.7780   23.6990    7.2140 N.am  104  GLN104     -0.0878
     15  N          3.8130   24.6380   12.4530 N.am  105  ALA105     -0.1964
     16  CA         2.6830   25.5250   12.7070 C.3   105  ALA105      0.1713
     17  C          2.2310   25.2100   14.1200 C.2   105  ALA105      0.2458
     18  O          2.4500   24.0980   14.5840 O.2   105  ALA105     -0.2730
     19  CB         1.5450   25.2350   11.7250 C.3   105  ALA105      0.0333
     20  N          1.5690   26.1610   14.8070 N.am  106  PRO106     -0.2716
     21  CA         1.1790   27.5250   14.4060 C.3   106  PRO106      0.1536
     22  C          2.3600   28.4860   14.3940 C.2   106  PRO106      0.2598
     23  O          3.4510   28.1000   14.8360 O.2   106  PRO106     -0.2715
     24  CB         0.1850   27.9270   15.4980 C.3   106  PRO106      0.0310
     25  CG         0.5750   27.0910   16.6940 C.3   106  PRO106      0.0237
     26  CD         1.1080   25.8200   16.1710 C.3   106  PRO106      0.0939
     27  N          2.1560   29.7170   13.8930 N.am  107  LYS107     -0.1964
     28  CA         3.1950   30.7640   13.9250 C.3   107  LYS107      0.1728
     29  C          3.5790   31.1030   15.3570 C.2   107  LYS107      0.2616
     30  O          2.7010   31.3630   16.1680 O.2   107  LYS107     -0.2715
     31  CB         2.7220   32.0480   13.2510 C.3   107  LYS107      0.0311
     32  CG         3.2450   32.2540   11.8670 C.3   107  LYS107      0.0038
     33  CD         4.6580   32.8860   11.8020 C.3   107  LYS107      0.0206
     34  CE         5.1460   32.8360   10.3390 C.3   107  LYS107      0.1093
     35  NZ         6.6180   32.9740   10.1170 N.3   107  LYS107     -0.1314
     36  N          4.8810   31.1270   15.6560 N.am  108  MET108     -0.1963
     37  CA         5.3370   31.3640   17.0330 C.3   108  MET108      0.1736
     38  C          5.7360   32.8090   17.2460 C.2   108  MET108      0.2616
     39  O          5.5210   33.3710   18.3270 O.2   108  MET108     -0.2715
     40  CB         6.4970   30.4470   17.3920 C.3   108  MET108      0.0427
     41  CG         6.1310   28.9830   17.3770 C.3   108  MET108      0.0599
     42  SD         4.9090   28.5930   18.6590 S.3   108  MET108     -0.1393
     43  CE         4.5370   26.8950   18.2310 C.3   108  MET108      0.0692
     44  N          6.2890   33.4220   16.1990 N.am  109  LEU109     -0.1977
     45  CA         6.7780   34.8020   16.2810 C.3   109  LEU109      0.1596
     46  C          5.8870   35.8210   17.0150 C.2   109  LEU109      0.2287
     47  O          6.4110   36.5900   17.8260 O.2   109  LEU109     -0.2864
     48  CB         7.1550   35.3330   14.9010 C.3   109  LEU109      0.0297
     49  CG         8.6200   35.1970   14.5180 C.3   109  LEU109      0.0022
     50  CD1        8.7270   35.5010   13.0420 C.3   109  LEU109      0.0001
     51  CD2        9.5380   36.1260   15.3400 C.3   109  LEU109      0.0001
     52  N         11.9910   30.4100   16.8940 N.3   134  ALA134     -0.1231
     53  CA        11.3480   29.2720   16.2800 C.3   134  ALA134      0.1694
     54  C         11.9800   28.9140   14.9380 C.2   134  ALA134      0.2593
     55  O         12.5090   29.7750   14.2150 O.2   134  ALA134     -0.2718
     56  CB         9.8820   29.5260   16.1200 C.3   134  ALA134      0.0304
     57  N         11.9530   27.6220   14.6260 N.am  135  THR135     -0.1939
     58  CA        12.2950   27.1640   13.2830 C.3   135  THR135      0.2028
     59  C         11.3050   26.1100   12.8370 C.2   135  THR135      0.2642
     60  O         10.7430   25.3570   13.6470 O.2   135  THR135     -0.2714
     61  CB        13.7940   26.7020   13.1010 C.3   135  THR135      0.1808
     62  OG1       13.8980   25.2890   13.1750 O.3   135  THR135     -0.2208
     63  CG2       14.6900   27.2710   14.1650 C.3   135  THR135      0.0379
     64  N         11.0720   26.1010   11.5390 N.am  136  THR136     -0.1950
     65  CA        10.2400   25.1090   10.8940 C.3   136  THR136      0.1897
     66  C         11.2000   24.0870   10.3030 C.2   136  THR136      0.2313
     67  O         12.3420   24.4130   10.0700 O.2   136  THR136     -0.2863
     68  CB         9.3670   25.7490    9.7960 C.3   136  THR136      0.1794
     69  OG1        9.3920   24.9060    8.6540 O.3   136  THR136     -0.2208
     70  CG2        9.9320   27.1020    9.3430 C.3   136  THR136      0.0378
     71  N         10.5840   22.6420    7.3540 N.3   138  GLU138     -0.1245
     72  CA        10.2360   22.6490    5.9380 C.3   138  GLU138      0.1567
     73  C          9.4820   21.4020    5.5100 C.2   138  GLU138      0.2260
     74  O          9.8280   20.7900    4.4900 O.2   138  GLU138     -0.2867
     75  CB        11.4930   22.8010    5.0640 C.3   138  GLU138      0.0388
     76  CG        12.4630   23.9170    5.4620 C.3   138  GLU138      0.1160
     77  CD        11.9470   25.3120    5.1540 C.2   138  GLU138      0.3649
     78  OE1       12.7830   26.2200    4.9500 O.co2 138  GLU138     -0.2457
     79  OE2       10.7120   25.5070    5.1280 O.co2 138  GLU138     -0.2457
@<TRIPOS>BOND
     1    74    73    2
     2    78    77   ar
     3    75    76    1
     4    75    72    1
     5    79    77   ar
     6    77    76    1
     7    73    72    1
     8    72    71    1
     9    14    12   am
    10    12    13    2
    11    12    11    1
    12    69    68    1
    13    11    10    1
    14    70    68    1
    15    68    65    1
    16    67    66    2
    17    35    34    1
    18    66    65    1
    19    34    33    1
    20     9     8    2
    21    10     7    1
    22    65    64    1
    23     7     8    1
    24     7     6    1
    25     8    15   am
    26    64    59   am
    27    19    16    1
    28    33    32    1
    29    32    31    1
    30    15    16    1
    31     6     3   am
    32    16    17    1
    33    59    58    1
    34    59    60    2
    35     4     3    2
    36    50    49    1
    37    61    62    1
    38    61    58    1
    39    61    63    1
    40    31    28    1
    41    58    57    1
    42     3     2    1
    43    27    28    1
    44    27    22   am
    45    28    29    1
    46    17    18    2
    47    17    20   am
    48    55    54    2
    49    22    21    1
    50    22    23    2
    51    21    20    1
    52    21    24    1
    53    49    48    1
    54    49    51    1
    55    57    54   am
    56     2     1    1
    57     2     5    1
    58    20    26    1
    59    48    45    1
    60    54    53    1
    61    29    36   am
    62    29    30    2
    63    24    25    1
    64    36    37    1
    65    56    53    1
    66    26    25    1
    67    44    45    1
    68    44    38   am
    69    53    52    1
    70    45    46    1
    71    46    47    2
    72    37    38    1
    73    37    40    1
    74    38    39    2
    75    41    40    1
    76    41    42    1
    77    43    42    1
