@<TRIPOS>MOLECULE
tmp/3esjA01.pdb
 81 76 0 0 0
SMALL
GASTEIGER

@<TRIPOS>ATOM
      1  N         15.6290   19.1300   25.9470 N.3    10  PHE10      -0.1241
      2  CA        14.9000   18.8250   24.7220 C.3    10  PHE10       0.1605
      3  C         13.5650   18.1150   25.0530 C.2    10  PHE10       0.2264
      4  O         13.5170   17.2400   25.9310 O.2    10  PHE10      -0.2867
      5  CB        15.7760   17.9900   23.7870 C.3    10  PHE10       0.0534
      6  CG        15.0560   17.4710   22.6010 C.ar   10  PHE10      -0.0203
      7  CD1       14.9510   18.2290   21.4540 C.ar   10  PHE10      -0.0042
      8  CD2       14.4640   16.2130   22.6290 C.ar   10  PHE10      -0.0042
      9  CE1       14.2580   17.7500   20.3500 C.ar   10  PHE10      -0.0003
     10  CE2       13.7680   15.7110   21.5060 C.ar   10  PHE10      -0.0003
     11  CZ        13.6660   16.4900   20.3760 C.ar   10  PHE10      -0.0000
     12  N         10.5980   24.0640   17.6660 N.3   102  ILE102     -0.1245
     13  CA        10.6580   23.4570   16.3540 C.3   102  ILE102      0.1561
     14  C          9.2660   22.9990   15.9980 C.2   102  ILE102      0.2260
     15  O          8.7760   22.0280   16.5580 O.2   102  ILE102     -0.2867
     16  CB        11.6350   22.2810   16.3170 C.3   102  ILE102      0.0252
     17  CG1       13.0340   22.7860   16.6350 C.3   102  ILE102      0.0019
     18  CG2       11.6150   21.6180   14.9390 C.3   102  ILE102      0.0019
     19  CD1       13.8210   21.8810   17.4580 C.3   102  ILE102      0.0001
     20  N         10.7700   22.8470   10.0940 N.3   137  THR137     -0.1218
     21  CA        11.6530   21.8980    9.4110 C.3   137  THR137      0.1862
     22  C         11.2340   21.6450    7.9530 C.2   137  THR137      0.2287
     23  O         11.4940   20.5760    7.3930 O.2   137  THR137     -0.2866
     24  CB        11.7900   20.5840   10.1560 C.3   137  THR137      0.1770
     25  OG1       10.5150   19.9380   10.2050 O.3   137  THR137     -0.2211
     26  CG2       12.3150   20.8140   11.5530 C.3   137  THR137      0.0375
     27  N          9.5170   18.4820    6.6370 N.3   140  LEU140     -0.1231
     28  CA        10.2540   17.2450    6.8680 C.3   140  LEU140      0.1693
     29  C         10.0770   16.7370    8.3000 C.2   140  LEU140      0.2593
     30  O          9.9520   17.5220    9.2490 O.2   140  LEU140     -0.2718
     31  CB        11.7420   17.4560    6.5630 C.3   140  LEU140      0.0284
     32  CG        12.1820   17.8170    5.1450 C.3   140  LEU140      0.0019
     33  CD1       13.6910   17.8460    5.0620 C.3   140  LEU140      0.0001
     34  CD2       11.6310   16.7940    4.1640 C.3   140  LEU140      0.0001
     35  N         10.0700   15.4230    8.4550 N.am  141  GLY141     -0.1942
     36  CA         9.9260   14.8110    9.7650 C.3   141  GLY141      0.2014
     37  C          8.5510   14.8400   10.4280 C.2   141  GLY141      0.2639
     38  O          7.5590   15.2580    9.8130 O.2   141  GLY141     -0.2714
     39  N          8.4930   14.3830   11.6830 N.am  142  PHE142     -0.1959
     40  CA         7.2300   14.3260   12.4260 C.3   142  PHE142      0.1771
     41  C          6.6940   15.7380   12.7200 C.2   142  PHE142      0.2620
     42  O          5.4820   15.9810   12.7590 O.2   142  PHE142     -0.2715
     43  CB         7.3290   13.4480   13.6910 C.3   142  PHE142      0.0574
     44  CG         8.1500   14.0410   14.8200 C.ar  142  PHE142     -0.0200
     45  CD1        7.6300   15.0500   15.6340 C.ar  142  PHE142     -0.0042
     46  CD2        9.4270   13.5420   15.1080 C.ar  142  PHE142     -0.0042
     47  CE1        8.3910   15.5970   16.6800 C.ar  142  PHE142     -0.0003
     48  CE2       10.1890   14.0650   16.1550 C.ar  142  PHE142     -0.0003
     49  CZ         9.6760   15.0940   16.9430 C.ar  142  PHE142     -0.0000
     50  N          7.6260   16.6570   12.8940 N.am  143  THR143     -0.1951
     51  CA         7.3690   18.0700   13.0460 C.3   143  THR143      0.1897
     52  C          6.7850   18.6300   11.7270 C.2   143  THR143      0.2313
     53  O          5.7470   19.3130   11.7230 O.2   143  THR143     -0.2863
     54  CB         8.7270   18.7250   13.4620 C.3   143  THR143      0.1794
     55  OG1        8.7320   18.9650   14.8740 O.3   143  THR143     -0.2208
     56  CG2        9.0080   19.9750   12.7540 C.3   143  THR143      0.0378
     57  N          5.4090   17.1400    9.1920 N.3   145  ARG145     -0.1245
     58  CA         4.1260   16.5500    8.8740 C.3   145  ARG145      0.1563
     59  C          3.0090   16.9610    9.8560 C.2   145  ARG145      0.2260
     60  O          1.9080   16.3980    9.8050 O.2   145  ARG145     -0.2867
     61  CB         4.2650   15.0300    8.8640 C.3   145  ARG145      0.0307
     62  CG         5.2100   14.5090    7.7940 C.3   145  ARG145      0.0489
     63  CD         5.0490   12.9980    7.6370 C.3   145  ARG145      0.2205
     64  NE         5.3220   12.3250    8.9020 N.pl3 145  ARG145     -0.0865
     65  CZ         6.5340   11.9340    9.2860 C.cat 145  ARG145      0.5346
     66  NH1        7.5740   12.1290    8.4850 N.pl3 145  ARG145      0.1354
     67  NH2        6.7080   11.3580   10.4680 N.pl3 145  ARG145      0.1354
     68  N          8.4450   19.9350   18.7800 N.3   150  ALA150     -0.1245
     69  CA         9.6550   19.6900   19.5500 C.3   150  ALA150      0.1562
     70  C         10.2030   21.0250   20.0230 C.2   150  ALA150      0.2260
     71  O          9.9020   22.0640   19.4320 O.2   150  ALA150     -0.2867
     72  CB        10.6650   18.9930   18.7030 C.3   150  ALA150      0.0290
     73  N         13.9640   22.8630   22.0100 N.3   152  GLU152     -0.1245
     74  CA        15.2560   22.7840   22.6960 C.3   152  GLU152      0.1567
     75  C         15.4800   24.0400   23.5290 C.2   152  GLU152      0.2260
     76  O         14.9040   25.0970   23.2480 O.2   152  GLU152     -0.2867
     77  CB        16.4330   22.6660   21.7210 C.3   152  GLU152      0.0388
     78  CG        16.4110   21.4690   20.8260 C.3   152  GLU152      0.1160
     79  CD        17.7880   21.0260   20.3760 C.2   152  GLU152      0.3649
     80  OE1       18.7360   20.9020   21.1870 O.co2 152  GLU152     -0.2457
     81  OE2       17.9540   20.7150   19.1830 O.co2 152  GLU152     -0.2457
@<TRIPOS>BOND
     1    34    32    1
     2    33    32    1
     3    32    31    1
     4    31    28    1
     5    27    28    1
     6    28    29    1
     7    23    22    2
     8    63    62    1
     9    63    64    1
    10    62    61    1
    11    22    21    1
    12    29    35   am
    13    29    30    2
    14    35    36    1
    15    66    65    1
    16    61    58    1
    17    58    57    1
    18    58    59    1
    19    64    65    2
    20    65    67    1
    21    21    20    1
    22    21    24    1
    23    36    37    1
    24    60    59    2
    25    38    37    2
    26    24    25    1
    27    24    26    1
    28    37    39   am
    29    39    40    1
    30    53    52    2
    31    52    51    1
    32    40    41    1
    33    40    43    1
    34    41    42    2
    35    41    50   am
    36    56    54    1
    37    50    51    1
    38    51    54    1
    39    54    55    1
    40    43    44    1
    41    44    46   ar
    42    44    45   ar
    43    18    16    1
    44    46    48   ar
    45    45    47   ar
    46    14    13    1
    47    14    15    2
    48    48    49   ar
    49    16    13    1
    50    16    17    1
    51    13    12    1
    52    17    19    1
    53    47    49   ar
    54    72    69    1
    55    68    69    1
    56    81    79   ar
    57    71    70    2
    58    69    70    1
    59     9    11   ar
    60     9     7   ar
    61    79    78    1
    62    79    80   ar
    63    11    10   ar
    64    78    77    1
    65     7     6   ar
    66    10     8   ar
    67    77    74    1
    68    73    74    1
    69     6     8   ar
    70     6     5    1
    71    74    75    1
    72    76    75    2
    73     5     2    1
    74     2     3    1
    75     2     1    1
    76     3     4    2
