@<TRIPOS>MOLECULE
tmp/3eskA00.pdb
 169 157 0 0 0
SMALL
GASTEIGER

@<TRIPOS>ATOM
      1  N         24.6150    2.7110   -5.1430 N.3     8  LYS8       -0.1231
      2  CA        23.5950    2.8470   -4.0640 C.3     8  LYS8        0.1693
      3  C         22.2720    3.4250   -4.5930 C.2     8  LYS8        0.2591
      4  O         21.1390    2.9110   -4.3690 O.2     8  LYS8       -0.2718
      5  CB        24.1800    3.7350   -2.9520 C.3     8  LYS8        0.0285
      6  CG        23.2550    4.0720   -1.8050 C.3     8  LYS8        0.0035
      7  CD        23.6780    5.3110   -1.0510 C.3     8  LYS8        0.0206
      8  CE        23.1910    6.5780   -1.6850 C.3     8  LYS8        0.1093
      9  NZ        23.2130    7.7180   -0.7580 N.3     8  LYS8       -0.1314
     10  N         22.4060    4.4820   -5.3710 N.am    9  GLU9       -0.1979
     11  CA        21.2190    5.1360   -5.9040 C.3     9  GLU9        0.1602
     12  C         20.4340    4.2610   -6.8770 C.2     9  GLU9        0.2287
     13  O         19.2620    4.2270   -6.7800 O.2     9  GLU9       -0.2864
     14  CB        21.5260    6.5330   -6.4300 C.3     9  GLU9        0.0415
     15  CG        21.5680    7.6000   -5.3540 C.3     9  GLU9        0.1163
     16  CD        20.3310    7.6310   -4.3910 C.2     9  GLU9        0.3649
     17  OE1       19.2130    7.3350   -4.7760 O.co2   9  GLU9       -0.2457
     18  OE2       20.5140    8.0000   -3.2560 O.co2   9  GLU9       -0.2457
     19  N         18.6440    2.0290   -4.4840 N.3    12  ASN12      -0.1240
     20  CA        17.5690    2.8150   -3.8950 C.3    12  ASN12       0.1653
     21  C         16.3380    2.8420   -4.8180 C.2    12  ASN12       0.2266
     22  O         15.2350    2.4720   -4.4060 O.2    12  ASN12      -0.2867
     23  CB        18.1060    4.2270   -3.5250 C.3    12  ASN12       0.1155
     24  CG        19.0230    4.2150   -2.2720 C.2    12  ASN12       0.2627
     25  OD1       19.2570    3.1560   -1.6710 O.2    12  ASN12      -0.2716
     26  ND2       19.5980    5.3940   -1.9120 N.am   12  ASN12      -0.0877
     27  N         14.7450   -0.7190   -4.8250 N.3    15  TYR15      -0.1227
     28  CA        14.0850   -0.9910   -3.5350 C.3    15  TYR15       0.1736
     29  C         12.7090   -0.3280   -3.4850 C.2    15  TYR15       0.2595
     30  O         11.7170   -0.9470   -3.0980 O.2    15  TYR15      -0.2718
     31  CB        14.9780   -0.5070   -2.3950 C.3    15  TYR15       0.0548
     32  CG        14.3210   -0.3880   -1.0460 C.ar   15  TYR15      -0.0200
     33  CD1       14.2560   -1.4470   -0.2030 C.ar   15  TYR15      -0.0009
     34  CD2       13.7880    0.8330   -0.5980 C.ar   15  TYR15      -0.0009
     35  CE1       13.6080   -1.3470    1.0720 C.ar   15  TYR15       0.0417
     36  CE2       13.1480    0.9540    0.6650 C.ar   15  TYR15       0.0417
     37  CZ        13.0940   -0.1250    1.5080 C.ar   15  TYR15       0.1957
     38  OH        12.4760   -0.0540    2.7530 O.3    15  TYR15      -0.2866
     39  N         12.6490    0.9310   -3.9020 N.am   16  LYS16      -0.1980
     40  CA        11.3950    1.6590   -3.9390 C.3    16  LYS16       0.1596
     41  C         10.3750    1.1070   -4.8830 C.2    16  LYS16       0.2287
     42  O          9.2380    1.5730   -4.8200 O.2    16  LYS16      -0.2864
     43  CB        11.5740    3.1680   -4.2390 C.3    16  LYS16       0.0298
     44  CG        12.3810    3.8820   -3.2050 C.3    16  LYS16       0.0038
     45  CD        12.5970    5.3420   -3.5510 C.3    16  LYS16       0.0206
     46  CE        13.0310    6.2940   -2.5710 C.3    16  LYS16       0.1093
     47  NZ        14.4360    6.7600   -3.1830 N.3    16  LYS16      -0.1314
     48  N         10.1620   -2.2600   -5.1080 N.3    18  LYS18      -0.1245
     49  CA        10.1010   -3.5620   -4.5390 C.3    18  LYS18       0.1561
     50  C         10.8430   -4.6090   -5.3620 C.2    18  LYS18       0.2260
     51  O         10.5420   -5.7590   -5.3460 O.2    18  LYS18      -0.2867
     52  CB         8.6580   -3.9560   -4.2800 C.3    18  LYS18       0.0271
     53  CG         7.8180   -2.8250   -3.8050 C.3    18  LYS18       0.0035
     54  CD         6.4260   -3.1970   -3.7610 C.3    18  LYS18       0.0206
     55  CE         6.1470   -4.0230   -2.5770 C.3    18  LYS18       0.1093
     56  NZ         5.9800   -3.2790   -1.3570 N.3    18  LYS18      -0.1314
     57  N         23.4780   -2.6100   -4.0100 N.3    27  TYR27      -0.1241
     58  CA        24.0740   -2.4060   -2.7040 C.3    27  TYR27       0.1605
     59  C         25.3770   -3.1490   -2.4740 C.2    27  TYR27       0.2264
     60  O         26.2990   -2.5420   -1.9110 O.2    27  TYR27      -0.2867
     61  CB        23.1060   -2.7080   -1.5590 C.3    27  TYR27       0.0534
     62  CG        21.9020   -1.7810   -1.5350 C.ar   27  TYR27      -0.0201
     63  CD1       20.6760   -2.2460   -1.1590 C.ar   27  TYR27      -0.0009
     64  CD2       21.9850   -0.4310   -1.9420 C.ar   27  TYR27      -0.0009
     65  CE1       19.5550   -1.4330   -1.1410 C.ar   27  TYR27       0.0417
     66  CE2       20.8500    0.3860   -1.9400 C.ar   27  TYR27       0.0417
     67  CZ        19.6530   -0.1040   -1.5190 C.ar   27  TYR27       0.1957
     68  OH        18.4870    0.7050   -1.4720 O.3    27  TYR27      -0.2866
     69  N         25.9770    3.0590    5.4850 N.3    39  THR39      -0.1218
     70  CA        24.7000    3.3140    4.8140 C.3    39  THR39       0.1862
     71  C         24.2940    2.1630    3.8640 C.2    39  THR39       0.2287
     72  O         23.1390    1.7960    3.8330 O.2    39  THR39      -0.2866
     73  CB        24.7000    4.7150    4.1190 C.3    39  THR39       0.1770
     74  OG1       24.5860    5.7200    5.1300 O.3    39  THR39      -0.2211
     75  CG2       23.5520    4.9140    3.1810 C.3    39  THR39       0.0375
     76  N         23.0100   -0.6050    6.0410 N.3    42  THR42      -0.1203
     77  CA        21.6660   -0.3340    6.6110 C.3    42  THR42       0.1994
     78  C         20.5970   -0.3820    5.5330 C.2    42  THR42       0.2617
     79  O         19.4940   -0.8540    5.8180 O.2    42  THR42      -0.2717
     80  CB        21.5460    0.9740    7.4990 C.3    42  THR42       0.1784
     81  OG1       22.0070    2.1150    6.7720 O.3    42  THR42      -0.2211
     82  CG2       22.3620    0.8400    8.7570 C.3    42  THR42       0.0376
     83  N         20.9720    0.0180    4.3070 N.am   43  ASN43      -0.1974
     84  CA        20.1270   -0.1130    3.1080 C.3    43  ASN43       0.1688
     85  C         19.7650   -1.5560    2.8260 C.2    43  ASN43       0.2292
     86  O         18.6250   -1.8610    2.6280 O.2    43  ASN43      -0.2864
     87  CB        20.7560    0.5870    1.9050 C.3    43  ASN43       0.1181
     88  CG        20.5250    2.1300    1.9400 C.2    43  ASN43       0.2629
     89  OD1       20.0370    2.6670    2.9400 O.2    43  ASN43      -0.2716
     90  ND2       20.7660    2.7990    0.8120 N.am   43  ASN43      -0.0877
     91  N         17.2260   -2.6470    5.2670 N.3    46  ALA46      -0.1245
     92  CA        15.8830   -2.2190    4.8520 C.3    46  ALA46       0.1562
     93  C         15.2850   -3.2290    3.8990 C.2    46  ALA46       0.2260
     94  O         14.1070   -3.5230    3.9790 O.2    46  ALA46      -0.2867
     95  CB        15.8770   -0.8250    4.2010 C.3    46  ALA46       0.0290
     96  N         14.0850   -6.2560    5.7460 N.3    49  PHE49      -0.1227
     97  CA        12.8950   -5.8570    6.5180 C.3    49  PHE49       0.1736
     98  C         11.6570   -5.9130    5.6300 C.2    49  PHE49       0.2595
     99  O         10.6390   -6.4970    6.0130 O.2    49  PHE49      -0.2718
    100  CB        13.0720   -4.4440    7.0420 C.3    49  PHE49       0.0547
    101  CG        11.9880   -3.9850    7.9400 C.ar   49  PHE49      -0.0202
    102  CD1       12.2010   -3.9270    9.3110 C.ar   49  PHE49      -0.0042
    103  CD2       10.7730   -3.5750    7.4340 C.ar   49  PHE49      -0.0042
    104  CE1       11.1910   -3.4400   10.1640 C.ar   49  PHE49      -0.0003
    105  CE2        9.7640   -3.0870    8.3030 C.ar   49  PHE49      -0.0003
    106  CZ        10.0000   -3.0750    9.6700 C.ar   49  PHE49      -0.0000
    107  N         11.7250   -5.2710    4.4520 N.am   50  GLU50      -0.1979
    108  CA        10.5600   -5.2880    3.5440 C.3    50  GLU50       0.1602
    109  C         10.2640   -6.6680    2.9860 C.2    50  GLU50       0.2287
    110  O          9.1710   -6.9160    2.5400 O.2    50  GLU50      -0.2864
    111  CB        10.7580   -4.3270    2.3770 C.3    50  GLU50       0.0415
    112  CG        10.9160   -2.8910    2.8150 C.3    50  GLU50       0.1163
    113  CD         9.6700   -2.3920    3.5220 C.2    50  GLU50       0.3649
    114  OE1        8.6230   -2.7050    2.9970 O.co2  50  GLU50      -0.2457
    115  OE2        9.7250   -1.7270    4.5750 O.co2  50  GLU50      -0.2457
    116  N         23.6990    7.8250   11.5390 N.3    77  GLN77      -0.1245
    117  CA        23.4150    6.5420   10.8710 C.3    77  GLN77       0.1566
    118  C         23.3370    5.3920   11.8910 C.2    77  GLN77       0.2260
    119  O         22.5390    4.5010   11.7120 O.2    77  GLN77      -0.2867
    120  CB        24.4470    6.2250    9.7870 C.3    77  GLN77       0.0367
    121  CG        23.9590    5.3190    8.6410 C.3    77  GLN77       0.0905
    122  CD        22.7680    5.8850    7.9160 C.2    77  GLN77       0.2608
    123  OE1       22.5950    7.0990    7.8590 O.2    77  GLN77      -0.2717
    124  NE2       21.8870    4.9950    7.3970 N.am   77  GLN77      -0.0878
    125  N         20.0060    5.5260   13.1410 N.3    80  LYS80      -0.1245
    126  CA        19.0780    4.9000   12.1840 C.3    80  LYS80       0.1561
    127  C         19.0780    3.3770   12.2690 C.2    80  LYS80       0.2260
    128  O         18.0190    2.7150   12.1750 O.2    80  LYS80      -0.2867
    129  CB        19.4020    5.3390   10.7440 C.3    80  LYS80       0.0271
    130  CG        19.0330    6.8180   10.4760 C.3    80  LYS80       0.0035
    131  CD        19.4310    7.3070    9.0530 C.3    80  LYS80       0.0206
    132  CE        18.7940    8.6410    8.7460 C.3    80  LYS80       0.1093
    133  NZ        19.1920    9.2720    7.4330 N.3    80  LYS80      -0.1314
    134  N         15.9880    1.0110   13.1600 N.3    84  ARG84      -0.1245
    135  CA        15.5780   -0.1420   12.2680 C.3    84  ARG84       0.1563
    136  C         15.5040   -1.4370   13.0400 C.2    84  ARG84       0.2260
    137  O         14.5960   -2.2250   12.8500 O.2    84  ARG84      -0.2867
    138  CB        16.5040   -0.3080   11.0600 C.3    84  ARG84       0.0307
    139  CG        16.1500   -1.4890   10.0910 C.3    84  ARG84       0.0489
    140  CD        16.5950   -1.1690    8.6670 C.3    84  ARG84       0.2205
    141  NE        15.9070    0.0480    8.2030 N.pl3  84  ARG84      -0.0865
    142  CZ        16.3950    1.0170    7.4180 C.cat  84  ARG84       0.5346
    143  NH1       17.6240    1.0040    6.8940 N.pl3  84  ARG84       0.1354
    144  NH2       15.6160    2.0540    7.1540 N.pl3  84  ARG84       0.1354
    145  N         12.2840   -1.1220   14.8550 N.3    87  ASN87      -0.1240
    146  CA        11.1990   -1.3710   13.9500 C.3    87  ASN87       0.1653
    147  C         10.9490   -2.8890   13.6480 C.2    87  ASN87       0.2266
    148  O          9.8390   -3.3820   13.6900 O.2    87  ASN87      -0.2867
    149  CB        11.3890   -0.5650   12.6750 C.3    87  ASN87       0.1155
    150  CG        10.8960    0.8840   12.8320 C.2    87  ASN87       0.2627
    151  OD1       10.5910    1.3550   13.9640 O.2    87  ASN87      -0.2716
    152  ND2       10.7170    1.5580   11.6810 N.am   87  ASN87      -0.0877
    153  N          7.5160   -4.8980   14.4390 N.3    91  LYS91      -0.1245
    154  CA         6.7700   -5.6450   13.4240 C.3    91  LYS91       0.1561
    155  C          6.3950   -7.0580   13.9240 C.2    91  LYS91       0.2260
    156  O          5.3380   -7.5180   13.6120 O.2    91  LYS91      -0.2867
    157  CB         7.5960   -5.7660   12.1380 C.3    91  LYS91       0.0271
    158  CG         7.2730   -4.7920   11.0980 C.3    91  LYS91       0.0035
    159  CD         5.8380   -4.9310   10.5920 C.3    91  LYS91       0.0206
    160  CE         5.7150   -4.5330    9.1530 C.3    91  LYS91       0.1093
    161  NZ         4.3040   -4.4860    8.6250 N.3    91  LYS91      -0.1314
    162  N         10.3730   11.0510   14.2790 N.3   113  ASP113     -0.1239
    163  CA         9.7180    9.8770   13.8360 C.3   113  ASP113      0.1674
    164  C          9.9630    8.7820   14.8330 C.2   113  ASP113      0.2266
    165  O          9.0470    7.9570   15.1090 O.2   113  ASP113     -0.2867
    166  CB        10.1990    9.4330   12.4590 C.3   113  ASP113      0.1410
    167  CG         9.6320   10.3080   11.3440 C.2   113  ASP113      0.3668
    168  OD1        8.7580   11.1230   11.6080 O.co2 113  ASP113     -0.2456
    169  OD2       10.0970   10.2080   10.2150 O.co2 113  ASP113     -0.2456
@<TRIPOS>BOND
     1    12    13    2
     2    12    11    1
     3    14    11    1
     4    14    15    1
     5    11    10    1
     6    10     3   am
     7    50    51    2
     8    50    49    1
     9    15    16    1
    10     1     2    1
    11    48    49    1
    12    41    42    2
    13    41    40    1
    14    27    28    1
    15    21    22    2
    16    21    20    1
    17    17    16   ar
    18     3     4    2
    19     3     2    1
    20    49    52    1
    21    19    20    1
    22    16    18   ar
    23    52    53    1
    24    43    40    1
    25    43    44    1
    26     2     5    1
    27    57    58    1
    28    40    39    1
    29    39    29   am
    30    20    23    1
    31    53    54    1
    32    54    55    1
    33    45    44    1
    34    45    46    1
    35    28    29    1
    36    28    31    1
    37    23    24    1
    38    29    30    2
    39    47    46    1
    40     5     6    1
    41    58    59    1
    42    58    61    1
    43    55    56    1
    44    59    60    2
    45    31    32    1
    46    24    26   am
    47    24    25    2
    48    64    66   ar
    49    64    62   ar
    50    66    67   ar
    51     6     7    1
    52     8     7    1
    53     8     9    1
    54    61    62    1
    55    62    63   ar
    56    67    68    1
    57    67    65   ar
    58    63    65   ar
    59    32    34   ar
    60    32    33   ar
    61    34    36   ar
    62    33    35   ar
    63    36    37   ar
    64    90    88   am
    65    35    37   ar
    66    37    38    1
    67    87    88    1
    68    87    84    1
    69    88    89    2
    70   111   112    1
    71   111   108    1
    72   110   109    2
    73    86    85    2
    74   112   113    1
    75    85    84    1
    76   109   108    1
    77   114   113   ar
    78    84    83    1
    79    75    73    1
    80   113   115   ar
    81   108   107    1
    82    72    71    2
    83    71    70    1
    84    93    94    2
    85    93    92    1
    86    73    70    1
    87    73    74    1
    88    95    92    1
    89    83    78   am
    90   107    98   am
    91    70    69    1
    92    92    91    1
    93    78    79    2
    94    78    77    1
    95    98    99    2
    96    98    97    1
    97    96    97    1
    98    76    77    1
    99    97   100    1
   100    77    80    1
   101    81    80    1
   102   143   142    1
   103   100   101    1
   104   144   142    1
   105   124   122   am
   106   142   141    2
   107   133   132    1
   108   103   101   ar
   109   103   105   ar
   110    80    82    1
   111   123   122    2
   112   122   121    1
   113   101   102   ar
   114   141   140    1
   115   105   106   ar
   116   161   160    1
   117   121   120    1
   118   140   139    1
   119   132   131    1
   120   131   130    1
   121   160   159    1
   122   102   104   ar
   123   106   104   ar
   124   120   117    1
   125   139   138    1
   126   169   167   ar
   127   130   129    1
   128   159   158    1
   129   129   126    1
   130   117   116    1
   131   117   118    1
   132   138   135    1
   133   158   157    1
   134   167   168   ar
   135   167   166    1
   136   152   150   am
   137   119   118    2
   138   157   154    1
   139   128   127    2
   140   126   127    1
   141   126   125    1
   142   135   136    1
   143   135   134    1
   144   166   163    1
   145   149   150    1
   146   149   146    1
   147   150   151    2
   148   137   136    2
   149   154   155    1
   150   154   153    1
   151   156   155    2
   152   147   148    2
   153   147   146    1
   154   163   162    1
   155   163   164    1
   156   146   145    1
   157   164   165    2
