@<TRIPOS>MOLECULE
tmp/3eslB00.pdb
 83 79 0 0 0
SMALL
GASTEIGER

@<TRIPOS>ATOM
      1  N         19.9510   15.6290   64.2590 N.3    37  MET37      -0.1230
      2  CA        19.7750   15.9450   65.6620 C.3    37  MET37       0.1702
      3  C         19.6580   17.4500   65.9300 C.2    37  MET37       0.2592
      4  O         18.8130   17.8740   66.7190 O.2    37  MET37      -0.2718
      5  CB        20.8970   15.3470   66.5090 C.3    37  MET37       0.0401
      6  CG        20.8290   13.8360   66.6100 C.3    37  MET37       0.0596
      7  SD        22.3540   13.3000   67.4690 S.3    37  MET37      -0.1393
      8  CE        22.9980   12.1310   66.3230 C.3    37  MET37       0.0692
      9  N         20.5230   18.2240   65.2870 N.am   38  ILE38      -0.1980
     10  CA        20.5240   19.6810   65.4370 C.3    38  ILE38       0.1595
     11  C         19.1910   20.2270   64.9110 C.2    38  ILE38       0.2287
     12  O         18.5880   21.1250   65.5360 O.2    38  ILE38      -0.2864
     13  CB        21.7050   20.2970   64.6860 C.3    38  ILE38       0.0276
     14  CG1       23.0260   19.9290   65.3830 C.3    38  ILE38       0.0022
     15  CG2       21.5540   21.8260   64.5730 C.3    38  ILE38       0.0022
     16  CD1       23.0240   20.1820   66.8540 C.3    38  ILE38       0.0001
     17  N         16.3410   19.3770   67.4400 N.3    41  SER41      -0.1202
     18  CA        16.4290   20.2410   68.6080 C.3    41  SER41       0.2020
     19  C         16.0630   21.6950   68.2990 C.2    41  SER41       0.2619
     20  O         15.2460   22.2850   69.0050 O.2    41  SER41      -0.2717
     21  CB        17.8290   20.1750   69.2200 C.3    41  SER41       0.2103
     22  OG        17.8480   20.8880   70.4500 O.3    41  SER41      -0.2182
     23  N         16.6470   22.2470   67.2440 N.am   42  THR42      -0.1952
     24  CA        16.4720   23.6840   66.9470 C.3    42  THR42       0.1897
     25  C         15.1620   24.0170   66.2200 C.2    42  THR42       0.2313
     26  O         14.7970   25.1920   66.1310 O.2    42  THR42      -0.2863
     27  CB        17.6570   24.2540   66.1560 C.3    42  THR42       0.1794
     28  OG1       17.7390   23.6180   64.8750 O.3    42  THR42      -0.2208
     29  CG2       18.9990   24.0690   66.9250 C.3    42  THR42       0.0378
     30  N         14.1470   12.7590   69.2590 N.3    56  LEU56      -0.1245
     31  CA        15.5700   13.0260   69.4820 C.3    56  LEU56       0.1561
     32  C         16.2480   11.8120   70.1300 C.2    56  LEU56       0.2260
     33  O         17.3420   11.4060   69.7020 O.2    56  LEU56      -0.2867
     34  CB        15.7810   14.2670   70.3490 C.3    56  LEU56       0.0270
     35  CG        17.2280   14.7130   70.5830 C.3    56  LEU56       0.0019
     36  CD1       17.9800   15.0080   69.2640 C.3    56  LEU56       0.0001
     37  CD2       17.2620   15.9150   71.5580 C.3    56  LEU56       0.0001
     38  N         19.3240    9.6720   68.5540 N.3    60  MET60      -0.1245
     39  CA        20.6140    9.5700   69.2290 C.3    60  MET60       0.1570
     40  C         20.9900    8.1080   69.4180 C.2    60  MET60       0.2261
     41  O         22.1060    7.7290   69.1410 O.2    60  MET60      -0.2867
     42  CB        20.6140   10.2900   70.5770 C.3    60  MET60       0.0387
     43  CG        20.5560   11.7870   70.4370 C.3    60  MET60       0.0595
     44  SD        20.8490   12.5290   72.0710 S.3    60  MET60      -0.1393
     45  CE        22.5310   12.1010   72.2930 C.3    60  MET60       0.0692
     46  N         27.7550   11.8620   75.4760 N.3    84  ILE84      -0.1231
     47  CA        27.6130   12.7750   76.6220 C.3    84  ILE84       0.1692
     48  C         26.2280   13.4320   76.6080 C.2    84  ILE84       0.2592
     49  O         25.5440   13.4770   77.6420 O.2    84  ILE84      -0.2718
     50  CB        28.7310   13.8420   76.6160 C.3    84  ILE84       0.0266
     51  CG1       30.1220   13.1880   76.6890 C.3    84  ILE84       0.0019
     52  CG2       28.5210   14.8620   77.7490 C.3    84  ILE84       0.0020
     53  CD1       30.3670   12.2210   77.8550 C.3    84  ILE84       0.0001
     54  N         25.7820   13.8790   75.4370 N.am   85  TRP85      -0.1976
     55  CA        24.4450   14.4890   75.3320 C.3    85  TRP85       0.1640
     56  C         23.3730   13.4790   75.7410 C.2    85  TRP85       0.2290
     57  O         22.4360   13.8190   76.4500 O.2    85  TRP85      -0.2864
     58  CB        24.1510   15.0080   73.9180 C.3    85  TRP85       0.0576
     59  CG        25.0530   16.1130   73.4360 C.ar   85  TRP85       0.0006
     60  CD1       25.7650   17.0090   74.1960 C.ar   85  TRP85       0.0946
     61  CD2       25.3190   16.4410   72.0700 C.ar   85  TRP85       0.0152
     62  NE1       26.4630   17.8770   73.3710 N.ar   85  TRP85      -0.2442
     63  CE2       26.2100   17.5450   72.0660 C.ar   85  TRP85       0.0810
     64  CE3       24.8970   15.9060   70.8480 C.ar   85  TRP85       0.0012
     65  CZ2       26.6880   18.1200   70.8760 C.ar   85  TRP85       0.0191
     66  CZ3       25.3680   16.4890   69.6600 C.ar   85  TRP85       0.0001
     67  CH2       26.2550   17.5850   69.6940 C.ar   85  TRP85       0.0015
     68  N         23.4100   13.0590   79.4940 N.3    88  ASN88      -0.1225
     69  CA        22.9060   14.2660   80.1470 C.3    88  ASN88       0.1785
     70  C         21.4050   14.4400   79.9790 C.2    88  ASN88       0.2597
     71  O         20.7040   14.7980   80.9400 O.2    88  ASN88      -0.2718
     72  CB        23.6120   15.5100   79.6120 C.3    88  ASN88       0.1169
     73  CG        25.0460   15.6480   80.1100 C.2    88  ASN88       0.2627
     74  OD1       25.8290   16.4280   79.5510 O.2    88  ASN88      -0.2716
     75  ND2       25.3960   14.9200   81.1580 N.am   88  ASN88      -0.0877
     76  N         20.9220   14.2150   78.7620 N.am   89  LEU89      -0.1980
     77  CA        19.5220   14.4770   78.4290 C.3    89  LEU89       0.1596
     78  C         18.5810   13.4320   78.9740 C.2    89  LEU89       0.2287
     79  O         17.5220   13.7640   79.5080 O.2    89  LEU89      -0.2864
     80  CB        19.3170   14.5820   76.9220 C.3    89  LEU89       0.0297
     81  CG        19.8090   15.8340   76.1970 C.3    89  LEU89       0.0022
     82  CD1       19.6640   15.5900   74.6980 C.3    89  LEU89       0.0001
     83  CD2       19.0140   17.0750   76.6320 C.3    89  LEU89       0.0001
@<TRIPOS>BOND
     1     1     2    1
     2    15    13    1
     3    13    14    1
     4    13    10    1
     5    28    27    1
     6    11    10    1
     7    11    12    2
     8     9    10    1
     9     9     3   am
    10    14    16    1
    11     2     3    1
    12     2     5    1
    13     3     4    2
    14    26    25    2
    15    27    29    1
    16    27    24    1
    17    25    24    1
    18     8     7    1
    19     5     6    1
    20     6     7    1
    21    24    23    1
    22    23    19   am
    23    17    18    1
    24    19    18    1
    25    19    20    2
    26    38    39    1
    27    18    21    1
    28    41    40    2
    29    21    22    1
    30    39    40    1
    31    39    42    1
    32    30    31    1
    33    36    35    1
    34    31    32    1
    35    31    34    1
    36    66    67   ar
    37    66    64   ar
    38    67    65   ar
    39    33    32    2
    40    34    35    1
    41    43    42    1
    42    43    44    1
    43    35    37    1
    44    64    61   ar
    45    65    63   ar
    46    63    61   ar
    47    63    62   ar
    48    61    59   ar
    49    44    45    1
    50    62    60   ar
    51    59    58    1
    52    59    60   ar
    53    58    55    1
    54    82    81    1
    55    55    54    1
    56    55    56    1
    57    54    48   am
    58    46    47    1
    59    56    57    2
    60    81    83    1
    61    81    80    1
    62    48    47    1
    63    48    49    2
    64    50    47    1
    65    50    51    1
    66    50    52    1
    67    51    53    1
    68    80    77    1
    69    77    76    1
    70    77    78    1
    71    76    70   am
    72    78    79    2
    73    68    69    1
    74    74    73    2
    75    72    73    1
    76    72    69    1
    77    70    69    1
    78    70    71    2
    79    73    75   am
