@<TRIPOS>MOLECULE
tmp/3esnB00.pdb
 69 63 0 0 0
SMALL
GASTEIGER

@<TRIPOS>ATOM
      1  N          2.3910   -7.4930  -29.2840 N.3     5  LYS5       -0.1245
      2  CA         3.1680   -6.2670  -29.3400 C.3     5  LYS5        0.1561
      3  C          3.7780   -6.0110  -27.9840 C.2     5  LYS5        0.2260
      4  O          3.1320   -6.1220  -26.9710 O.2     5  LYS5       -0.2867
      5  CB         2.2860   -5.0880  -29.7180 C.3     5  LYS5        0.0271
      6  CG         3.1000   -3.7790  -29.8820 C.3     5  LYS5        0.0035
      7  CD         2.3230   -2.6520  -30.5780 C.3     5  LYS5        0.0206
      8  CE         3.1750   -1.4930  -30.9470 C.3     5  LYS5        0.1093
      9  NZ         2.4220   -0.6710  -31.9540 N.3     5  LYS5       -0.1314
     10  N          6.4540   -3.4490  -25.7350 N.3     7  LEU7       -0.1245
     11  CA         7.0600   -2.1190  -25.6040 C.3     7  LEU7        0.1561
     12  C          7.9410   -2.0690  -24.3530 C.2     7  LEU7        0.2260
     13  O          7.7100   -2.7840  -23.3830 O.2     7  LEU7       -0.2867
     14  CB         5.9930   -1.0200  -25.4940 C.3     7  LEU7        0.0270
     15  CG         5.0970   -0.8770  -26.7030 C.3     7  LEU7        0.0019
     16  CD1        4.1440    0.2040  -26.4530 C.3     7  LEU7        0.0001
     17  CD2        5.8300   -0.6400  -27.9710 C.3     7  LEU7        0.0001
     18  N         -5.2190   -8.4570  -30.3370 N.3    96  THR96      -0.1218
     19  CA        -3.8760   -7.9340  -30.1040 C.3    96  THR96       0.1862
     20  C         -3.5680   -8.0140  -28.6070 C.2    96  THR96       0.2287
     21  O         -4.3460   -7.5310  -27.7800 O.2    96  THR96      -0.2866
     22  CB        -3.7040   -6.4780  -30.5610 C.3    96  THR96       0.1770
     23  OG1       -3.7980   -6.4080  -31.9730 O.3    96  THR96      -0.2211
     24  CG2       -2.3480   -5.9560  -30.1290 C.3    96  THR96       0.0375
     25  N         -0.9760   -6.8000  -26.0500 N.3    98  ALA98      -0.1231
     26  CA         0.0990   -5.8080  -25.8770 C.3    98  ALA98       0.1694
     27  C          0.6550   -5.8880  -24.4770 C.2    98  ALA98       0.2592
     28  O         -0.0890   -6.0610  -23.5240 O.2    98  ALA98      -0.2718
     29  CB        -0.4480   -4.3830  -26.1710 C.3    98  ALA98       0.0304
     30  N          1.9790   -5.7620  -24.3670 N.am   99  ALA99      -0.1966
     31  CA         2.6810   -5.7510  -23.1070 C.3    99  ALA99       0.1728
     32  C          3.6630   -4.6070  -23.0600 C.2    99  ALA99       0.2616
     33  O          4.3340   -4.3280  -24.0540 O.2    99  ALA99      -0.2715
     34  CB         3.4360   -7.1030  -22.9270 C.3    99  ALA99       0.0334
     35  N          3.7570   -4.0270  -21.8920 N.am  100  LEU100     -0.1977
     36  CA         4.6570   -2.9240  -21.5830 C.3   100  LEU100      0.1596
     37  C          5.5800   -3.3510  -20.4470 C.2   100  LEU100      0.2287
     38  O          5.1130   -3.6990  -19.3630 O.2   100  LEU100     -0.2864
     39  CB         3.8350   -1.6920  -21.1930 C.3   100  LEU100      0.0297
     40  CG         4.6570   -0.4640  -20.7910 C.3   100  LEU100      0.0022
     41  CD1        5.5050    0.0670  -21.9740 C.3   100  LEU100      0.0001
     42  CD2        3.7220    0.6510  -20.2800 C.3   100  LEU100      0.0001
     43  N          2.7790   -4.6620  -17.6300 N.3   107  SER107     -0.1202
     44  CA         1.3690   -4.3870  -17.8210 C.3   107  SER107      0.2020
     45  C          0.9650   -4.9380  -19.1680 C.2   107  SER107      0.2619
     46  O          1.7200   -4.9060  -20.1230 O.2   107  SER107     -0.2717
     47  CB         1.1090   -2.8780  -17.7190 C.3   107  SER107      0.2103
     48  OG        -0.2670   -2.5600  -17.9270 O.3   107  SER107     -0.2182
     49  N         -0.2620   -5.4330  -19.2420 N.am  108  THR108     -0.1938
     50  CA        -0.7420   -5.9990  -20.4840 C.3   108  THR108      0.2028
     51  C         -2.1930   -5.6420  -20.6900 C.2   108  THR108      0.2642
     52  O         -2.9510   -5.5420  -19.7140 O.2   108  THR108     -0.2714
     53  CB        -0.5290   -7.5300  -20.4730 C.3   108  THR108      0.1808
     54  OG1       -0.8110   -8.0940  -21.7440 O.3   108  THR108     -0.2208
     55  CG2       -1.3220   -8.2270  -19.3630 C.3   108  THR108      0.0379
     56  N         -2.5760   -5.4940  -21.9480 N.am  109  THR109     -0.1950
     57  CA        -3.9850   -5.3080  -22.3050 C.3   109  THR109      0.1897
     58  C         -4.2820   -6.1130  -23.5400 C.2   109  THR109      0.2313
     59  O         -3.3930   -6.5540  -24.2600 O.2   109  THR109     -0.2863
     60  CB        -4.3470   -3.8180  -22.4940 C.3   109  THR109      0.1794
     61  OG1       -5.7620   -3.6680  -22.3810 O.3   109  THR109     -0.2208
     62  CG2       -3.8410   -3.2740  -23.8100 C.3   109  THR109      0.0378
     63  N         -6.6250   -5.9260  -27.0220 N.3   111  VAL111     -0.1245
     64  CA        -7.4010   -5.0840  -27.9520 C.3   111  VAL111      0.1561
     65  C         -8.0480   -6.0410  -28.9220 C.2   111  VAL111      0.2260
     66  O         -7.3620   -6.6670  -29.7250 O.2   111  VAL111     -0.2867
     67  CB        -6.5290   -4.0610  -28.6840 C.3   111  VAL111      0.0252
     68  CG1       -7.3490   -3.1050  -29.5850 C.3   111  VAL111      0.0019
     69  CG2       -5.6030   -3.3070  -27.6990 C.3   111  VAL111      0.0019
@<TRIPOS>BOND
     1    23    22    1
     2     9     8    1
     3     8     7    1
     4     7     6    1
     5    22    24    1
     6    22    19    1
     7    18    19    1
     8    19    20    1
     9     6     5    1
    10    66    65    2
    11     5     2    1
    12    68    67    1
    13     2     1    1
    14     2     3    1
    15    65    64    1
    16    67    64    1
    17    67    69    1
    18    20    21    2
    19     3     4    2
    20    17    15    1
    21    64    63    1
    22    15    16    1
    23    15    14    1
    24    29    26    1
    25    25    26    1
    26    26    27    1
    27    10    11    1
    28    11    14    1
    29    11    12    1
    30    27    30   am
    31    27    28    2
    32    30    31    1
    33    12    13    2
    34    59    58    2
    35    33    32    2
    36    62    60    1
    37    58    57    1
    38    31    32    1
    39    31    34    1
    40    32    35   am
    41    60    61    1
    42    60    57    1
    43    57    56    1
    44    41    40    1
    45    56    51   am
    46    35    36    1
    47    54    53    1
    48    36    39    1
    49    36    37    1
    50    39    40    1
    51    40    42    1
    52    51    50    1
    53    51    52    2
    54    50    53    1
    55    50    49    1
    56    53    55    1
    57    37    38    2
    58    46    45    2
    59    49    45   am
    60    45    44    1
    61    48    47    1
    62    44    47    1
    63    44    43    1
