@<TRIPOS>MOLECULE
tmp/3esoA00.pdb
 86 78 0 0 0
SMALL
GASTEIGER

@<TRIPOS>ATOM
      1  N          3.8510  -10.7610    0.5110 N.3     3  MET3       -0.1245
      2  CA         2.5390  -10.0910    0.6020 C.3     3  MET3        0.1570
      3  C          2.0490   -9.8190   -0.8060 C.2     3  MET3        0.2261
      4  O          2.8340   -9.5350   -1.7010 O.2     3  MET3       -0.2867
      5  CB         2.6740   -8.7970    1.3770 C.3     3  MET3        0.0387
      6  CG         1.3250   -8.1290    1.7840 C.3     3  MET3        0.0595
      7  SD         0.5700   -7.0230    0.5910 S.3     3  MET3       -0.1393
      8  CE         1.4300   -5.5470    0.9990 C.3     3  MET3        0.0692
      9  N         -0.9700   -7.7110   -2.9160 N.3     5  LYS5       -0.1245
     10  CA        -1.9980   -6.6330   -2.8540 C.3     5  LYS5        0.1561
     11  C         -2.6340   -6.4900   -4.2080 C.2     5  LYS5        0.2260
     12  O         -1.9490   -6.4470   -5.2310 O.2     5  LYS5       -0.2867
     13  CB        -1.3640   -5.3070   -2.4190 C.3     5  LYS5        0.0271
     14  CG        -2.4120   -4.1930   -2.1700 C.3     5  LYS5        0.0035
     15  CD        -1.8740   -3.0460   -1.4240 C.3     5  LYS5        0.0206
     16  CE        -2.9760   -2.0570   -1.0400 C.3     5  LYS5        0.1093
     17  NZ        -2.4530   -1.1410    0.0420 N.3     5  LYS5       -0.1314
     18  N         -5.6790   -4.3050   -6.4180 N.3     7  LEU7       -0.1245
     19  CA        -6.5900   -3.1490   -6.5470 C.3     7  LEU7        0.1561
     20  C         -7.4360   -3.2980   -7.7940 C.2     7  LEU7        0.2260
     21  O         -7.0560   -3.9330   -8.7930 O.2     7  LEU7       -0.2867
     22  CB        -5.7640   -1.8460   -6.6190 C.3     7  LEU7        0.0270
     23  CG        -4.9250   -1.5040   -5.4020 C.3     7  LEU7        0.0019
     24  CD1       -4.1820   -0.1760   -5.6620 C.3     7  LEU7        0.0001
     25  CD2       -5.7480   -1.3610   -4.1720 C.3     7  LEU7        0.0001
     26  N         -5.3190   -6.7050    0.5700 N.3    44  GLU44      -0.1245
     27  CA        -4.0260   -7.3100    0.9600 C.3    44  GLU44       0.1567
     28  C         -4.1750   -8.7630    1.4390 C.2    44  GLU44       0.2260
     29  O         -5.1620   -9.1260    2.0740 O.2    44  GLU44      -0.2867
     30  CB        -3.3120   -6.4930    2.0360 C.3    44  GLU44       0.0388
     31  CG        -3.0200   -5.0690    1.5350 C.3    44  GLU44       0.1160
     32  CD        -2.3350   -4.1750    2.5150 C.2    44  GLU44       0.3649
     33  OE1       -1.9820   -4.5850    3.6130 O.co2  44  GLU44      -0.2457
     34  OE2       -2.1610   -2.9590    2.1660 O.co2  44  GLU44      -0.2457
     35  N          6.6500   -7.7560   -1.9470 N.3    96  THR96      -0.1218
     36  CA         5.2530   -7.3940   -2.1880 C.3    96  THR96       0.1862
     37  C          5.0120   -7.4850   -3.6620 C.2    96  THR96       0.2287
     38  O          5.6940   -6.8640   -4.4580 O.2    96  THR96      -0.2866
     39  CB         4.9120   -5.9890   -1.6700 C.3    96  THR96       0.1770
     40  OG1        5.0910   -5.9460   -0.2690 O.3    96  THR96      -0.2211
     41  CG2        3.4500   -5.5810   -1.9950 C.3    96  THR96       0.0375
     42  N          2.1760   -6.5930   -6.1880 N.3    98  ALA98      -0.1231
     43  CA         0.9760   -5.7420   -6.3290 C.3    98  ALA98       0.1694
     44  C          0.4270   -5.9170   -7.7520 C.2    98  ALA98       0.2592
     45  O          1.1650   -6.1070   -8.7230 O.2    98  ALA98      -0.2718
     46  CB         1.3440   -4.2760   -6.0530 C.3    98  ALA98       0.0304
     47  N         -0.8980   -5.8820   -7.8370 N.am   99  ALA99      -0.1966
     48  CA        -1.5860   -5.9920   -9.1000 C.3    99  ALA99       0.1728
     49  C         -2.7500   -4.9920   -9.1440 C.2    99  ALA99       0.2616
     50  O         -3.4130   -4.7740   -8.1290 O.2    99  ALA99      -0.2715
     51  CB        -2.0840   -7.4240   -9.3470 C.3    99  ALA99       0.0334
     52  N         -2.9880   -4.4870  -10.3410 N.am  100  LEU100     -0.1977
     53  CA        -4.0970   -3.5510  -10.6210 C.3   100  LEU100      0.1596
     54  C         -4.8970   -4.1240  -11.7660 C.2   100  LEU100      0.2287
     55  O         -4.3760   -4.4230  -12.8240 O.2   100  LEU100     -0.2864
     56  CB        -3.4950   -2.1740  -11.0120 C.3   100  LEU100      0.0297
     57  CG        -4.4900   -1.1210  -11.4120 C.3   100  LEU100      0.0022
     58  CD1       -5.4050   -0.7620  -10.2440 C.3   100  LEU100      0.0001
     59  CD2       -3.7010    0.1410  -11.8680 C.3   100  LEU100      0.0001
     60  N         -1.9720   -4.9460  -14.5680 N.3   107  SER107     -0.1202
     61  CA        -0.5910   -4.5050  -14.2970 C.3   107  SER107      0.2020
     62  C         -0.1150   -5.1640  -13.0350 C.2   107  SER107      0.2619
     63  O         -0.9080   -5.3640  -12.1120 O.2   107  SER107     -0.2717
     64  CB        -0.5790   -2.9860  -14.0980 C.3   107  SER107      0.2103
     65  OG         0.7450   -2.4370  -14.0610 O.3   107  SER107     -0.2182
     66  N          1.1870   -5.4600  -12.9820 N.am  108  THR108     -0.1938
     67  CA         1.7630   -5.9950  -11.7730 C.3   108  THR108      0.2028
     68  C          3.1630   -5.3720  -11.5650 C.2   108  THR108      0.2642
     69  O          3.8620   -5.0870  -12.5560 O.2   108  THR108     -0.2714
     70  CB         1.8880   -7.5180  -11.8020 C.3   108  THR108      0.1808
     71  OG1        2.2660   -7.9900  -10.5170 O.3   108  THR108     -0.2208
     72  CG2        2.8310   -8.0120  -12.8490 C.3   108  THR108      0.0379
     73  N          3.4900   -5.1680  -10.3030 N.am  109  THR109     -0.1950
     74  CA         4.8330   -4.7090   -9.9100 C.3   109  THR109      0.1897
     75  C          5.2850   -5.3970   -8.6470 C.2   109  THR109      0.2313
     76  O          4.4960   -5.9850   -7.9540 O.2   109  THR109     -0.2863
     77  CB         4.9000   -3.1350   -9.7630 C.3   109  THR109      0.1794
     78  OG1        6.2790   -2.7520   -9.8330 O.3   109  THR109     -0.2208
     79  CG2        4.2670   -2.6570   -8.5100 C.3   109  THR109      0.0378
     80  N          7.7580   -4.9850   -5.1780 N.3   111  VAL111     -0.1245
     81  CA         8.5550   -4.1890   -4.2170 C.3   111  VAL111      0.1561
     82  C          9.3630   -5.1800   -3.3970 C.2   111  VAL111      0.2260
     83  O          8.7870   -6.0010   -2.6670 O.2   111  VAL111     -0.2867
     84  CB         7.6490   -3.3250   -3.3030 C.3   111  VAL111      0.0252
     85  CG1        8.5130   -2.4440   -2.3910 C.3   111  VAL111      0.0019
     86  CG2        6.7250   -2.4270   -4.1370 C.3   111  VAL111      0.0019
@<TRIPOS>BOND
     1    60    61    1
     2    61    64    1
     3    61    62    1
     4    64    65    1
     5    62    66   am
     6    62    63    2
     7    66    67    1
     8    72    70    1
     9    55    54    2
    10    69    68    2
    11    59    57    1
    12    70    67    1
    13    70    71    1
    14    67    68    1
    15    54    53    1
    16    68    73   am
    17    57    56    1
    18    57    58    1
    19    56    53    1
    20    53    52    1
    21    52    49   am
    22    73    74    1
    23    74    77    1
    24    74    75    1
    25    78    77    1
    26    77    79    1
    27    51    48    1
    28    49    48    1
    29    49    50    2
    30    48    47    1
    31    21    20    2
    32    45    44    2
    33    75    76    2
    34    47    44   am
    35    20    19    1
    36    44    43    1
    37    22    19    1
    38    22    23    1
    39    19    18    1
    40    43    42    1
    41    43    46    1
    42    24    23    1
    43    23    25    1
    44    12    11    2
    45    80    81    1
    46    38    37    2
    47    81    82    1
    48    81    84    1
    49    11    10    1
    50    86    84    1
    51    37    36    1
    52    82    83    2
    53    84    85    1
    54     9    10    1
    55    10    13    1
    56    13    14    1
    57    36    35    1
    58    36    39    1
    59    14    15    1
    60    41    39    1
    61     4     3    2
    62    39    40    1
    63    15    16    1
    64    16    17    1
    65     3     2    1
    66     1     2    1
    67    26    27    1
    68     7     8    1
    69     7     6    1
    70     2     5    1
    71    27    28    1
    72    27    30    1
    73     5     6    1
    74    28    29    2
    75    31    30    1
    76    31    32    1
    77    34    32   ar
    78    32    33   ar
