@<TRIPOS>MOLECULE
tmp/3espA00.pdb
 86 78 0 0 0
SMALL
GASTEIGER

@<TRIPOS>ATOM
      1  N          3.7990  -10.8820    0.6230 N.3     3  MET3       -0.1245
      2  CA         2.5050  -10.2090    0.7540 C.3     3  MET3        0.1570
      3  C          1.9860   -9.9250   -0.6600 C.2     3  MET3        0.2261
      4  O          2.7590   -9.6220   -1.5480 O.2     3  MET3       -0.2867
      5  CB         2.6270   -8.9060    1.5660 C.3     3  MET3        0.0387
      6  CG         1.2690   -8.2540    1.9690 C.3     3  MET3        0.0595
      7  SD         0.5590   -7.1140    0.7640 S.3     3  MET3       -0.1393
      8  CE         1.4380   -5.6350    1.2970 C.3     3  MET3        0.0692
      9  N         -0.9770   -7.6980   -2.7430 N.3     5  LYS5       -0.1245
     10  CA        -1.9870   -6.5980   -2.6680 C.3     5  LYS5        0.1561
     11  C         -2.6270   -6.4110   -4.0080 C.2     5  LYS5        0.2260
     12  O         -1.9270   -6.3590   -5.0090 O.2     5  LYS5       -0.2867
     13  CB        -1.3320   -5.2760   -2.2170 C.3     5  LYS5        0.0271
     14  CG        -2.3660   -4.1790   -2.0070 C.3     5  LYS5        0.0035
     15  CD        -1.9170   -3.0860   -0.9950 C.3     5  LYS5        0.0206
     16  CE        -2.9820   -2.0150   -0.6350 C.3     5  LYS5        0.1093
     17  NZ        -2.5390   -1.2920    0.6390 N.3     5  LYS5       -0.1314
     18  N         -5.6760   -4.2260   -6.2240 N.3     7  LEU7       -0.1245
     19  CA        -6.5760   -3.0610   -6.3690 C.3     7  LEU7        0.1561
     20  C         -7.4250   -3.2440   -7.6120 C.2     7  LEU7        0.2260
     21  O         -7.0250   -3.8920   -8.6080 O.2     7  LEU7       -0.2867
     22  CB        -5.7300   -1.8000   -6.5040 C.3     7  LEU7        0.0270
     23  CG        -4.8830   -1.4070   -5.2890 C.3     7  LEU7        0.0019
     24  CD1       -4.0200   -0.1290   -5.5870 C.3     7  LEU7        0.0001
     25  CD2       -5.7560   -1.1700   -4.0820 C.3     7  LEU7        0.0001
     26  N         -5.3840   -6.8500    0.7330 N.3    44  GLU44      -0.1245
     27  CA        -4.1050   -7.4730    1.0810 C.3    44  GLU44       0.1567
     28  C         -4.2530   -8.8870    1.5590 C.2    44  GLU44       0.2260
     29  O         -5.2490   -9.2760    2.1680 O.2    44  GLU44      -0.2867
     30  CB        -3.4140   -6.6580    2.1690 C.3    44  GLU44       0.0388
     31  CG        -3.1680   -5.1800    1.7900 C.3    44  GLU44       0.1160
     32  CD        -2.3800   -4.3560    2.8050 C.2    44  GLU44       0.3649
     33  OE1       -2.0210   -4.8330    3.8770 O.co2  44  GLU44      -0.2457
     34  OE2       -2.2210   -3.1440    2.5450 O.co2  44  GLU44      -0.2457
     35  N          6.5810   -7.8540   -1.8110 N.3    96  THR96      -0.1218
     36  CA         5.1900   -7.5040   -2.0370 C.3    96  THR96       0.1862
     37  C          4.9540   -7.6030   -3.5100 C.2    96  THR96       0.2287
     38  O          5.6210   -6.9580   -4.3140 O.2    96  THR96      -0.2866
     39  CB         4.8340   -6.0740   -1.5180 C.3    96  THR96       0.1770
     40  OG1        5.0540   -6.0280   -0.1190 O.3    96  THR96      -0.2211
     41  CG2        3.4250   -5.7270   -1.8330 C.3    96  THR96       0.0375
     42  N          2.1440   -6.6430   -6.0450 N.3    98  ALA98      -0.1231
     43  CA         1.0040   -5.7380   -6.1650 C.3    98  ALA98       0.1694
     44  C          0.4200   -5.8730   -7.5770 C.2    98  ALA98       0.2592
     45  O          1.1470   -5.9680   -8.5810 O.2    98  ALA98      -0.2718
     46  CB         1.4530   -4.2960   -5.8700 C.3    98  ALA98       0.0304
     47  N         -0.8990   -5.8720   -7.6380 N.am   99  ALA99      -0.1966
     48  CA        -1.5960   -5.9390   -8.9110 C.3    99  ALA99       0.1728
     49  C         -2.7280   -4.9240   -8.9420 C.2    99  ALA99       0.2616
     50  O         -3.3560   -4.6170   -7.9160 O.2    99  ALA99      -0.2715
     51  CB        -2.1400   -7.3310   -9.1600 C.3    99  ALA99       0.0334
     52  N         -3.0130   -4.4610  -10.1630 N.am  100  LEU100     -0.1977
     53  CA        -4.0980   -3.5090  -10.4380 C.3   100  LEU100      0.1596
     54  C         -4.9120   -4.0220  -11.5860 C.2   100  LEU100      0.2287
     55  O         -4.3740   -4.2990  -12.6430 O.2   100  LEU100     -0.2864
     56  CB        -3.4590   -2.1270  -10.7840 C.3   100  LEU100      0.0297
     57  CG        -4.4650   -1.0400  -11.1750 C.3   100  LEU100      0.0022
     58  CD1       -5.4230   -0.6990  -10.0490 C.3   100  LEU100      0.0001
     59  CD2       -3.5980    0.1760  -11.6010 C.3   100  LEU100      0.0001
     60  N         -1.9580   -4.7190  -14.4130 N.3   107  SER107     -0.1202
     61  CA        -0.5990   -4.2740  -14.1230 C.3   107  SER107      0.2020
     62  C         -0.1510   -4.9880  -12.8660 C.2   107  SER107      0.2619
     63  O         -0.9190   -5.2010  -11.9690 O.2   107  SER107     -0.2717
     64  CB        -0.6420   -2.7420  -13.9240 C.3   107  SER107      0.2103
     65  OG         0.5710   -2.1290  -13.4760 O.3   107  SER107     -0.2182
     66  N          1.1380   -5.3400  -12.8180 N.am  108  THR108     -0.1938
     67  CA         1.7210   -5.8940  -11.6220 C.3   108  THR108      0.2028
     68  C          3.0950   -5.3160  -11.3740 C.2   108  THR108      0.2642
     69  O          3.8140   -5.0340  -12.3670 O.2   108  THR108     -0.2714
     70  CB         1.7820   -7.3870  -11.7010 C.3   108  THR108      0.1808
     71  OG1        2.1620   -7.9660  -10.4830 O.3   108  THR108     -0.2208
     72  CG2        2.7460   -7.8850  -12.7040 C.3   108  THR108      0.0379
     73  N          3.4580   -5.1450  -10.1170 N.am  109  THR109     -0.1950
     74  CA         4.7880   -4.7180   -9.7480 C.3   109  THR109      0.1897
     75  C          5.2320   -5.4430   -8.5050 C.2   109  THR109      0.2313
     76  O          4.4530   -6.0470   -7.8100 O.2   109  THR109     -0.2863
     77  CB         4.8810   -3.1720   -9.5490 C.3   109  THR109      0.1794
     78  OG1        6.2630   -2.7990   -9.6160 O.3   109  THR109     -0.2208
     79  CG2        4.2530   -2.7010   -8.2990 C.3   109  THR109      0.0378
     80  N          7.7050   -5.0610   -4.9710 N.3   111  VAL111     -0.1245
     81  CA         8.4810   -4.2540   -4.0010 C.3   111  VAL111      0.1561
     82  C          9.3130   -5.2710   -3.1850 C.2   111  VAL111      0.2260
     83  O          8.7580   -6.1130   -2.4810 O.2   111  VAL111     -0.2867
     84  CB         7.5960   -3.4170   -3.0660 C.3   111  VAL111      0.0252
     85  CG1        8.4600   -2.4600   -2.2560 C.3   111  VAL111      0.0019
     86  CG2        6.5410   -2.6120   -3.8920 C.3   111  VAL111      0.0019
@<TRIPOS>BOND
     1    60    61    1
     2    61    64    1
     3    61    62    1
     4    64    65    1
     5    62    66   am
     6    62    63    2
     7    66    67    1
     8    72    70    1
     9    55    54    2
    10    69    68    2
    11    70    67    1
    12    70    71    1
    13    67    68    1
    14    59    57    1
    15    54    53    1
    16    68    73   am
    17    57    56    1
    18    57    58    1
    19    56    53    1
    20    53    52    1
    21    52    49   am
    22    73    74    1
    23    74    77    1
    24    74    75    1
    25    78    77    1
    26    77    79    1
    27    51    48    1
    28    49    48    1
    29    49    50    2
    30    48    47    1
    31    21    20    2
    32    45    44    2
    33    75    76    2
    34    47    44   am
    35    20    19    1
    36    44    43    1
    37    22    19    1
    38    22    23    1
    39    19    18    1
    40    43    42    1
    41    43    46    1
    42    24    23    1
    43    23    25    1
    44    12    11    2
    45    80    81    1
    46    38    37    2
    47    11    10    1
    48    81    82    1
    49    81    84    1
    50    86    84    1
    51    37    36    1
    52    82    83    2
    53    84    85    1
    54     9    10    1
    55    10    13    1
    56    13    14    1
    57    36    35    1
    58    36    39    1
    59    14    15    1
    60    41    39    1
    61     4     3    2
    62    39    40    1
    63    15    16    1
    64     3     2    1
    65    16    17    1
    66     1     2    1
    67    26    27    1
    68     2     5    1
    69     7     8    1
    70     7     6    1
    71    27    28    1
    72    27    30    1
    73    28    29    2
    74     5     6    1
    75    31    30    1
    76    31    32    1
    77    34    32   ar
    78    32    33   ar
