@<TRIPOS>MOLECULE
tmp/3eszA00.pdb
 167 166 0 0 0
SMALL
GASTEIGER

@<TRIPOS>ATOM
      1  N         17.8740    5.3560   31.4000 N.3    10  THR10      -0.1203
      2  CA        18.5990    5.1890   30.1600 C.3    10  THR10       0.1994
      3  C         19.4650    3.9380   30.2200 C.2    10  THR10       0.2618
      4  O         20.0570    3.6350   31.2420 O.2    10  THR10      -0.2717
      5  CB        19.4400    6.4580   29.8600 C.3    10  THR10       0.1784
      6  OG1       19.9510    6.3950   28.5250 O.3    10  THR10      -0.2211
      7  CG2       20.6710    6.5590   30.7550 C.3    10  THR10       0.0376
      8  N         19.5060    3.2100   29.1160 N.am   11  GLN11      -0.1965
      9  CA        20.3330    2.0180   28.9910 C.3    11  GLN11       0.1733
     10  C         21.5440    2.2960   28.1050 C.2    11  GLN11       0.2617
     11  O         22.6750    2.0210   28.4970 O.2    11  GLN11      -0.2715
     12  CB        19.4880    0.8730   28.4350 C.3    11  GLN11       0.0408
     13  CG        19.9480   -0.5100   28.8000 C.3    11  GLN11       0.0908
     14  CD        19.9810   -0.7940   30.2960 C.2    11  GLN11       0.2608
     15  OE1       20.6490   -1.7320   30.7130 O.2    11  GLN11      -0.2717
     16  NE2       19.2710   -0.0020   31.0950 N.am   11  GLN11      -0.0878
     17  N         21.3120    2.8520   26.9170 N.am   12  THR12      -0.1937
     18  CA        22.4040    3.1920   26.0110 C.3    12  THR12       0.2028
     19  C         22.6870    4.7070   25.9160 C.2    12  THR12       0.2643
     20  O         23.3690    5.1510   24.9970 O.2    12  THR12      -0.2714
     21  CB        22.1860    2.5510   24.6070 C.3    12  THR12       0.1808
     22  OG1       20.8930    2.8840   24.0840 O.3    12  THR12      -0.2208
     23  CG2       22.1570    1.0080   24.7040 C.3    12  THR12       0.0379
     24  N         22.1860    5.4840   26.8780 N.am   13  GLY13      -0.1939
     25  CA        22.5510    6.8930   27.0110 C.3    13  GLY13       0.2014
     26  C         21.7630    7.9080   26.1910 C.2    13  GLY13       0.2639
     27  O         21.9720    9.1150   26.3470 O.2    13  GLY13      -0.2714
     28  N         20.8770    7.4450   25.3150 N.am   14  LYS14      -0.1963
     29  CA        20.2100    8.3410   24.3730 C.3    14  LYS14       0.1728
     30  C         19.1660    9.2360   25.0560 C.2    14  LYS14       0.2616
     31  O         19.0820   10.4250   24.7690 O.2    14  LYS14      -0.2715
     32  CB        19.6090    7.5410   23.2160 C.3    14  LYS14       0.0311
     33  CG        20.6790    6.8100   22.3970 C.3    14  LYS14       0.0038
     34  CD        20.1240    5.6850   21.5570 C.3    14  LYS14       0.0206
     35  CE        21.2500    4.8680   20.9310 C.3    14  LYS14       0.1093
     36  NZ        20.7330    3.8070   20.0190 N.3    14  LYS14      -0.1314
     37  N         18.3760    8.6510   25.9490 N.am   15  THR15      -0.1951
     38  CA        17.3830    9.3910   26.7120 C.3    15  THR15       0.1897
     39  C         18.0450   10.3940   27.6560 C.2    15  THR15       0.2313
     40  O         17.4860   11.4420   27.9290 O.2    15  THR15      -0.2863
     41  CB        16.4760    8.4270   27.4990 C.3    15  THR15       0.1794
     42  OG1       15.8100    7.5420   26.5860 O.3    15  THR15      -0.2208
     43  CG2       15.3400    9.1800   28.1840 C.3    15  THR15       0.0378
     44  N         12.8970    5.4210   27.7780 N.3    55  PRO55      -0.2102
     45  CA        12.8680    4.6740   26.5290 C.3    55  PRO55       0.1504
     46  C         12.1820    3.3370   26.7510 C.2    55  PRO55       0.2576
     47  O         12.0310    2.8780   27.8860 O.2    55  PRO55      -0.2718
     48  CB        14.3510    4.4730   26.2200 C.3    55  PRO55       0.0282
     49  CG        14.9770    4.3330   27.5660 C.3    55  PRO55       0.0208
     50  CD        14.1660    5.2090   28.4970 C.3    55  PRO55       0.0893
     51  N         11.7930    2.7150   25.6530 N.am   56  THR56      -0.1939
     52  CA        11.1340    1.4290   25.6870 C.3    56  THR56       0.2028
     53  C         12.1650    0.3910   25.2910 C.2    56  THR56       0.2642
     54  O         12.8540    0.5360   24.2710 O.2    56  THR56      -0.2714
     55  CB         9.9550    1.4200   24.7220 C.3    56  THR56       0.1808
     56  OG1        9.0490    2.4870   25.0460 O.3    56  THR56      -0.2208
     57  CG2        9.1340    0.1540   24.8760 C.3    56  THR56       0.0379
     58  N         12.2690   -0.6550   26.1030 N.am   57  TRP57      -0.1959
     59  CA        13.1940   -1.7400   25.8430 C.3    57  TRP57       0.1771
     60  C         12.4460   -3.0470   25.6560 C.2    57  TRP57       0.2620
     61  O         11.2200   -3.0730   25.6610 O.2    57  TRP57      -0.2715
     62  CB        14.2790   -1.7980   26.9350 C.3    57  TRP57       0.0590
     63  CG        15.3070   -0.7960   26.6270 C.ar   57  TRP57       0.0006
     64  CD1       15.3240    0.4950   27.0390 C.ar   57  TRP57       0.0946
     65  CD2       16.4220   -0.9460   25.7400 C.ar   57  TRP57       0.0152
     66  NE1       16.4050    1.1540   26.5050 N.ar   57  TRP57      -0.2442
     67  CE2       17.0970    0.2930   25.7010 C.ar   57  TRP57       0.0810
     68  CE3       16.9420   -2.0110   25.0000 C.ar   57  TRP57       0.0012
     69  CZ2       18.2570    0.4960   24.9490 C.ar   57  TRP57       0.0191
     70  CZ3       18.0870   -1.8150   24.2600 C.ar   57  TRP57       0.0001
     71  CH2       18.7320   -0.5640   24.2290 C.ar   57  TRP57       0.0015
     72  N         13.2150   -4.1130   25.4690 N.am   58  ASN58      -0.1958
     73  CA        12.7520   -5.3420   24.8440 C.3    58  ASN58       0.1819
     74  C         11.7230   -6.1250   25.6330 C.2    58  ASN58       0.2621
     75  O         12.0790   -6.6870   26.6720 O.2    58  ASN58      -0.2715
     76  CB        13.9700   -6.2420   24.6150 C.3    58  ASN58       0.1195
     77  CG        13.8560   -7.0850   23.3940 C.2    58  ASN58       0.2630
     78  OD1       12.8950   -6.9840   22.6430 O.2    58  ASN58      -0.2716
     79  ND2       14.8480   -7.9420   23.1840 N.am   58  ASN58      -0.0877
     80  N         10.4590   -6.1620   25.1940 N.am   59  ILE59      -0.1963
     81  CA         9.8880   -5.2400   24.1880 C.3    59  ILE59       0.1727
     82  C          8.5700   -4.7200   24.7170 C.2    59  ILE59       0.2616
     83  O          7.7850   -5.4590   25.3280 O.2    59  ILE59      -0.2715
     84  CB         9.6210   -5.8570   22.7810 C.3    59  ILE59       0.0290
     85  CG1        9.5240   -7.3800   22.8280 C.3    59  ILE59       0.0022
     86  CG2       10.6220   -5.3200   21.7710 C.3    59  ILE59       0.0023
     87  CD1        8.2570   -7.8780   23.5130 C.3    59  ILE59       0.0001
     88  N          8.3320   -3.4430   24.4690 N.am   60  GLY60      -0.1955
     89  CA         7.1950   -2.7590   25.0330 C.3    60  GLY60       0.1869
     90  C          7.3140   -2.6260   26.5350 C.2    60  GLY60       0.2309
     91  O          6.3190   -2.3830   27.2030 O.2    60  GLY60      -0.2863
     92  N         12.8170    8.1580   24.1420 N.3    88  THR88      -0.1203
     93  CA        13.4210    7.7550   22.8860 C.3    88  THR88       0.1994
     94  C         12.9300    6.3610   22.5630 C.2    88  THR88       0.2618
     95  O         12.5120    5.6190   23.4390 O.2    88  THR88      -0.2717
     96  CB        14.9480    7.8550   22.9170 C.3    88  THR88       0.1784
     97  OG1       15.4950    7.0570   23.9720 O.3    88  THR88      -0.2211
     98  CG2       15.3850    9.2670   23.2510 C.3    88  THR88       0.0376
     99  N         12.9590    6.0230   21.2840 N.am   89  GLY89      -0.1942
    100  CA        12.4640    4.7500   20.8050 C.3    89  GLY89       0.2014
    101  C         12.8290    4.5650   19.3430 C.2    89  GLY89       0.2638
    102  O         13.3680    5.4650   18.7120 O.2    89  GLY89      -0.2714
    103  N         12.5060    3.3980   18.8060 N.am   90  ASP90      -0.1971
    104  CA        12.8870    3.0270   17.4440 C.3    90  ASP90       0.1709
    105  C         11.6190    2.6130   16.7060 C.2    90  ASP90       0.2293
    106  O         11.1100    1.5110   16.8790 O.2    90  ASP90      -0.2864
    107  CB        13.9160    1.9040   17.5210 C.3    90  ASP90       0.1436
    108  CG        14.2460    1.2880   16.1800 C.2    90  ASP90       0.3671
    109  OD1       13.8040    1.7990   15.1200 O.co2  90  ASP90      -0.2456
    110  OD2       14.9770    0.2720   16.1160 O.co2  90  ASP90      -0.2456
    111  N         10.7470   -1.3360   16.0140 N.3    94  TYR94      -0.1241
    112  CA         9.7780   -1.6910   17.0510 C.3    94  TYR94       0.1605
    113  C          8.4700   -0.9270   16.8460 C.2    94  TYR94       0.2264
    114  O          7.9870   -0.2150   17.7210 O.2    94  TYR94      -0.2867
    115  CB        10.4010   -1.4700   18.4360 C.3    94  TYR94       0.0534
    116  CG        11.6030   -2.3760   18.6060 C.ar   94  TYR94      -0.0201
    117  CD1       11.4570   -3.6840   19.0550 C.ar   94  TYR94      -0.0009
    118  CD2       12.8670   -1.9580   18.2240 C.ar   94  TYR94      -0.0009
    119  CE1       12.5620   -4.5340   19.1700 C.ar   94  TYR94       0.0417
    120  CE2       13.9650   -2.7980   18.3290 C.ar   94  TYR94       0.0417
    121  CZ        13.8090   -4.0790   18.8000 C.ar   94  TYR94       0.1957
    122  OH        14.9160   -4.8960   18.9020 O.3    94  TYR94      -0.2866
    123  N          5.3890   -1.3460   19.1450 N.3    97  ASN97      -0.1225
    124  CA         5.5760   -0.9830   20.5530 C.3    97  ASN97       0.1785
    125  C          6.3200    0.3330   20.7180 C.2    97  ASN97       0.2597
    126  O          7.0570    0.5220   21.6890 O.2    97  ASN97      -0.2718
    127  CB         6.3750   -2.0770   21.2660 C.3    97  ASN97       0.1169
    128  CG         5.6920   -3.4290   21.2120 C.2    97  ASN97       0.2627
    129  OD1        5.9960   -4.2520   20.3420 O.2    97  ASN97      -0.2716
    130  ND2        4.7700   -3.6670   22.1460 N.am   97  ASN97      -0.0877
    131  N          6.1320    1.2350   19.7660 N.am   98  PHE98      -0.1962
    132  CA         6.8880    2.4820   19.7260 C.3    98  PHE98       0.1771
    133  C          6.4470    3.4060   20.8560 C.2    98  PHE98       0.2619
    134  O          5.2850    3.7900   20.9150 O.2    98  PHE98      -0.2715
    135  CB         6.6900    3.1680   18.3760 C.3    98  PHE98       0.0574
    136  CG         7.4520    4.4560   18.2250 C.ar   98  PHE98      -0.0200
    137  CD1        8.8290    4.4950   18.4080 C.ar   98  PHE98      -0.0042
    138  CD2        6.7930    5.6310   17.8760 C.ar   98  PHE98      -0.0042
    139  CE1        9.5350    5.6790   18.2630 C.ar   98  PHE98      -0.0003
    140  CE2        7.4940    6.8130   17.7230 C.ar   98  PHE98      -0.0003
    141  CZ         8.8640    6.8420   17.9160 C.ar   98  PHE98      -0.0000
    142  N          7.3790    3.7230   21.7530 N.am   99  GLN99      -0.1977
    143  CA         7.1510    4.5940   22.9050 C.3    99  GLN99       0.1601
    144  C          6.1630    4.0460   23.9410 C.2    99  GLN99       0.2287
    145  O          5.5390    4.8080   24.6720 O.2    99  GLN99      -0.2864
    146  CB         6.7090    5.9910   22.4510 C.3    99  GLN99       0.0394
    147  CG         7.6420    6.6360   21.4150 C.3    99  GLN99       0.0908
    148  CD         8.9650    7.1270   22.0080 C.2    99  GLN99       0.2608
    149  OE1        9.1530    7.1350   23.2320 O.2    99  GLN99      -0.2717
    150  NE2        9.8760    7.5470   21.1380 N.am   99  GLN99      -0.0878
    151  N         16.2140    8.7550   18.1240 N.3   145  GLU145     -0.1231
    152  CA        17.6320    8.9770   17.8830 C.3   145  GLU145      0.1699
    153  C         18.2490    7.9430   16.9360 C.2   145  GLU145      0.2592
    154  O         19.3390    8.1550   16.4240 O.2   145  GLU145     -0.2718
    155  CB        18.3750    8.9460   19.2150 C.3   145  GLU145      0.0402
    156  CG        18.0790   10.1430   20.0950 C.3   145  GLU145      0.1161
    157  CD        18.8390   11.3770   19.6490 C.2   145  GLU145      0.3649
    158  OE1       19.8720   11.6850   20.2740 O.co2 145  GLU145     -0.2457
    159  OE2       18.4020   12.0420   18.6720 O.co2 145  GLU145     -0.2457
    160  N         17.5750    6.8170   16.7400 N.am  146  ASP146     -0.1974
    161  CA        18.0700    5.7550   15.8590 C.3   146  ASP146      0.1709
    162  C         17.7790    6.0260   14.3820 C.2   146  ASP146      0.2293
    163  O         18.5830    5.6870   13.5100 O.2   146  ASP146     -0.2864
    164  CB        17.4630    4.3990   16.2690 C.3   146  ASP146      0.1436
    165  CG        17.8690    3.9800   17.6820 C.2   146  ASP146      0.3671
    166  OD1       18.9690    4.3710   18.1240 O.co2 146  ASP146     -0.2456
    167  OD2       17.1410    3.3030   18.4410 O.co2 146  ASP146     -0.2456
@<TRIPOS>BOND
     1   163   162    2
     2   162   161    1
     3   109   108   ar
     4   161   164    1
     5   161   160    1
     6   111   112    1
     7   110   108   ar
     8   108   107    1
     9   164   165    1
    10   154   153    2
    11   105   106    2
    12   105   104    1
    13   160   153   am
    14   113   112    1
    15   113   114    2
    16   153   152    1
    17   112   115    1
    18   104   107    1
    19   104   103    1
    20   165   166   ar
    21   165   167   ar
    22   140   138   ar
    23   140   141   ar
    24   138   136   ar
    25   152   151    1
    26   152   155    1
    27   141   139   ar
    28   118   120   ar
    29   118   116   ar
    30   136   135    1
    31   136   137   ar
    32   139   137   ar
    33   120   121   ar
    34   135   132    1
    35   115   116    1
    36   116   117   ar
    37   159   157   ar
    38   102   101    2
    39   121   122    1
    40   121   119   ar
    41   103   101   am
    42   117   119   ar
    43   123   124    1
    44   155   156    1
    45   101   100    1
    46   157   156    1
    47   157   158   ar
    48   132   131    1
    49   132   133    1
    50   131   125   am
    51    36    35    1
    52   129   128    2
    53   124   125    1
    54   124   127    1
    55   125   126    2
    56   100    99    1
    57   133   134    2
    58   133   142   am
    59    35    34    1
    60   150   148   am
    61   128   127    1
    62   128   130   am
    63    99    94   am
    64   147   148    1
    65   147   146    1
    66    34    33    1
    67   142   143    1
    68    86    84    1
    69   148   149    2
    70    33    32    1
    71   146   143    1
    72    94    93    1
    73    94    95    2
    74    78    77    2
    75    84    85    1
    76    84    81    1
    77    85    87    1
    78    93    96    1
    79    93    92    1
    80   143   144    1
    81    96    98    1
    82    96    97    1
    83    79    77   am
    84    32    29    1
    85    77    76    1
    86   144   145    2
    87    22    21    1
    88    81    82    1
    89    81    80    1
    90    71    70   ar
    91    71    69   ar
    92    70    68   ar
    93    54    53    2
    94    29    30    1
    95    29    28    1
    96    88    82   am
    97    88    89    1
    98    21    23    1
    99    21    18    1
   100    76    73    1
   101    82    83    2
   102    55    57    1
   103    55    56    1
   104    55    52    1
   105    31    30    2
   106    73    72    1
   107    73    74    1
   108    69    67   ar
   109    20    19    2
   110    68    65   ar
   111    89    90    1
   112    30    37   am
   113    80    74   am
   114    53    52    1
   115    53    58   am
   116    28    26   am
   117    72    60   am
   118    74    75    2
   119    51    52    1
   120    51    46   am
   121    60    61    2
   122    60    59    1
   123    67    65   ar
   124    67    66   ar
   125    65    63   ar
   126    59    58    1
   127    59    62    1
   128    19    18    1
   129    19    24   am
   130    37    38    1
   131    18    17    1
   132    26    27    2
   133    26    25    1
   134    48    45    1
   135    48    49    1
   136    66    64   ar
   137    45    46    1
   138    45    44    1
   139    90    91    2
   140    42    41    1
   141    63    62    1
   142    63    64   ar
   143    38    41    1
   144    38    39    1
   145    46    47    2
   146    24    25    1
   147    17    10   am
   148    41    43    1
   149    49    50    1
   150    39    40    2
   151    44    50    1
   152    10    11    2
   153    10     9    1
   154    12    13    1
   155    12     9    1
   156     6     5    1
   157    13    14    1
   158     9     8    1
   159     8     3   am
   160     5     2    1
   161     5     7    1
   162     2     3    1
   163     2     1    1
   164     3     4    2
   165    14    15    2
   166    14    16   am
