@<TRIPOS>MOLECULE
tmp/3et0B00.pdb
 112 104 0 0 0
SMALL
GASTEIGER

@<TRIPOS>ATOM
      1  N         45.1560   40.2520   44.3580 N.3    64  ILE64      -0.1231
      2  CA        43.7900   39.7570   44.3090 C.3    64  ILE64       0.1692
      3  C         43.2730   39.7870   42.8730 C.2    64  ILE64       0.2592
      4  O         42.7740   38.7840   42.3720 O.2    64  ILE64      -0.2718
      5  CB        42.8590   40.5540   45.2350 C.3    64  ILE64       0.0266
      6  CG1       43.2420   40.3130   46.6990 C.3    64  ILE64       0.0019
      7  CG2       41.4210   40.1460   45.0270 C.3    64  ILE64       0.0020
      8  CD1       42.4460   41.1290   47.6940 C.3    64  ILE64       0.0001
      9  N         43.4010   40.9230   42.1990 N.am   65  PHE65      -0.1976
     10  CA        42.9410   40.9760   40.8120 C.3    65  PHE65       0.1639
     11  C         43.5800   39.8850   39.9530 C.2    65  PHE65       0.2290
     12  O         42.8950   39.2210   39.1800 O.2    65  PHE65      -0.2864
     13  CB        43.1860   42.3240   40.1450 C.3    65  PHE65       0.0560
     14  CG        43.1180   42.2450   38.6500 C.ar   65  PHE65      -0.0200
     15  CD1       41.9130   41.9910   38.0140 C.ar   65  PHE65      -0.0042
     16  CD2       44.2580   42.3660   37.8790 C.ar   65  PHE65      -0.0042
     17  CE1       41.8400   41.8880   36.6310 C.ar   65  PHE65      -0.0003
     18  CE2       44.1870   42.2670   36.4970 C.ar   65  PHE65      -0.0003
     19  CZ        42.9730   42.0270   35.8760 C.ar   65  PHE65      -0.0000
     20  N         44.5880   37.0610   40.7960 N.3    67  GLY67      -0.1225
     21  CA        44.0110   35.7730   41.1390 C.3    67  GLY67       0.1811
     22  C         42.6650   35.5450   40.4700 C.2    67  GLY67       0.2280
     23  O         42.2370   34.4040   40.2900 O.2    67  GLY67      -0.2866
     24  N         41.7770   32.8140   37.3890 N.3    70  ARG70      -0.1245
     25  CA        40.5710   31.9980   37.4320 C.3    70  ARG70       0.1563
     26  C         39.8040   32.1200   36.1080 C.2    70  ARG70       0.2260
     27  O         39.2840   31.1290   35.5860 O.2    70  ARG70      -0.2867
     28  CB        39.7090   32.3630   38.6440 C.3    70  ARG70       0.0307
     29  CG        38.3050   31.7870   38.6180 C.3    70  ARG70       0.0489
     30  CD        38.3160   30.2730   38.4700 C.3    70  ARG70       0.2205
     31  NE        36.9880   29.7610   38.1310 N.pl3  70  ARG70      -0.0865
     32  CZ        36.7630   28.6520   37.4280 C.cat  70  ARG70       0.5346
     33  NH1       37.7760   27.9270   36.9680 N.pl3  70  ARG70       0.1354
     34  NH2       35.5190   28.2760   37.1680 N.pl3  70  ARG70       0.1354
     35  N         29.5780   33.2050   37.3990 N.3   112  LEU112     -0.1245
     36  CA        30.0170   33.7720   38.6650 C.3   112  LEU112      0.1561
     37  C         28.8070   34.1120   39.5670 C.2   112  LEU112      0.2260
     38  O         28.8510   33.8840   40.7610 O.2   112  LEU112     -0.2867
     39  CB        30.8470   35.0150   38.3810 C.3   112  LEU112      0.0270
     40  CG        31.6960   35.6380   39.4730 C.3   112  LEU112      0.0019
     41  CD1       32.6080   34.6060   40.1420 C.3   112  LEU112      0.0001
     42  CD2       32.5010   36.7610   38.8320 C.3   112  LEU112      0.0001
     43  N         28.1070   31.7390   41.9740 N.3   115  LEU115     -0.1245
     44  CA        29.0090   31.6150   43.1220 C.3   115  LEU115      0.1561
     45  C         28.9120   32.8120   44.0780 C.2   115  LEU115      0.2260
     46  O         29.7300   32.9630   44.9970 O.2   115  LEU115     -0.2867
     47  CB        30.4610   31.4050   42.6650 C.3   115  LEU115      0.0270
     48  CG        30.7600   30.3010   41.6290 C.3   115  LEU115      0.0019
     49  CD1       32.2510   29.9300   41.5920 C.3   115  LEU115      0.0001
     50  CD2       29.9240   29.0510   41.8450 C.3   115  LEU115      0.0001
     51  N         31.5470   36.2340   47.5130 N.3   121  VAL121     -0.1231
     52  CA        31.7340   35.2600   46.4500 C.3   121  VAL121      0.1692
     53  C         32.6430   34.1220   46.8790 C.2   121  VAL121      0.2592
     54  O         33.6480   34.3320   47.5550 O.2   121  VAL121     -0.2718
     55  CB        32.3130   35.9420   45.1900 C.3   121  VAL121      0.0266
     56  CG1       33.7040   36.4960   45.4920 C.3   121  VAL121      0.0020
     57  CG2       32.3380   34.9710   43.9940 C.3   121  VAL121      0.0020
     58  N         32.2700   32.9090   46.4850 N.am  122  LEU122     -0.1966
     59  CA        33.0940   31.7280   46.7090 C.3   122  LEU122      0.1728
     60  C         34.3290   31.7890   45.8350 C.2   122  LEU122      0.2616
     61  O         34.2670   32.2660   44.7110 O.2   122  LEU122     -0.2715
     62  CB        32.3110   30.4740   46.3490 C.3   122  LEU122      0.0311
     63  CG        31.1750   30.0750   47.2920 C.3   122  LEU122      0.0022
     64  CD1       30.5290   28.7920   46.7990 C.3   122  LEU122      0.0001
     65  CD2       31.7190   29.8970   48.6990 C.3   122  LEU122      0.0001
     66  N         35.4480   31.2960   46.3470 N.am  123  ILE123     -0.1963
     67  CA        36.6780   31.2440   45.5740 C.3   123  ILE123      0.1727
     68  C         37.3560   29.8960   45.7850 C.2   123  ILE123      0.2617
     69  O         36.8880   29.0840   46.5810 O.2   123  ILE123     -0.2715
     70  CB        37.6350   32.3580   45.9940 C.3   123  ILE123      0.0290
     71  CG1       38.0040   32.1960   47.4730 C.3   123  ILE123      0.0022
     72  CG2       37.0060   33.7240   45.7450 C.3   123  ILE123      0.0023
     73  CD1       39.1920   33.0360   47.8990 C.3   123  ILE123      0.0001
     74  N         38.4620   29.6630   45.0810 N.am  124  SER124     -0.1936
     75  CA        39.1770   28.3880   45.1580 C.3   124  SER124      0.2055
     76  C         38.2490   27.1920   45.1530 C.2   124  SER124      0.2642
     77  O         38.2720   26.3870   46.0780 O.2   124  SER124     -0.2714
     78  CB        40.0430   28.3170   46.4120 C.3   124  SER124      0.2130
     79  OG        41.3200   28.8710   46.1730 O.3   124  SER124     -0.2179
     80  N         37.4240   27.0810   44.1220 N.am  125  GLU125     -0.1976
     81  CA        36.5250   25.9410   43.9930 C.3   125  GLU125      0.1602
     82  C         35.6620   25.7740   45.2330 C.2   125  GLU125      0.2287
     83  O         35.3320   24.6550   45.6250 O.2   125  GLU125     -0.2864
     84  CB        37.3240   24.6640   43.7350 C.3   125  GLU125      0.0415
     85  CG        38.1570   24.7000   42.4560 C.3   125  GLU125      0.1163
     86  CD        39.4760   23.9620   42.5990 C.2   125  GLU125      0.3649
     87  OE1       40.2420   24.2890   43.5340 O.co2 125  GLU125     -0.2457
     88  OE2       39.7490   23.0620   41.7760 O.co2 125  GLU125     -0.2457
     89  N         34.9790   35.1960   49.7350 N.3   130  MET130     -0.1245
     90  CA        35.4840   36.5490   49.8880 C.3   130  MET130      0.1570
     91  C         34.3180   37.5050   49.9760 C.2   130  MET130      0.2261
     92  O         33.3890   37.4420   49.1690 O.2   130  MET130     -0.2867
     93  CB        36.4020   36.9250   48.7270 C.3   130  MET130      0.0387
     94  CG        37.2630   38.1490   49.0100 C.3   130  MET130      0.0595
     95  SD        38.5640   38.3620   47.7880 S.3   130  MET130     -0.1393
     96  CE        39.2820   36.7240   47.8070 C.3   130  MET130      0.0692
     97  N         36.2780   43.2360   49.3940 N.3   135  LEU135     -0.1245
     98  CA        36.6280   43.6390   48.0290 C.3   135  LEU135      0.1561
     99  C         36.4680   45.1430   47.8280 C.2   135  LEU135      0.2260
    100  O         37.3500   45.8080   47.2650 O.2   135  LEU135     -0.2867
    101  CB        35.7540   42.8970   47.0170 C.3   135  LEU135      0.0270
    102  CG        35.9690   41.3900   47.0150 C.3   135  LEU135      0.0019
    103  CD1       34.8240   40.6690   46.3140 C.3   135  LEU135      0.0001
    104  CD2       37.3060   41.0860   46.3750 C.3   135  LEU135      0.0001
    105  N         34.7270   44.3600   41.3380 N.3   146  MET146     -0.1245
    106  CA        33.7340   43.3000   41.4510 C.3   146  MET146      0.1570
    107  C         32.3120   43.7850   41.7080 C.2   146  MET146      0.2261
    108  O         31.3540   43.0850   41.3810 O.2   146  MET146     -0.2867
    109  CB        34.1470   42.3080   42.5380 C.3   146  MET146      0.0387
    110  CG        33.8920   40.8640   42.1580 C.3   146  MET146      0.0595
    111  SD        34.9370   40.3640   40.7820 S.3   146  MET146     -0.1393
    112  CE        36.5580   40.4910   41.5350 C.3   146  MET146      0.0692
@<TRIPOS>BOND
     1    27    26    2
     2    19    18   ar
     3    19    17   ar
     4    26    25    1
     5    18    16   ar
     6    17    15   ar
     7    33    32    1
     8    34    32    1
     9    24    25    1
    10    35    36    1
    11    32    31    2
    12    25    28    1
    13    16    14   ar
    14    15    14   ar
    15    31    30    1
    16    39    36    1
    17    39    40    1
    18    30    29    1
    19    29    28    1
    20    14    13    1
    21    36    37    1
    22    42    40    1
    23    12    11    2
    24    40    41    1
    25    37    38    2
    26    11    10    1
    27    13    10    1
    28    23    22    2
    29    22    21    1
    30   111   112    1
    31   111   110    1
    32    20    21    1
    33    10     9    1
    34   105   106    1
    35   108   107    2
    36   106   107    1
    37   106   109    1
    38    49    48    1
    39    48    50    1
    40    48    47    1
    41    88    86   ar
    42    43    44    1
    43   110   109    1
    44     9     3   am
    45     4     3    2
    46    85    86    1
    47    85    84    1
    48    86    87   ar
    49    47    44    1
    50     3     2    1
    51    44    45    1
    52    84    81    1
    53    81    80    1
    54    81    82    1
    55    57    55    1
    56    45    46    2
    57    80    76   am
    58     2     1    1
    59     2     5    1
    60    61    60    2
    61     7     5    1
    62    74    75    1
    63    74    68   am
    64    76    75    1
    65    76    77    2
    66    75    78    1
    67    55    56    1
    68    55    52    1
    69    82    83    2
    70     5     6    1
    71    67    68    1
    72    67    70    1
    73    67    66    1
    74    72    70    1
    75    68    69    2
    76    60    66   am
    77    60    59    1
    78    70    71    1
    79    79    78    1
    80   103   102    1
    81    62    59    1
    82    62    63    1
    83   104   102    1
    84    52    53    1
    85    52    51    1
    86    58    59    1
    87    58    53   am
    88     6     8    1
    89    64    63    1
    90    53    54    2
    91   102   101    1
    92   101    98    1
    93   100    99    2
    94    63    65    1
    95    71    73    1
    96    95    96    1
    97    95    94    1
    98    99    98    1
    99    98    97    1
   100    93    94    1
   101    93    90    1
   102    92    91    2
   103    89    90    1
   104    90    91    1
