@<TRIPOS>MOLECULE
tmp/3et0A00.pdb
 173 164 0 0 0
SMALL
GASTEIGER

@<TRIPOS>ATOM
      1  N         22.5470   70.6920    9.3420 N.3    64  ILE64      -0.1231
      2  CA        22.0040   69.3440    9.3240 C.3    64  ILE64       0.1692
      3  C         21.8360   68.8650   10.7590 C.2    64  ILE64       0.2592
      4  O         20.7810   68.3560   11.1410 O.2    64  ILE64      -0.2718
      5  CB        22.9310   68.3820    8.5540 C.3    64  ILE64       0.0266
      6  CG1       23.0100   68.7890    7.0840 C.3    64  ILE64       0.0019
      7  CG2       22.4540   66.9390    8.6770 C.3    64  ILE64       0.0020
      8  CD1       24.1260   68.1150    6.3560 C.3    64  ILE64       0.0001
      9  N         22.8800   69.0450   11.5590 N.am   65  PHE65      -0.1976
     10  CA        22.8060   68.7130   12.9740 C.3    65  PHE65       0.1639
     11  C         21.5870   69.3410   13.6680 C.2    65  PHE65       0.2290
     12  O         20.8960   68.6870   14.4510 O.2    65  PHE65      -0.2864
     13  CB        24.0820   69.1400   13.6920 C.3    65  PHE65       0.0560
     14  CG        24.1290   68.7150   15.1290 C.ar   65  PHE65      -0.0200
     15  CD1       24.3520   67.3870   15.4610 C.ar   65  PHE65      -0.0042
     16  CD2       23.9310   69.6360   16.1500 C.ar   65  PHE65      -0.0042
     17  CE1       24.3890   66.9820   16.7790 C.ar   65  PHE65      -0.0003
     18  CE2       23.9700   69.2390   17.4830 C.ar   65  PHE65      -0.0003
     19  CZ        24.1990   67.9090   17.7970 C.ar   65  PHE65      -0.0000
     20  N         18.1630   67.5040   15.2770 N.3    68  GLN68      -0.1245
     21  CA        17.8620   67.8640   16.6600 C.3    68  GLN68       0.1566
     22  C         16.4080   68.2800   16.8430 C.2    68  GLN68       0.2260
     23  O         15.7550   67.8490   17.7930 O.2    68  GLN68      -0.2867
     24  CB        18.7920   68.9720   17.1500 C.3    68  GLN68       0.0367
     25  CG        18.1140   69.9590   18.0760 C.3    68  GLN68       0.0905
     26  CD        19.0990   70.8220   18.8460 C.2    68  GLN68       0.2608
     27  OE1       19.9440   70.3160   19.5910 O.2    68  GLN68      -0.2717
     28  NE2       18.9870   72.1350   18.6790 N.am   68  GLN68      -0.0878
     29  N         14.2380   65.3260   16.4850 N.3    71  SER71      -0.1217
     30  CA        14.2340   64.5320   17.7080 C.3    71  SER71       0.1889
     31  C         13.2250   65.0700   18.7150 C.2    71  SER71       0.2288
     32  O         12.5580   64.3070   19.4080 O.2    71  SER71      -0.2866
     33  CB        15.6210   64.5160   18.3440 C.3    71  SER71       0.2089
     34  OG        16.3630   63.3930   17.9140 O.3    71  SER71      -0.2183
     35  N         14.9520   57.7020   23.3830 N.3   105  HIS105     -0.1241
     36  CA        15.9780   57.4960   22.3520 C.3   105  HIS105      0.1621
     37  C         16.0640   56.0780   21.7970 C.2   105  HIS105      0.2264
     38  O         16.3230   55.8880   20.6080 O.2   105  HIS105     -0.2867
     39  CB        17.3420   58.0280   22.7880 C.3   105  HIS105      0.0745
     40  CG        17.4600   59.5100   22.6390 C.ar  105  HIS105      0.0817
     41  ND1       17.5870   60.3610   23.7150 N.ar  105  HIS105     -0.2268
     42  CD2       17.3960   60.2980   21.5400 C.ar  105  HIS105      0.1154
     43  CE1       17.6300   61.6100   23.2820 C.ar  105  HIS105      0.1986
     44  NE2       17.5160   61.5990   21.9660 N.ar  105  HIS105     -0.2212
     45  N         13.2920   56.2250   19.3100 N.3   108  ILE108     -0.1231
     46  CA        13.6320   57.0540   18.1820 C.3   108  ILE108      0.1692
     47  C         14.4690   56.2970   17.1520 C.2   108  ILE108      0.2592
     48  O         14.2090   56.3790   15.9530 O.2   108  ILE108     -0.2718
     49  CB        14.3960   58.3060   18.6430 C.3   108  ILE108      0.0266
     50  CG1       13.4070   59.3370   19.1850 C.3   108  ILE108      0.0019
     51  CG2       15.2400   58.8900   17.4860 C.3   108  ILE108      0.0020
     52  CD1       14.0500   60.4940   19.9280 C.3   108  ILE108      0.0001
     53  N         15.4730   55.5640   17.6200 N.am  109  TYR109     -0.1976
     54  CA        16.3590   54.8460   16.7060 C.3   109  TYR109      0.1639
     55  C         15.6720   53.6010   16.1590 C.2   109  TYR109      0.2290
     56  O         15.9600   53.1600   15.0560 O.2   109  TYR109     -0.2864
     57  CB        17.6950   54.5150   17.3920 C.3   109  TYR109      0.0560
     58  CG        18.3970   55.7640   17.8850 C.ar  109  TYR109     -0.0198
     59  CD1       18.9490   55.8330   19.1630 C.ar  109  TYR109     -0.0009
     60  CD2       18.4530   56.9050   17.0820 C.ar  109  TYR109     -0.0009
     61  CE1       19.5590   57.0010   19.6130 C.ar  109  TYR109      0.0417
     62  CE2       19.0570   58.0680   17.5200 C.ar  109  TYR109      0.0417
     63  CZ        19.6100   58.1150   18.7800 C.ar  109  TYR109      0.1957
     64  OH        20.2120   59.2850   19.1970 O.3   109  TYR109     -0.2866
     65  N         13.3860   55.2280   13.5200 N.3   112  LEU112     -0.1245
     66  CA        14.2120   55.8050   12.4720 C.3   112  LEU112      0.1561
     67  C         14.5880   54.7300   11.4650 C.2   112  LEU112      0.2260
     68  O         14.6630   55.0010   10.2720 O.2   112  LEU112     -0.2867
     69  CB        15.4710   56.4260   13.0550 C.3   112  LEU112      0.0270
     70  CG        16.2030   57.2960   12.0330 C.3   112  LEU112      0.0019
     71  CD1       15.2920   58.4450   11.6130 C.3   112  LEU112      0.0001
     72  CD2       17.5600   57.8010   12.5690 C.3   112  LEU112      0.0001
     73  N         26.0580   62.1420    4.5270 N.3   135  LEU135     -0.1245
     74  CA        26.1100   62.2660    5.9820 C.3   135  LEU135      0.1561
     75  C         27.4480   61.7750    6.5130 C.2   135  LEU135      0.2260
     76  O         28.1170   62.4740    7.2730 O.2   135  LEU135     -0.2867
     77  CB        24.9730   61.4790    6.6380 C.3   135  LEU135      0.0270
     78  CG        23.5510   61.9630    6.3770 C.3   135  LEU135      0.0019
     79  CD1       22.5650   60.9830    6.9690 C.3   135  LEU135      0.0001
     80  CD2       23.3340   63.3470    6.9610 C.3   135  LEU135      0.0001
     81  N         30.1350   64.3870    6.3170 N.3   138  LEU138     -0.1245
     82  CA        30.1480   65.6530    7.0460 C.3   138  LEU138      0.1561
     83  C         31.4550   65.8470    7.8180 C.2   138  LEU138      0.2260
     84  O         32.0800   64.8780    8.2550 O.2   138  LEU138     -0.2867
     85  CB        28.9460   65.7440    7.9820 C.3   138  LEU138      0.0270
     86  CG        27.6330   65.8080    7.2080 C.3   138  LEU138      0.0019
     87  CD1       26.4110   65.8560    8.1420 C.3   138  LEU138      0.0001
     88  CD2       27.6740   67.0030    6.2720 C.3   138  LEU138      0.0001
     89  N         30.5710   65.4580   13.0850 N.3   142  PHE142     -0.1241
     90  CA        29.2010   65.2770   12.5940 C.3   142  PHE142      0.1605
     91  C         29.0450   64.1680   11.5580 C.2   142  PHE142      0.2264
     92  O         27.9430   63.6660   11.3440 O.2   142  PHE142     -0.2867
     93  CB        28.6650   66.5740   12.0100 C.3   142  PHE142      0.0534
     94  CG        28.8400   67.7470   12.9030 C.ar  142  PHE142     -0.0203
     95  CD1       30.0720   68.3630   13.0210 C.ar  142  PHE142     -0.0042
     96  CD2       27.7700   68.2470   13.6270 C.ar  142  PHE142     -0.0042
     97  CE1       30.2320   69.4560   13.8520 C.ar  142  PHE142     -0.0003
     98  CE2       27.9250   69.3430   14.4590 C.ar  142  PHE142     -0.0003
     99  CZ        29.1520   69.9490   14.5670 C.ar  142  PHE142     -0.0000
    100  N         27.7770   60.7930   13.3420 N.3   145  PHE145     -0.1227
    101  CA        26.5100   60.6490   14.0500 C.3   145  PHE145      0.1736
    102  C         25.6180   59.5450   13.5070 C.2   145  PHE145      0.2595
    103  O         25.1440   58.6950   14.2660 O.2   145  PHE145     -0.2718
    104  CB        25.7410   61.9740   14.0820 C.3   145  PHE145      0.0547
    105  CG        26.1230   62.8540   15.2320 C.ar  145  PHE145     -0.0202
    106  CD1       26.6620   64.1090   15.0180 C.ar  145  PHE145     -0.0042
    107  CD2       25.9730   62.4090   16.5350 C.ar  145  PHE145     -0.0042
    108  CE1       27.0270   64.9130   16.0860 C.ar  145  PHE145     -0.0003
    109  CE2       26.3370   63.2070   17.6030 C.ar  145  PHE145     -0.0003
    110  CZ        26.8650   64.4590   17.3800 C.ar  145  PHE145     -0.0000
    111  N         25.3900   59.5520   12.1980 N.am  146  MET146     -0.1979
    112  CA        24.3250   58.7270   11.6390 C.3   146  MET146      0.1605
    113  C         24.7150   57.2860   11.3170 C.2   146  MET146      0.2287
    114  O         23.8620   56.3910   11.3450 O.2   146  MET146     -0.2864
    115  CB        23.6870   59.3970   10.4310 C.3   146  MET146      0.0413
    116  CG        22.2320   59.0040   10.2680 C.3   146  MET146      0.0598
    117  SD        21.1920   59.6960   11.5720 S.3   146  MET146     -0.1393
    118  CE        20.7160   61.2340   10.7900 C.3   146  MET146      0.0692
    119  N         23.5560   54.2450   13.2740 N.3   149  LYS149     -0.1245
    120  CA        22.1110   54.0810   13.1300 C.3   149  LYS149      0.1561
    121  C         21.8230   53.2820   11.8710 C.2   149  LYS149      0.2260
    122  O         20.9380   52.4200   11.8580 O.2   149  LYS149     -0.2867
    123  CB        21.4140   55.4420   13.0540 C.3   149  LYS149      0.0271
    124  CG        22.0950   56.5490   13.8690 C.3   149  LYS149      0.0035
    125  CD        21.7170   56.5000   15.3320 C.3   149  LYS149      0.0206
    126  CE        22.1470   57.7680   16.0850 C.3   149  LYS149      0.1093
    127  NZ        23.5210   57.6920   16.6730 N.3   149  LYS149     -0.1314
    128  N         26.2460   57.9750   21.0780 N.3   231  HIS231     -0.1241
    129  CA        25.6250   59.2480   20.7440 C.3   231  HIS231      0.1621
    130  C         25.8670   60.2990   21.8270 C.2   231  HIS231      0.2264
    131  O         26.2230   61.4390   21.5380 O.2   231  HIS231     -0.2867
    132  CB        24.1260   59.0610   20.5160 C.3   231  HIS231      0.0745
    133  CG        23.4680   60.2440   19.8870 C.ar  231  HIS231      0.0817
    134  ND1       23.2060   60.3180   18.5370 N.ar  231  HIS231     -0.2268
    135  CD2       23.0380   61.4120   20.4200 C.ar  231  HIS231      0.1154
    136  CE1       22.6290   61.4750   18.2670 C.ar  231  HIS231      0.1986
    137  NE2       22.5160   62.1570   19.3920 N.ar  231  HIS231     -0.2212
    138  N         27.8930   64.0570   21.6240 N.3   235  LEU235     -0.1245
    139  CA        27.3540   65.3090   22.1440 C.3   235  LEU235      0.1561
    140  C         28.3150   65.9350   23.1510 C.2   235  LEU235      0.2260
    141  O         28.5530   67.1440   23.1350 O.2   235  LEU235     -0.2867
    142  CB        25.9990   65.0540   22.8180 C.3   235  LEU235      0.0270
    143  CG        24.7240   65.0650   21.9730 C.3   235  LEU235      0.0019
    144  CD1       25.0010   64.6590   20.5400 C.3   235  LEU235      0.0001
    145  CD2       23.6420   64.1870   22.6010 C.3   235  LEU235      0.0001
    146  N         21.8120   72.5070   22.8530 N.3   247  LEU247     -0.1245
    147  CA        20.6790   71.5890   22.7530 C.3   247  LEU247      0.1561
    148  C         19.3370   72.2500   23.0690 C.2   247  LEU247      0.2260
    149  O         19.2660   73.2370   23.8030 O.2   247  LEU247     -0.2867
    150  CB        20.8770   70.3940   23.6880 C.3   247  LEU247      0.0270
    151  CG        21.0740   69.0070   23.0790 C.3   247  LEU247      0.0019
    152  CD1       21.7790   69.0830   21.7270 C.3   247  LEU247      0.0001
    153  CD2       21.8330   68.1010   24.0520 C.3   247  LEU247      0.0001
    154  N         15.6400   68.1450   25.1410 N.3   251  LEU251     -0.1245
    155  CA        16.7050   67.1680   24.9150 C.3   251  LEU251      0.1561
    156  C         17.8110   67.2740   25.9710 C.2   251  LEU251      0.2260
    157  O         18.3830   66.2670   26.3960 O.2   251  LEU251     -0.2867
    158  CB        17.2700   67.3070   23.4960 C.3   251  LEU251      0.0270
    159  CG        16.2510   67.0820   22.3730 C.3   251  LEU251      0.0019
    160  CD1       16.7790   67.6070   21.0670 C.3   251  LEU251      0.0001
    161  CD2       15.8830   65.6090   22.2560 C.3   251  LEU251      0.0001
    162  N         18.9750   64.1020   28.3910 N.3   255  TYR255     -0.1241
    163  CA        20.3760   63.6980   28.4900 C.3   255  TYR255      0.1605
    164  C         21.0280   63.9690   29.8570 C.2   255  TYR255      0.2264
    165  O         22.0260   63.3350   30.2040 O.2   255  TYR255     -0.2867
    166  CB        21.1810   64.3540   27.3720 C.3   255  TYR255      0.0534
    167  CG        20.8890   63.7660   26.0010 C.ar  255  TYR255     -0.0201
    168  CD1       21.0330   62.4010   25.7720 C.ar  255  TYR255     -0.0009
    169  CD2       20.4900   64.5730   24.9360 C.ar  255  TYR255     -0.0009
    170  CE1       20.7720   61.8490   24.5390 C.ar  255  TYR255      0.0417
    171  CE2       20.2280   64.0280   23.6840 C.ar  255  TYR255      0.0417
    172  CZ        20.3790   62.6600   23.4950 C.ar  255  TYR255      0.1957
    173  OH        20.1380   62.0800   22.2680 O.3   255  TYR255     -0.2866
@<TRIPOS>BOND
     1    73    74    1
     2    74    75    1
     3    74    77    1
     4    88    86    1
     5    81    82    1
     6     8     6    1
     7    78    77    1
     8    78    80    1
     9    78    79    1
    10    75    76    2
    11    82    83    1
    12    82    85    1
    13     6     5    1
    14    86    85    1
    15    86    87    1
    16    83    84    2
    17     5     7    1
    18     5     2    1
    19     2     1    1
    20     2     3    1
    21   116   115    1
    22   116   117    1
    23    68    67    2
    24   115   112    1
    25     3     4    2
    26     3     9   am
    27   118   117    1
    28   113   114    2
    29   113   112    1
    30    92    91    2
    31    67    66    1
    32    91    90    1
    33     9    10    1
    34    71    70    1
    35   112   111    1
    36   122   121    2
    37   121   120    1
    38    93    90    1
    39    93    94    1
    40    70    72    1
    41    70    69    1
    42   111   102   am
    43    66    69    1
    44    66    65    1
    45    90    89    1
    46    94    95   ar
    47    94    96   ar
    48    10    11    1
    49    10    13    1
    50    95    97   ar
    51   123   120    1
    52   123   124    1
    53   120   119    1
    54   100   101    1
    55   102   101    1
    56   102   103    2
    57    96    98   ar
    58    11    12    2
    59    13    14    1
    60    97    99   ar
    61   124   125    1
    62   101   104    1
    63   104   105    1
    64    98    99   ar
    65   106   105   ar
    66   106   108   ar
    67    56    55    2
    68    14    15   ar
    69    14    16   ar
    70   105   107   ar
    71    20    21    1
    72   125   126    1
    73    15    17   ar
    74    48    47    2
    75   126   127    1
    76   108   110   ar
    77    16    18   ar
    78    55    54    1
    79    29    30    1
    80   107   109   ar
    81    21    22    1
    82    21    24    1
    83    54    57    1
    84    54    53    1
    85    17    19   ar
    86    22    23    2
    87    60    62   ar
    88    60    58   ar
    89    24    25    1
    90    47    53   am
    91    47    46    1
    92   110   109   ar
    93    57    58    1
    94    18    19   ar
    95    51    49    1
    96    62    63   ar
    97    30    33    1
    98    30    31    1
    99    58    59   ar
   100    34    33    1
   101    25    26    1
   102    46    49    1
   103    46    45    1
   104   136   134   ar
   105   136   137   ar
   106   134   133   ar
   107    49    50    1
   108    28    26   am
   109    31    32    2
   110    63    64    1
   111    63    61   ar
   112    26    27    2
   113    59    61   ar
   114    50    52    1
   115   137   135   ar
   116   133   135   ar
   117   133   132    1
   118   132   129    1
   119   144   143    1
   120    38    37    2
   121   129   128    1
   122   129   130    1
   123   160   159    1
   124   131   130    2
   125    42    44   ar
   126    42    40   ar
   127   138   139    1
   128   152   151    1
   129    37    36    1
   130    44    43   ar
   131   143   145    1
   132   143   142    1
   133   139   142    1
   134   139   140    1
   135   161   159    1
   136   173   172    1
   137    36    39    1
   138    36    35    1
   139   159   158    1
   140    40    39    1
   141    40    41   ar
   142   147   146    1
   143   147   148    1
   144   147   150    1
   145   148   149    2
   146   151   150    1
   147   151   153    1
   148   141   140    2
   149    43    41   ar
   150   172   171   ar
   151   172   170   ar
   152   158   155    1
   153   171   169   ar
   154   170   168   ar
   155   155   154    1
   156   155   156    1
   157   169   167   ar
   158   168   167   ar
   159   156   157    2
   160   167   166    1
   161   166   163    1
   162   162   163    1
   163   163   164    1
   164   164   165    2
