@<TRIPOS>MOLECULE
tmp/3et1B00.pdb
 227 214 0 0 0
SMALL
GASTEIGER

@<TRIPOS>ATOM
      1  N         12.4110   46.4060   -7.2840 N.3    71  GLU71      -0.1245
      2  CA        11.9830   45.2470   -8.0520 C.3    71  GLU71       0.1567
      3  C         12.7320   43.9830   -7.6580 C.2    71  GLU71       0.2260
      4  O         12.1370   42.9290   -7.4490 O.2    71  GLU71      -0.2867
      5  CB        12.1910   45.5020   -9.5490 C.3    71  GLU71       0.0388
      6  CG        11.2410   46.5120  -10.1710 C.3    71  GLU71       0.1160
      7  CD        11.6280   47.9640   -9.9010 C.2    71  GLU71       0.3649
      8  OE1       10.9850   48.8590  -10.4990 O.co2  71  GLU71      -0.2457
      9  OE2       12.5650   48.2130   -9.1030 O.co2  71  GLU71      -0.2457
     10  N         11.8480   42.9710   -3.9400 N.3    74  ILE74      -0.1231
     11  CA        10.5450   42.3180   -3.9320 C.3    74  ILE74       0.1692
     12  C         10.6510   40.9140   -4.5020 C.2    74  ILE74       0.2592
     13  O         10.1400   39.9480   -3.9410 O.2    74  ILE74      -0.2718
     14  CB         9.5560   43.0780   -4.8110 C.3    74  ILE74       0.0266
     15  CG1        9.4020   44.5110   -4.3060 C.3    74  ILE74       0.0019
     16  CG2        8.2250   42.3520   -4.8340 C.3    74  ILE74       0.0020
     17  CD1        8.3650   45.3140   -5.0510 C.3    74  ILE74       0.0001
     18  N         11.3150   40.8240   -5.6410 N.am   75  PHE75      -0.1976
     19  CA        11.5030   39.5680   -6.3280 C.3    75  PHE75       0.1639
     20  C         12.0960   38.5160   -5.4040 C.2    75  PHE75       0.2290
     21  O         11.7010   37.3550   -5.4320 O.2    75  PHE75      -0.2864
     22  CB        12.3980   39.7830   -7.5420 C.3    75  PHE75       0.0560
     23  CG        12.7500   38.5210   -8.2630 C.ar   75  PHE75      -0.0200
     24  CD1       11.9170   38.0150   -9.2460 C.ar   75  PHE75      -0.0042
     25  CD2       13.9260   37.8420   -7.9680 C.ar   75  PHE75      -0.0042
     26  CE1       12.2410   36.8470   -9.9150 C.ar   75  PHE75      -0.0003
     27  CE2       14.2570   36.6800   -8.6320 C.ar   75  PHE75      -0.0003
     28  CZ        13.4100   36.1790   -9.6060 C.ar   75  PHE75      -0.0000
     29  N          9.4540   37.5560   -2.6880 N.3    78  CYS78      -0.1221
     30  CA         8.5260   36.5760   -3.2390 C.3    78  CYS78       0.1808
     31  C          9.0830   35.1580   -3.2100 C.2    78  CYS78       0.2601
     32  O          8.3620   34.2200   -2.8800 O.2    78  CYS78      -0.2717
     33  CB         8.1170   36.9630   -4.6540 C.3    78  CYS78       0.0970
     34  SG         7.0910   38.4370   -4.6700 S.3    78  CYS78      -0.0800
     35  N         10.3590   35.0020   -3.5490 N.am   79  GLN79      -0.1979
     36  CA        11.0150   33.6930   -3.4990 C.3    79  GLN79       0.1601
     37  C         11.0100   33.1330   -2.0840 C.2    79  GLN79       0.2287
     38  O         10.9530   31.9170   -1.8910 O.2    79  GLN79      -0.2864
     39  CB        12.4550   33.7720   -3.9960 C.3    79  GLN79       0.0394
     40  CG        12.6110   34.2560   -5.4130 C.3    79  GLN79       0.0908
     41  CD        14.0610   34.1880   -5.8680 C.2    79  GLN79       0.2608
     42  OE1       14.6600   33.1120   -5.9160 O.2    79  GLN79      -0.2717
     43  NE2       14.6320   35.3390   -6.1960 N.am   79  GLN79      -0.0878
     44  N          8.6280   33.4880    0.3100 N.3    81  THR81      -0.1203
     45  CA         7.3120   32.8930    0.4530 C.3    81  THR81       0.1994
     46  C          7.1440   31.6050   -0.3640 C.2    81  THR81       0.2618
     47  O          6.6710   30.5940    0.1590 O.2    81  THR81      -0.2717
     48  CB         6.2270   33.9020    0.0770 C.3    81  THR81       0.1784
     49  OG1        6.4140   35.0950    0.8480 O.3    81  THR81      -0.2211
     50  CG2        4.8320   33.3240    0.3470 C.3    81  THR81       0.0376
     51  N          7.5380   31.6370   -1.6340 N.am   82  SER82      -0.1951
     52  CA         7.4840   30.4380   -2.4650 C.3    82  SER82       0.1924
     53  C          8.2140   29.2750   -1.8260 C.2    82  SER82       0.2314
     54  O          7.6900   28.1610   -1.8030 O.2    82  SER82      -0.2863
     55  CB         8.0650   30.6940   -3.8520 C.3    82  SER82       0.2116
     56  OG         7.4630   31.8210   -4.4430 O.3    82  SER82      -0.2180
     57  N          6.2040   28.0660    0.9040 N.3    85  THR85      -0.1218
     58  CA         5.0240   27.3290    0.4380 C.3    85  THR85       0.1862
     59  C          5.3820   25.9700   -0.1390 C.2    85  THR85       0.2287
     60  O          4.6590   24.9930    0.0890 O.2    85  THR85      -0.2866
     61  CB         4.1880   28.1040   -0.5910 C.3    85  THR85       0.1770
     62  OG1        4.0220   29.4600   -0.1580 O.3    85  THR85      -0.2211
     63  CG2        2.7890   27.4410   -0.7570 C.3    85  THR85       0.0375
     64  N          3.8620   24.5680   -8.1820 N.3   116  TYR116     -0.1241
     65  CA         3.4640   25.8680   -8.6830 C.3   116  TYR116      0.1605
     66  C          2.0060   25.9800   -9.1450 C.2   116  TYR116      0.2264
     67  O          1.4570   27.0760   -9.1280 O.2   116  TYR116     -0.2867
     68  CB         4.4320   26.3840   -9.7410 C.3   116  TYR116      0.0534
     69  CG         5.5560   27.1330   -9.0960 C.ar  116  TYR116     -0.0201
     70  CD1        6.8300   26.5660   -8.9740 C.ar  116  TYR116     -0.0009
     71  CD2        5.3360   28.3900   -8.5470 C.ar  116  TYR116     -0.0009
     72  CE1        7.8460   27.2520   -8.3530 C.ar  116  TYR116      0.0417
     73  CE2        6.3490   29.0820   -7.9250 C.ar  116  TYR116      0.0417
     74  CZ         7.6010   28.5110   -7.8290 C.ar  116  TYR116      0.1957
     75  OH         8.6010   29.2100   -7.2020 O.3   116  TYR116     -0.2866
     76  N          0.3510   26.2850   -5.7830 N.3   119  ILE119     -0.1231
     77  CA         0.6530   27.6040   -5.2520 C.3   119  ILE119      0.1692
     78  C         -0.2350   28.6470   -5.8910 C.2   119  ILE119      0.2592
     79  O         -0.7880   29.4950   -5.2020 O.2   119  ILE119     -0.2718
     80  CB         2.1480   28.0020   -5.4610 C.3   119  ILE119      0.0266
     81  CG1        3.0440   27.3480   -4.4010 C.3   119  ILE119      0.0019
     82  CG2        2.3180   29.5180   -5.4270 C.3   119  ILE119      0.0020
     83  CD1        4.5650   27.4860   -4.6800 C.3   119  ILE119      0.0001
     84  N         -0.3710   28.5920   -7.2090 N.am  120  PHE120     -0.1976
     85  CA        -1.1910   29.5780   -7.8940 C.3   120  PHE120      0.1639
     86  C         -2.6780   29.4380   -7.5190 C.2   120  PHE120      0.2290
     87  O         -3.4030   30.4240   -7.4850 O.2   120  PHE120     -0.2864
     88  CB        -0.9890   29.5210   -9.4070 C.3   120  PHE120      0.0560
     89  CG         0.4010   29.8650   -9.8380 C.ar  120  PHE120     -0.0200
     90  CD1        1.2040   30.6710   -9.0390 C.ar  120  PHE120     -0.0042
     91  CD2        0.9160   29.3910  -11.0330 C.ar  120  PHE120     -0.0042
     92  CE1        2.4880   30.9860   -9.4090 C.ar  120  PHE120     -0.0003
     93  CE2        2.2200   29.7150  -11.4220 C.ar  120  PHE120     -0.0003
     94  CZ         3.0020   30.5120  -10.6100 C.ar  120  PHE120     -0.0000
     95  N         -2.9840   30.8710   -3.9270 N.3   123  LEU123     -0.1245
     96  CA        -2.6940   32.2970   -3.9960 C.3   123  LEU123      0.1561
     97  C         -3.9860   33.0990   -4.1170 C.2   123  LEU123      0.2260
     98  O         -4.1110   34.1860   -3.5670 O.2   123  LEU123     -0.2867
     99  CB        -1.8220   32.5740   -5.2180 C.3   123  LEU123      0.0270
    100  CG        -0.6810   33.5810   -5.1130 C.3   123  LEU123      0.0019
    101  CD1       -0.0130   33.7140   -6.4730 C.3   123  LEU123      0.0001
    102  CD2       -1.1610   34.9280   -4.6290 C.3   123  LEU123      0.0001
    103  N         -3.2630   41.9260   -2.9240 N.3   132  MET132     -0.1230
    104  CA        -3.1650   40.6540   -2.2000 C.3   132  MET132      0.1702
    105  C         -2.4790   40.8070   -0.8550 C.2   132  MET132      0.2592
    106  O         -1.6310   41.6870   -0.6740 O.2   132  MET132     -0.2718
    107  CB        -2.4080   39.6110   -3.0240 C.3   132  MET132      0.0401
    108  CG        -0.9920   40.0260   -3.3780 C.3   132  MET132      0.0596
    109  SD        -0.0320   38.7440   -4.2170 S.3   132  MET132     -0.1393
    110  CE         0.2640   37.5870   -2.8810 C.3   132  MET132      0.0692
    111  N         -2.8500   39.9370    0.0830 N.am  133  LEU133     -0.1966
    112  CA        -2.2120   39.8740    1.3990 C.3   133  LEU133      0.1728
    113  C         -0.7690   39.3780    1.3030 C.2   133  LEU133      0.2616
    114  O         -0.4500   38.5010    0.5000 O.2   133  LEU133     -0.2715
    115  CB        -2.9920   38.9460    2.3300 C.3   133  LEU133      0.0311
    116  CG        -4.4710   39.2660    2.5570 C.3   133  LEU133      0.0022
    117  CD1       -5.0530   38.2390    3.4950 C.3   133  LEU133      0.0001
    118  CD2       -4.6710   40.6800    3.1190 C.3   133  LEU133      0.0001
    119  N          0.0990   39.9480    2.1280 N.am  134  VAL134     -0.1963
    120  CA         1.4760   39.4870    2.2360 C.3   134  VAL134      0.1727
    121  C          1.8680   39.4380    3.7000 C.2   134  VAL134      0.2616
    122  O          1.1460   39.9390    4.5610 O.2   134  VAL134     -0.2715
    123  CB         2.4480   40.4100    1.4850 C.3   134  VAL134      0.0290
    124  CG1        2.2190   40.3130   -0.0210 C.3   134  VAL134      0.0023
    125  CG2        2.2860   41.8550    1.9780 C.3   134  VAL134      0.0023
    126  N          3.0050   38.8190    3.9870 N.am  135  ALA135     -0.1977
    127  CA         3.5400   38.8210    5.3480 C.3   135  ALA135      0.1597
    128  C          2.4990   38.3040    6.3500 C.2   135  ALA135      0.2287
    129  O          2.2080   38.9390    7.3750 O.2   135  ALA135     -0.2864
    130  CB         4.0140   40.2270    5.7190 C.3   135  ALA135      0.0319
    131  N          2.1130   46.7370   -8.4780 N.3   146  LEU146     -0.1245
    132  CA         2.8230   45.6800   -9.1800 C.3   146  LEU146      0.1561
    133  C          2.8740   45.9880  -10.6640 C.2   146  LEU146      0.2260
    134  O          3.9180   45.8480  -11.2940 O.2   146  LEU146     -0.2867
    135  CB         2.1510   44.3320   -8.9450 C.3   146  LEU146      0.0270
    136  CG         2.0790   43.9440   -7.4740 C.3   146  LEU146      0.0019
    137  CD1        1.3240   42.6360   -7.2930 C.3   146  LEU146      0.0001
    138  CD2        3.4790   43.8430   -6.9130 C.3   146  LEU146      0.0001
    139  N          5.7710   48.3420  -11.6300 N.3   149  LEU149     -0.1245
    140  CA         7.1760   47.9830  -11.5110 C.3   149  LEU149      0.1561
    141  C          7.8680   48.0190  -12.8720 C.2   149  LEU149      0.2260
    142  O          7.2160   48.0610  -13.9200 O.2   149  LEU149     -0.2867
    143  CB         7.3420   46.5980  -10.8880 C.3   149  LEU149      0.0270
    144  CG         7.1230   46.4570   -9.3850 C.3   149  LEU149      0.0019
    145  CD1        7.3410   45.0150   -8.9690 C.3   149  LEU149      0.0001
    146  CD2        8.0490   47.3720   -8.6120 C.3   149  LEU149      0.0001
    147  N          9.6470   42.9180  -14.2810 N.3   153  PHE153     -0.1241
    148  CA         9.0130   42.5220  -13.0360 C.3   153  PHE153      0.1605
    149  C          7.5100   42.7760  -12.9340 C.2   153  PHE153      0.2264
    150  O          6.8190   42.0660  -12.2080 O.2   153  PHE153     -0.2867
    151  CB         9.7620   43.1520  -11.8660 C.3   153  PHE153      0.0534
    152  CG        11.2090   42.8050  -11.8520 C.ar  153  PHE153     -0.0203
    153  CD1       12.1430   43.6400  -12.4550 C.ar  153  PHE153     -0.0042
    154  CD2       11.6390   41.6170  -11.2850 C.ar  153  PHE153     -0.0042
    155  CE1       13.4840   43.3100  -12.4650 C.ar  153  PHE153     -0.0003
    156  CE2       12.9720   41.2780  -11.2890 C.ar  153  PHE153     -0.0003
    157  CZ        13.9040   42.1280  -11.8810 C.ar  153  PHE153     -0.0000
    158  N          4.9010   39.6580  -13.9150 N.3   156  ILE156     -0.1231
    159  CA         4.8780   38.3670  -13.2540 C.3   156  ILE156      0.1692
    160  C          3.5570   38.0930  -12.5490 C.2   156  ILE156      0.2591
    161  O          2.9390   37.0510  -12.7640 O.2   156  ILE156     -0.2718
    162  CB         6.0030   38.2540  -12.2170 C.3   156  ILE156      0.0266
    163  CG1        7.3590   38.4900  -12.8880 C.3   156  ILE156      0.0019
    164  CG2        5.9340   36.8930  -11.5230 C.3   156  ILE156      0.0020
    165  CD1        8.5330   38.5200  -11.9300 C.3   156  ILE156      0.0001
    166  N          3.1420   39.0240  -11.6950 N.am  157  MET157     -0.1979
    167  CA         1.9260   38.8580  -10.9030 C.3   157  MET157      0.1605
    168  C          0.6500   38.8880  -11.7320 C.2   157  MET157      0.2287
    169  O         -0.2090   38.0210  -11.5900 O.2   157  MET157     -0.2864
    170  CB         1.8250   39.9490   -9.8460 C.3   157  MET157      0.0413
    171  CG         2.3170   39.5250   -8.5040 C.3   157  MET157      0.0598
    172  SD         1.7440   37.8760   -8.1260 S.3   157  MET157     -0.1393
    173  CE         2.2900   37.7810   -6.4350 C.3   157  MET157      0.0692
    174  N         -1.5950   36.0360  -12.6140 N.3   160  LYS160     -0.1245
    175  CA        -2.0430   35.2580  -11.4710 C.3   160  LYS160      0.1561
    176  C         -3.2530   35.9450  -10.8510 C.2   160  LYS160      0.2260
    177  O         -4.1680   35.2820  -10.3540 O.2   160  LYS160     -0.2867
    178  CB        -0.9190   35.1120  -10.4260 C.3   160  LYS160      0.0271
    179  CG         0.1980   34.1220  -10.7870 C.3   160  LYS160      0.0035
    180  CD         1.0620   34.6190  -11.9350 C.3   160  LYS160      0.0206
    181  CE         2.3390   33.7850  -12.0970 C.3   160  LYS160      0.1093
    182  NZ         3.2450   34.2890  -13.1870 N.3   160  LYS160     -0.1314
    183  N          4.7870   30.9370  -16.6340 N.3   242  HIS242     -0.1241
    184  CA         5.5160   31.4860  -15.5050 C.3   242  HIS242      0.1621
    185  C          6.9860   31.0370  -15.4660 C.2   242  HIS242      0.2264
    186  O          7.8810   31.8420  -15.2280 O.2   242  HIS242     -0.2867
    187  CB         4.8130   31.1250  -14.1880 C.3   242  HIS242      0.0745
    188  CG         5.5660   31.5550  -12.9650 C.ar  242  HIS242      0.0817
    189  ND1        5.5990   32.8660  -12.5330 N.ar  242  HIS242     -0.2268
    190  CD2        6.3170   30.8560  -12.0830 C.ar  242  HIS242      0.1154
    191  CE1        6.3310   32.9550  -11.4410 C.ar  242  HIS242      0.1986
    192  NE2        6.7800   31.7430  -11.1420 N.ar  242  HIS242     -0.2212
    193  N         10.3700   33.3390  -15.7820 N.3   246  VAL246     -0.1245
    194  CA        11.3500   33.3420  -14.7170 C.3   246  VAL246      0.1561
    195  C         12.7520   33.0280  -15.2550 C.2   246  VAL246      0.2260
    196  O         13.7220   33.7070  -14.9200 O.2   246  VAL246     -0.2867
    197  CB        10.9310   32.3700  -13.5930 C.3   246  VAL246      0.0252
    198  CG1       12.1240   31.9450  -12.7670 C.3   246  VAL246      0.0019
    199  CG2        9.8640   33.0210  -12.7120 C.3   246  VAL246      0.0019
    200  N         17.9680   33.2700   -8.3580 N.3   258  LEU258     -0.1245
    201  CA        17.0870   32.1920   -7.9370 C.3   258  LEU258      0.1561
    202  C         17.5920   31.3770   -6.7450 C.2   258  LEU258      0.2260
    203  O         18.6770   30.8060   -6.7820 O.2   258  LEU258     -0.2867
    204  CB        16.8220   31.2470   -9.1130 C.3   258  LEU258      0.0270
    205  CG        15.6140   31.6060   -9.9840 C.3   258  LEU258      0.0019
    206  CD1       15.2070   30.4020  -10.8190 C.3   258  LEU258      0.0001
    207  CD2       14.4420   32.0850   -9.1250 C.3   258  LEU258      0.0001
    208  N         14.1000   26.6090   -5.5790 N.3   262  LEU262     -0.1245
    209  CA        13.2850   27.0280   -6.7090 C.3   262  LEU262      0.1561
    210  C         13.9290   26.6050   -8.0310 C.2   262  LEU262      0.2260
    211  O         13.2770   25.9980   -8.8990 O.2   262  LEU262     -0.2867
    212  CB        13.0380   28.5410   -6.6360 C.3   262  LEU262      0.0270
    213  CG        12.2570   28.9490   -5.3660 C.3   262  LEU262      0.0019
    214  CD1       11.7040   30.3850   -5.4060 C.3   262  LEU262      0.0001
    215  CD2       11.1180   27.9560   -5.0990 C.3   262  LEU262      0.0001
    216  N         12.4140   24.8320  -11.2700 N.3   266  TYR266     -0.1241
    217  CA        12.3120   25.5060  -12.5590 C.3   266  TYR266      0.1605
    218  C         13.1400   24.8100  -13.6220 C.2   266  TYR266      0.2264
    219  O         12.7230   24.6920  -14.7800 O.2   266  TYR266     -0.2867
    220  CB        12.7720   26.9500  -12.4350 C.3   266  TYR266      0.0534
    221  CG        11.7490   27.8810  -11.8220 C.ar  266  TYR266     -0.0201
    222  CD1       12.0720   28.6810  -10.7340 C.ar  266  TYR266     -0.0009
    223  CD2       10.4550   27.9650  -12.3360 C.ar  266  TYR266     -0.0009
    224  CE1       11.1410   29.5430  -10.1770 C.ar  266  TYR266      0.0417
    225  CE2        9.5150   28.8250  -11.7810 C.ar  266  TYR266      0.0417
    226  CZ         9.8660   29.6070  -10.7070 C.ar  266  TYR266      0.1957
    227  OH         8.9490   30.4570  -10.1520 O.3   266  TYR266     -0.2866
@<TRIPOS>BOND
     1   183   184    1
     2   193   194    1
     3   184   185    1
     4   184   187    1
     5   185   186    2
     6   195   196    2
     7   195   194    1
     8   219   218    2
     9   194   197    1
    10   147   148    1
    11   187   188    1
    12   142   141    2
    13   158   159    1
    14   218   217    1
    15   197   198    1
    16   197   199    1
    17   159   160    1
    18   159   162    1
    19   182   181    1
    20   148   149    1
    21   148   151    1
    22   188   189   ar
    23   188   190   ar
    24   149   150    2
    25   163   162    1
    26   163   165    1
    27   141   140    1
    28   161   160    2
    29   174   175    1
    30   217   220    1
    31   217   216    1
    32   160   166   am
    33   189   191   ar
    34   155   153   ar
    35   155   157   ar
    36   153   152   ar
    37   220   221    1
    38   223   221   ar
    39   223   225   ar
    40   162   164    1
    41   181   180    1
    42   190   192   ar
    43   180   179    1
    44   157   156   ar
    45   151   152    1
    46   152   154   ar
    47   221   222   ar
    48   225   226   ar
    49   168   169    2
    50   168   167    1
    51   166   167    1
    52   139   140    1
    53   140   143    1
    54   175   176    1
    55   175   178    1
    56   191   192   ar
    57    93    91   ar
    58    93    94   ar
    59   134   133    2
    60   156   154   ar
    61    91    89   ar
    62   167   170    1
    63   143   144    1
    64   176   177    2
    65   206   205    1
    66   179   178    1
    67   222   224   ar
    68   226   224   ar
    69   226   227    1
    70   133   132    1
    71    94    92   ar
    72     8     7   ar
    73     6     7    1
    74     6     5    1
    75   205   207    1
    76   205   204    1
    77    26    28   ar
    78    26    24   ar
    79     7     9   ar
    80   170   171    1
    81    89    88    1
    82    89    90   ar
    83    68    69    1
    84    68    65    1
    85    28    27   ar
    86     5     2    1
    87    92    90   ar
    88    88    85    1
    89   144   145    1
    90   144   146    1
    91    24    23   ar
    92   132   135    1
    93   132   131    1
    94    66    67    2
    95    66    65    1
    96   204   201    1
    97    69    70   ar
    98    69    71   ar
    99    70    72   ar
   100   135   136    1
   101   211   210    2
   102    65    64    1
   103    27    25   ar
   104    71    73   ar
   105   171   172    1
   106   200   201    1
   107    72    74   ar
   108    23    25   ar
   109    23    22    1
   110   172   173    1
   111     2     3    1
   112     2     1    1
   113   210   209    1
   114   201   202    1
   115    73    74   ar
   116    85    86    1
   117    85    84    1
   118    74    75    1
   119     3     4    2
   120    22    19    1
   121    86    87    2
   122   136   137    1
   123   136   138    1
   124    84    78   am
   125   203   202    2
   126   209   212    1
   127   209   208    1
   128   212   213    1
   129   101   100    1
   130    19    18    1
   131    19    20    1
   132    43    41   am
   133    42    41    2
   134    78    77    1
   135    78    79    2
   136    41    40    1
   137    76    77    1
   138    18    12   am
   139    80    82    1
   140    80    77    1
   141    80    81    1
   142    21    20    2
   143    40    39    1
   144   214   213    1
   145   213   215    1
   146    99   100    1
   147    99    96    1
   148   100   102    1
   149    17    15    1
   150    16    14    1
   151    14    15    1
   152    14    11    1
   153    83    81    1
   154    34    33    1
   155    33    30    1
   156    12    13    2
   157    12    11    1
   158    56    55    1
   159   109   108    1
   160   109   110    1
   161    97    96    1
   162    97    98    2
   163    96    95    1
   164    39    36    1
   165    10    11    1
   166    55    52    1
   167    35    36    1
   168    35    31   am
   169    36    37    1
   170   108   107    1
   171    30    31    1
   172    30    29    1
   173    31    32    2
   174   107   104    1
   175   103   104    1
   176    52    53    1
   177    52    51    1
   178   104   105    1
   179    37    38    2
   180    53    54    2
   181    51    46   am
   182   105   106    2
   183   105   111   am
   184    63    61    1
   185    61    62    1
   186    61    58    1
   187    46    47    2
   188    46    45    1
   189    59    60    2
   190    59    58    1
   191   124   123    1
   192    48    50    1
   193    48    45    1
   194    48    49    1
   195   111   112    1
   196    44    45    1
   197    58    57    1
   198   114   113    2
   199   113   112    1
   200   113   119   am
   201   112   115    1
   202   123   125    1
   203   123   120    1
   204   119   120    1
   205   120   121    1
   206   115   116    1
   207   116   118    1
   208   116   117    1
   209   121   126   am
   210   121   122    2
   211   126   127    1
   212   127   130    1
   213   127   128    1
   214   128   129    2
