@<TRIPOS>MOLECULE
tmp/3et2B00.pdb
 212 200 0 0 0
SMALL
GASTEIGER

@<TRIPOS>ATOM
      1  N         28.6910   47.3140   95.1200 N.3    71  VAL71      -0.1231
      2  CA        28.1090   47.9720   93.9710 C.3    71  VAL71       0.1692
      3  C         28.6460   47.2490   92.7450 C.2    71  VAL71       0.2592
      4  O         27.9260   46.9860   91.7800 O.2    71  VAL71      -0.2718
      5  CB        28.5080   49.4700   93.9190 C.3    71  VAL71       0.0266
      6  CG1       28.2020   50.0660   92.5450 C.3    71  VAL71       0.0020
      7  CG2       27.8000   50.2640   95.0220 C.3    71  VAL71       0.0020
      8  N         29.9190   46.9060   92.8120 N.am   72  PHE72      -0.1976
      9  CA        30.5270   46.1180   91.7670 C.3    72  PHE72       0.1639
     10  C         29.7610   44.8120   91.5690 C.2    72  PHE72       0.2290
     11  O         29.4870   44.4130   90.4320 O.2    72  PHE72      -0.2864
     12  CB        31.9980   45.8480   92.0700 C.3    72  PHE72       0.0560
     13  CG        32.6440   44.9170   91.0980 C.ar   72  PHE72      -0.0200
     14  CD1       33.2900   45.4030   89.9810 C.ar   72  PHE72      -0.0042
     15  CD2       32.5900   43.5500   91.2930 C.ar   72  PHE72      -0.0042
     16  CE1       33.8840   44.5420   89.0840 C.ar   72  PHE72      -0.0003
     17  CE2       33.1810   42.6860   90.3850 C.ar   72  PHE72      -0.0003
     18  CZ        33.8280   43.1890   89.2830 C.ar   72  PHE72      -0.0000
     19  N         26.5760   45.4850   89.7630 N.3    75  CYS75      -0.1221
     20  CA        26.8330   45.7800   88.3470 C.3    75  CYS75       0.1808
     21  C         27.1580   44.4870   87.5980 C.2    75  CYS75       0.2601
     22  O         26.5720   44.1950   86.5630 O.2    75  CYS75      -0.2717
     23  CB        27.9650   46.8040   88.2030 C.3    75  CYS75       0.0970
     24  SG        27.5330   48.4910   88.7720 S.3    75  CYS75      -0.0800
     25  N         28.0690   43.6990   88.1620 N.am   76  GLN76      -0.1979
     26  CA        28.4440   42.4100   87.6000 C.3    76  GLN76       0.1601
     27  C         27.2360   41.5010   87.4050 C.2    76  GLN76       0.2287
     28  O         27.0890   40.8440   86.3600 O.2    76  GLN76      -0.2864
     29  CB        29.5100   41.7430   88.4820 C.3    76  GLN76       0.0394
     30  CG        29.8870   40.3530   88.0380 C.3    76  GLN76       0.0908
     31  CD        31.0540   39.8070   88.7870 C.2    76  GLN76       0.2608
     32  OE1       32.1180   39.5980   88.2060 O.2    76  GLN76      -0.2717
     33  NE2       30.8770   39.5730   90.1060 N.am   76  GLN76      -0.0878
     34  N         24.0790   42.4670   86.9660 N.3    78  THR78      -0.1203
     35  CA        23.2730   42.9990   85.8830 C.3    78  THR78       0.1994
     36  C         23.8900   42.6980   84.5020 C.2    78  THR78       0.2618
     37  O         23.1850   42.3300   83.5590 O.2    78  THR78      -0.2717
     38  CB        23.0270   44.4910   86.0910 C.3    78  THR78       0.1784
     39  OG1       22.2750   44.6550   87.2940 O.3    78  THR78      -0.2211
     40  CG2       22.2320   45.0660   84.9370 C.3    78  THR78       0.0376
     41  N         25.2080   42.8280   84.4100 N.am   79  THR79      -0.1952
     42  CA        25.9670   42.5190   83.1930 C.3    79  THR79       0.1897
     43  C         25.7250   41.0820   82.7160 C.2    79  THR79       0.2313
     44  O         25.2930   40.8500   81.5780 O.2    79  THR79      -0.2863
     45  CB        27.4690   42.7630   83.4480 C.3    79  THR79       0.1794
     46  OG1       27.7010   44.1730   83.5150 O.3    79  THR79      -0.2208
     47  CG2       28.3320   42.1420   82.3670 C.3    79  THR79       0.0378
     48  N         22.2920   40.7360   81.3600 N.3    82  THR82      -0.1218
     49  CA        22.1720   41.3170   80.0290 C.3    82  THR82       0.1862
     50  C         22.8410   40.4150   78.9790 C.2    82  THR82       0.2287
     51  O         22.3230   40.2380   77.8590 O.2    82  THR82      -0.2866
     52  CB        22.7380   42.7480   79.9670 C.3    82  THR82       0.1770
     53  OG1       22.1280   43.5480   80.9910 O.3    82  THR82      -0.2211
     54  CG2       22.4320   43.3830   78.6280 C.3    82  THR82       0.0375
     55  N         29.8160   42.9790   75.3310 N.3   113  HIS113     -0.1241
     56  CA        30.1320   44.2320   76.0210 C.3   113  HIS113      0.1621
     57  C         29.8880   45.4970   75.1900 C.2   113  HIS113      0.2264
     58  O         29.4450   46.5100   75.7230 O.2   113  HIS113     -0.2867
     59  CB        31.5620   44.2030   76.5810 C.3   113  HIS113      0.0745
     60  CG        31.6490   43.5240   77.9080 C.ar  113  HIS113      0.0817
     61  ND1       32.0210   42.2030   78.0430 N.ar  113  HIS113     -0.2268
     62  CD2       31.3530   43.9640   79.1560 C.ar  113  HIS113      0.1154
     63  CE1       31.9770   41.8700   79.3220 C.ar  113  HIS113      0.1986
     64  NE2       31.5730   42.9190   80.0180 N.ar  113  HIS113     -0.2212
     65  N         26.3180   45.8540   75.3530 N.3   116  ILE116     -0.1231
     66  CA        25.9240   46.2620   76.6990 C.3   116  ILE116      0.1692
     67  C         26.1550   47.7730   76.8800 C.2   116  ILE116      0.2592
     68  O         25.2590   48.4960   77.3090 O.2   116  ILE116     -0.2718
     69  CB        26.6520   45.4430   77.7780 C.3   116  ILE116      0.0266
     70  CG1       26.0960   44.0220   77.8090 C.3   116  ILE116      0.0019
     71  CG2       26.5120   46.1150   79.1440 C.3   116  ILE116      0.0020
     72  CD1       26.9760   43.0430   78.5490 C.3   116  ILE116      0.0001
     73  N         27.3340   48.2600   76.5080 N.am  117  PHE117     -0.1976
     74  CA        27.6010   49.6980   76.6050 C.3   117  PHE117      0.1639
     75  C         26.7030   50.5470   75.7220 C.2   117  PHE117      0.2290
     76  O         26.3480   51.6550   76.0910 O.2   117  PHE117     -0.2864
     77  CB        29.0480   50.0090   76.2520 C.3   117  PHE117      0.0560
     78  CG        30.0380   49.2690   77.0780 C.ar  117  PHE117     -0.0200
     79  CD1       29.6590   48.6930   78.2730 C.ar  117  PHE117     -0.0042
     80  CD2       31.3510   49.1630   76.6740 C.ar  117  PHE117     -0.0042
     81  CE1       30.5690   48.0350   79.0400 C.ar  117  PHE117     -0.0003
     82  CE2       32.2580   48.4870   77.4500 C.ar  117  PHE117     -0.0003
     83  CZ        31.8550   47.9220   78.6310 C.ar  117  PHE117     -0.0000
     84  N         23.3640   50.5610   77.6380 N.3   120  LEU120     -0.1245
     85  CA        23.4860   51.3650   78.8300 C.3   120  LEU120      0.1561
     86  C         23.0380   52.8100   78.5850 C.2   120  LEU120      0.2260
     87  O         22.5110   53.4550   79.4800 O.2   120  LEU120     -0.2867
     88  CB        24.9340   51.3470   79.3010 C.3   120  LEU120      0.0270
     89  CG        25.1850   51.9010   80.6880 C.3   120  LEU120      0.0019
     90  CD1       24.4490   51.0560   81.7190 C.3   120  LEU120      0.0001
     91  CD2       26.6730   51.8970   80.9430 C.3   120  LEU120      0.0001
     92  N         19.3690   53.7720   79.5010 N.3   123  ILE123     -0.1245
     93  CA        18.9470   53.8980   80.8920 C.3   123  ILE123      0.1561
     94  C         19.7310   54.9430   81.6980 C.2   123  ILE123      0.2260
     95  O         19.6410   54.9880   82.9240 O.2   123  ILE123     -0.2867
     96  CB        19.0880   52.5480   81.6110 C.3   123  ILE123      0.0252
     97  CG1       20.5600   52.1500   81.6710 C.3   123  ILE123      0.0019
     98  CG2       18.2580   51.4770   80.8960 C.3   123  ILE123      0.0019
     99  CD1       20.8240   51.0000   82.5960 C.3   123  ILE123      0.0001
    100  N         22.2060   56.4280   86.4080 N.3   129  LEU129     -0.1231
    101  CA        21.5170   55.4120   85.6160 C.3   129  LEU129      0.1693
    102  C         20.4460   54.6520   86.3920 C.2   129  LEU129      0.2592
    103  O         20.5660   54.4510   87.5960 O.2   129  LEU129     -0.2718
    104  CB        22.5280   54.4170   85.0320 C.3   129  LEU129      0.0284
    105  CG        23.0480   53.3170   85.9580 C.3   129  LEU129      0.0019
    106  CD1       23.5040   52.1470   85.1320 C.3   129  LEU129      0.0001
    107  CD2       24.1780   53.8150   86.8320 C.3   129  LEU129      0.0001
    108  N         19.3970   54.2250   85.6970 N.am  130  LEU130     -0.1966
    109  CA        18.3730   53.3900   86.3250 C.3   130  LEU130      0.1728
    110  C         18.9450   52.0300   86.6920 C.2   130  LEU130      0.2616
    111  O         19.7920   51.5020   85.9770 O.2   130  LEU130     -0.2715
    112  CB        17.1870   53.1900   85.3940 C.3   130  LEU130      0.0311
    113  CG        16.4670   54.4540   84.9360 C.3   130  LEU130      0.0022
    114  CD1       15.5290   54.1170   83.7910 C.3   130  LEU130      0.0001
    115  CD2       15.6930   55.0770   86.1190 C.3   130  LEU130      0.0001
    116  N         18.4990   51.4820   87.8220 N.am  131  VAL131     -0.1977
    117  CA        18.8290   50.1120   88.1860 C.3   131  VAL131      0.1596
    118  C         17.5640   49.3990   88.6510 C.2   131  VAL131      0.2287
    119  O         16.5060   50.0200   88.7560 O.2   131  VAL131     -0.2864
    120  CB        19.8590   50.0660   89.3020 C.3   131  VAL131      0.0276
    121  CG1       21.1450   50.8100   88.8860 C.3   131  VAL131      0.0022
    122  CG2       19.2610   50.6410   90.5680 C.3   131  VAL131      0.0022
    123  N         28.6680   56.9630   92.2410 N.3   143  LEU143     -0.1245
    124  CA        29.5680   56.0010   91.6070 C.3   143  LEU143      0.1561
    125  C         31.0100   56.4910   91.6270 C.2   143  LEU143      0.2260
    126  O         31.9330   55.7150   91.8780 O.2   143  LEU143     -0.2867
    127  CB        29.1240   55.7370   90.1590 C.3   143  LEU143      0.0270
    128  CG        27.8600   54.8900   90.1000 C.3   143  LEU143      0.0019
    129  CD1       27.2060   54.9220   88.7240 C.3   143  LEU143      0.0001
    130  CD2       28.2180   53.4740   90.5260 C.3   143  LEU143      0.0001
    131  N         33.1760   55.9820   94.9650 N.3   146  LEU146     -0.1245
    132  CA        33.6070   54.6850   95.4520 C.3   146  LEU146      0.1561
    133  C         35.1180   54.6010   95.5500 C.2   146  LEU146      0.2260
    134  O         35.8640   55.3610   94.9240 O.2   146  LEU146     -0.2867
    135  CB        33.0840   53.5520   94.5600 C.3   146  LEU146      0.0270
    136  CG        31.5730   53.5070   94.2820 C.3   146  LEU146      0.0019
    137  CD1       31.1990   52.3430   93.3770 C.3   146  LEU146      0.0001
    138  CD2       30.7760   53.4540   95.5920 C.3   146  LEU146      0.0001
    139  N         37.1410   50.7970   91.7560 N.3   150  PHE150     -0.1241
    140  CA        35.7710   50.5840   91.3230 C.3   150  PHE150      0.1605
    141  C         35.0860   51.8400   90.8200 C.2   150  PHE150      0.2264
    142  O         34.0220   51.7740   90.2020 O.2   150  PHE150     -0.2867
    143  CB        34.9670   49.9320   92.4340 C.3   150  PHE150      0.0534
    144  CG        35.5920   48.6730   92.9460 C.ar  150  PHE150     -0.0203
    145  CD1       35.4120   47.4760   92.2740 C.ar  150  PHE150     -0.0042
    146  CD2       36.3940   48.6940   94.0770 C.ar  150  PHE150     -0.0042
    147  CE1       35.9930   46.3180   92.7270 C.ar  150  PHE150     -0.0003
    148  CE2       36.9770   47.5410   94.5370 C.ar  150  PHE150     -0.0003
    149  CZ        36.7750   46.3420   93.8590 C.ar  150  PHE150     -0.0000
    150  N         35.4510   52.5130   86.5880 N.3   153  ILE153     -0.1231
    151  CA        34.9030   51.6210   85.5670 C.3   153  ILE153      0.1692
    152  C         33.7950   52.2430   84.7240 C.2   153  ILE153      0.2591
    153  O         33.8520   52.2070   83.4930 O.2   153  ILE153     -0.2718
    154  CB        34.3490   50.3250   86.1810 C.3   153  ILE153      0.0266
    155  CG1       35.3260   49.7910   87.2290 C.3   153  ILE153      0.0019
    156  CG2       34.0290   49.2920   85.0670 C.3   153  ILE153      0.0020
    157  CD1       34.9650   48.4280   87.7710 C.3   153  ILE153      0.0001
    158  N         32.7790   52.8030   85.3770 N.am  154  ILE154     -0.1980
    159  CA        31.5950   53.2300   84.6480 C.3   154  ILE154      0.1595
    160  C         31.7360   54.6110   84.0270 C.2   154  ILE154      0.2287
    161  O         30.9240   55.0020   83.1940 O.2   154  ILE154     -0.2864
    162  CB        30.3370   53.2100   85.5210 C.3   154  ILE154      0.0276
    163  CG1       29.1010   53.0000   84.6430 C.3   154  ILE154      0.0022
    164  CG2       30.2290   54.5120   86.3400 C.3   154  ILE154      0.0022
    165  CD1       27.8100   52.9650   85.3980 C.3   154  ILE154      0.0001
    166  N         31.8090   55.0850   80.3210 N.3   157  LYS157     -0.1245
    167  CA        30.5370   54.6720   79.7300 C.3   157  LYS157      0.1561
    168  C         29.5100   55.8100   79.7290 C.2   157  LYS157      0.2260
    169  O         28.7770   55.9880   78.7500 O.2   157  LYS157     -0.2867
    170  CB        29.9770   53.4380   80.4300 C.3   157  LYS157      0.0271
    171  CG        30.6930   52.1430   80.0840 C.3   157  LYS157      0.0035
    172  CD        32.1500   52.1060   80.5780 C.3   157  LYS157      0.0206
    173  CE        32.5720   50.6500   80.8640 C.3   157  LYS157      0.1093
    174  NZ        34.0470   50.4680   81.1100 N.3   157  LYS157     -0.1314
    175  N         37.8850   48.4910   79.0440 N.3   239  HIS239     -0.1241
    176  CA        37.1360   47.8180   80.1040 C.3   239  HIS239      0.1621
    177  C         37.8120   46.4990   80.5240 C.2   239  HIS239      0.2264
    178  O         38.0300   46.2350   81.7210 O.2   239  HIS239     -0.2867
    179  CB        35.6890   47.5720   79.6440 C.3   239  HIS239      0.0745
    180  CG        34.8050   46.9900   80.7050 C.ar  239  HIS239      0.0817
    181  ND1       34.2700   47.7500   81.7220 N.ar  239  HIS239     -0.2268
    182  CD2       34.3680   45.7240   80.9110 C.ar  239  HIS239      0.1154
    183  CE1       33.5380   46.9780   82.5070 C.ar  239  HIS239      0.1986
    184  NE2       33.5800   45.7450   82.0360 N.ar  239  HIS239     -0.2212
    185  N         39.5350   45.3450   84.0670 N.3   243  MET243     -0.1245
    186  CA        38.9940   44.2260   84.8220 C.3   243  MET243      0.1570
    187  C         40.0840   43.2160   85.0690 C.2   243  MET243      0.2261
    188  O         39.9780   42.3730   85.9610 O.2   243  MET243     -0.2867
    189  CB        37.7910   43.5900   84.1140 C.3   243  MET243      0.0387
    190  CG        36.5500   44.4900   84.0270 C.3   243  MET243      0.0595
    191  SD        35.9070   45.0380   85.6400 S.3   243  MET243     -0.1393
    192  CE        35.9120   43.4530   86.4720 C.3   243  MET243      0.0692
    193  N         32.2440   36.1450   82.8720 N.3   259  LEU259     -0.1245
    194  CA        32.9470   37.3490   82.4290 C.3   259  LEU259      0.1561
    195  C         34.4410   37.0770   82.3510 C.2   259  LEU259      0.2260
    196  O         35.1440   37.7300   81.5970 O.2   259  LEU259     -0.2867
    197  CB        32.6410   38.5710   83.3120 C.3   259  LEU259      0.0270
    198  CG        31.1490   38.8340   83.5340 C.3   259  LEU259      0.0019
    199  CD1       30.9450   39.9440   84.5370 C.3   259  LEU259      0.0001
    200  CD2       30.4800   39.1890   82.2230 C.3   259  LEU259      0.0001
    201  N         36.9200   37.6390   78.9810 N.3   263  TYR263     -0.1241
    202  CA        38.1390   38.4630   78.9760 C.3   263  TYR263      0.1605
    203  C         39.3730   37.6540   78.6050 C.2   263  TYR263      0.2264
    204  O         40.3470   38.2040   78.1110 O.2   263  TYR263     -0.2867
    205  CB        38.3560   39.1770   80.3170 C.3   263  TYR263      0.0534
    206  CG        37.2250   40.1050   80.6900 C.ar  263  TYR263     -0.0201
    207  CD1       36.6610   40.9490   79.7360 C.ar  263  TYR263     -0.0009
    208  CD2       36.7210   40.1460   81.9980 C.ar  263  TYR263     -0.0009
    209  CE1       35.6220   41.8000   80.0560 C.ar  263  TYR263      0.0417
    210  CE2       35.6810   40.9930   82.3320 C.ar  263  TYR263      0.0417
    211  CZ        35.1340   41.8220   81.3530 C.ar  263  TYR263      0.1957
    212  OH        34.0950   42.6750   81.6520 O.3   263  TYR263     -0.2866
@<TRIPOS>BOND
     1    57    58    2
     2    57    56    1
     3    55    56    1
     4    65    66    1
     5    75    76    2
     6    75    74    1
     7    56    59    1
     8    77    74    1
     9    77    78    1
    10    73    74    1
    11    73    67   am
    12    59    60    1
    13    80    78   ar
    14    80    82   ar
    15    66    67    1
    16    66    69    1
    17    67    68    2
    18    78    79   ar
    19    82    83   ar
    20    84    85    1
    21    69    70    1
    22    69    71    1
    23    70    72    1
    24    51    50    2
    25    60    61   ar
    26    60    62   ar
    27    61    63   ar
    28   204   203    2
    29    79    81   ar
    30    86    85    1
    31    86    87    2
    32   203   202    1
    33    54    52    1
    34    83    81   ar
    35   169   168    2
    36    85    88    1
    37   202   201    1
    38   202   205    1
    39    50    49    1
    40   175   176    1
    41    62    64   ar
    42    88    89    1
    43    63    64   ar
    44    92    93    1
    45   179   176    1
    46   179   180    1
    47   168   167    1
    48   167   166    1
    49   167   170    1
    50   207   209   ar
    51   207   206   ar
    52    52    49    1
    53    52    53    1
    54    49    48    1
    55   209   211   ar
    56   171   170    1
    57   171   172    1
    58   176   177    1
    59   205   206    1
    60   177   178    2
    61   172   173    1
    62    89    91    1
    63    89    90    1
    64   206   208   ar
    65   180   182   ar
    66   180   181   ar
    67   173   174    1
    68    93    96    1
    69    93    94    1
    70    98    96    1
    71   182   184   ar
    72   211   212    1
    73   211   210   ar
    74    44    43    2
    75   196   195    2
    76    96    97    1
    77    97    99    1
    78    94    95    2
    79   181   183   ar
    80   208   210   ar
    81   184   183   ar
    82   200   198    1
    83   195   194    1
    84    47    45    1
    85   194   193    1
    86   194   197    1
    87    43    42    1
    88    42    45    1
    89    42    41    1
    90   161   160    2
    91   197   198    1
    92    45    46    1
    93   153   152    2
    94   198   199    1
    95    37    36    2
    96   114   113    1
    97   160   159    1
    98   190   189    1
    99   190   191    1
   100   185   186    1
   101   189   186    1
   102    41    36   am
   103    36    35    1
   104   163   165    1
   105   163   162    1
   106   159   158    1
   107   159   162    1
   108   152   158   am
   109   152   151    1
   110   186   187    1
   111   113   112    1
   112   113   115    1
   113    40    38    1
   114   104   101    1
   115   104   105    1
   116   156   154    1
   117   187   188    2
   118   106   105    1
   119   112   109    1
   120   162   164    1
   121   151   154    1
   122   151   150    1
   123   101   102    1
   124   101   100    1
   125   191   192    1
   126   108   109    1
   127   108   102   am
   128    35    38    1
   129    35    34    1
   130   105   107    1
   131   111   110    2
   132    38    39    1
   133   154   155    1
   134   109   110    1
   135    28    27    2
   136   102   103    2
   137    22    21    2
   138   110   116   am
   139   155   157    1
   140    27    26    1
   141    21    25   am
   142    21    20    1
   143    26    25    1
   144    26    29    1
   145   116   117    1
   146    30    29    1
   147    30    31    1
   148   117   118    1
   149   117   120    1
   150    23    20    1
   151    23    24    1
   152    32    31    2
   153    20    19    1
   154   118   119    2
   155   129   128    1
   156    31    33   am
   157   121   120    1
   158    16    18   ar
   159    16    14   ar
   160    18    17   ar
   161   120   122    1
   162    14    13   ar
   163   128   127    1
   164   128   130    1
   165   127   124    1
   166   142   141    2
   167    17    15   ar
   168    11    10    2
   169   141   140    1
   170    13    15   ar
   171    13    12    1
   172   140   139    1
   173   140   143    1
   174    10     9    1
   175   124   125    1
   176   124   123    1
   177   125   126    2
   178     9    12    1
   179     9     8    1
   180     4     3    2
   181   145   147   ar
   182   145   144   ar
   183   143   144    1
   184     6     5    1
   185   147   149   ar
   186     3     8   am
   187     3     2    1
   188   144   146   ar
   189   137   136    1
   190   149   148   ar
   191     5     2    1
   192     5     7    1
   193     2     1    1
   194   146   148   ar
   195   136   135    1
   196   136   138    1
   197   135   132    1
   198   134   133    2
   199   131   132    1
   200   132   133    1
