@<TRIPOS>MOLECULE
tmp/3et3A00.pdb
 236 224 0 0 0
SMALL
GASTEIGER

@<TRIPOS>ATOM
      1  N         25.5770   12.1650   68.3280 N.3    61  ALA61      -0.1245
      2  CA        25.9720   12.8390   69.5660 C.3    61  ALA61       0.1562
      3  C         27.4170   13.3130   69.5030 C.2    61  ALA61       0.2260
      4  O         27.7390   14.4250   69.9250 O.2    61  ALA61      -0.2867
      5  CB        25.7700   11.9220   70.7610 C.3    61  ALA61       0.0290
      6  N         28.0950   16.2050   66.9790 N.3    64  ILE64      -0.1231
      7  CA        27.6810   17.4810   67.5510 C.3    64  ILE64       0.1692
      8  C         28.7110   17.9710   68.5720 C.2    64  ILE64       0.2592
      9  O         29.0800   19.1440   68.5820 O.2    64  ILE64      -0.2718
     10  CB        26.2860   17.3760   68.1790 C.3    64  ILE64       0.0266
     11  CG1       25.2460   17.1950   67.0660 C.3    64  ILE64       0.0019
     12  CG2       25.9810   18.6050   69.0240 C.3    64  ILE64       0.0020
     13  CD1       23.9330   16.6470   67.5530 C.3    64  ILE64       0.0001
     14  N         29.1850   17.0570   69.4110 N.am   65  PHE65      -0.1976
     15  CA        30.2220   17.3760   70.3930 C.3    65  PHE65       0.1639
     16  C         31.4600   17.9620   69.7090 C.2    65  PHE65       0.2290
     17  O         32.0360   18.9340   70.1870 O.2    65  PHE65      -0.2864
     18  CB        30.5880   16.1280   71.2020 C.3    65  PHE65       0.0560
     19  CG        31.6400   16.3650   72.2530 C.ar   65  PHE65      -0.0200
     20  CD1       31.2800   16.6860   73.5520 C.ar   65  PHE65      -0.0042
     21  CD2       32.9870   16.2610   71.9400 C.ar   65  PHE65      -0.0042
     22  CE1       32.2420   16.9040   74.5210 C.ar   65  PHE65      -0.0003
     23  CE2       33.9570   16.4740   72.9030 C.ar   65  PHE65      -0.0003
     24  CZ        33.5850   16.7980   74.1960 C.ar   65  PHE65      -0.0000
     25  N         31.6140   19.3880   66.6270 N.3    67  GLY67      -0.1210
     26  CA        31.2560   20.6870   66.0790 C.3    67  GLY67       0.1956
     27  C         31.3590   21.7990   67.1110 C.2    67  GLY67       0.2612
     28  O         31.9120   22.8680   66.8380 O.2    67  GLY67      -0.2717
     29  N         30.8260   21.5440   68.3040 N.am   68  CYS68      -0.1956
     30  CA        30.8850   22.4950   69.4090 C.3    68  CYS68       0.1843
     31  C         32.3240   22.7970   69.8160 C.2    68  CYS68       0.2625
     32  O         32.6790   23.9410   70.0850 O.2    68  CYS68      -0.2714
     33  CB        30.1030   21.9470   70.6010 C.3    68  CYS68       0.0997
     34  SG        28.3520   21.8320   70.2610 S.3    68  CYS68      -0.0797
     35  N         33.1520   21.7620   69.8390 N.am   69  GLN69      -0.1977
     36  CA        34.5480   21.8990   70.2300 C.3    69  GLN69       0.1601
     37  C         35.3340   22.7130   69.1990 C.2    69  GLN69       0.2287
     38  O         36.1730   23.5420   69.5560 O.2    69  GLN69      -0.2864
     39  CB        35.1530   20.5110   70.4330 C.3    69  GLN69       0.0394
     40  CG        36.6570   20.4580   70.5060 C.3    69  GLN69       0.0908
     41  CD        37.1490   19.0710   70.8610 C.2    69  GLN69       0.2608
     42  OE1       36.9440   18.5950   71.9770 O.2    69  GLN69      -0.2717
     43  NE2       37.7960   18.4110   69.9100 N.am   69  GLN69      -0.0878
     44  N         34.0150   25.0130   67.3740 N.3    71  ARG71      -0.1231
     45  CA        33.5580   26.3820   67.5790 C.3    71  ARG71       0.1694
     46  C         34.2010   27.0110   68.8280 C.2    71  ARG71       0.2592
     47  O         34.6590   28.1550   68.7900 O.2    71  ARG71      -0.2718
     48  CB        32.0280   26.4250   67.6670 C.3    71  ARG71       0.0321
     49  CG        31.4550   27.7970   67.9990 C.3    71  ARG71       0.0489
     50  CD        32.0290   28.8950   67.1050 C.3    71  ARG71       0.2205
     51  NE        31.7870   30.2150   67.6850 N.pl3  71  ARG71      -0.0865
     52  CZ        32.5270   31.2930   67.4440 C.cat  71  ARG71       0.5346
     53  NH1       33.5700   31.2200   66.6300 N.pl3  71  ARG71       0.1354
     54  NH2       32.2270   32.4480   68.0260 N.pl3  71  ARG71       0.1354
     55  N         34.2380   26.2650   69.9310 N.am   72  SER72      -0.1952
     56  CA        34.8730   26.7570   71.1500 C.3    72  SER72       0.1924
     57  C         36.3000   27.2090   70.8700 C.2    72  SER72       0.2314
     58  O         36.7250   28.2690   71.3140 O.2    72  SER72      -0.2863
     59  CB        34.8980   25.6710   72.2310 C.3    72  SER72       0.2116
     60  OG        33.5850   25.3210   72.6250 O.3    72  SER72      -0.2180
     61  N         35.7170   30.4340   78.9780 N.3   106  HIS106     -0.1241
     62  CA        34.4410   29.7270   78.9410 C.3   106  HIS106      0.1621
     63  C         33.2510   30.5270   79.4610 C.2   106  HIS106      0.2264
     64  O         32.1280   30.3690   78.9740 O.2   106  HIS106     -0.2867
     65  CB        34.5540   28.3690   79.6150 C.3   106  HIS106      0.0745
     66  CG        35.1960   27.3450   78.7370 C.ar  106  HIS106      0.0817
     67  ND1       36.5360   27.0330   78.8130 N.ar  106  HIS106     -0.2268
     68  CD2       34.6920   26.6020   77.7250 C.ar  106  HIS106      0.1154
     69  CE1       36.8230   26.1200   77.9030 C.ar  106  HIS106      0.1986
     70  NE2       35.7230   25.8420   77.2300 N.ar  106  HIS106     -0.2212
     71  N         32.3480   32.5870   76.6000 N.3   109  ILE109     -0.1231
     72  CA        31.6720   31.7500   75.6060 C.3   109  ILE109      0.1692
     73  C         30.1820   31.6050   75.9100 C.2   109  ILE109      0.2592
     74  O         29.3480   31.8310   75.0440 O.2   109  ILE109     -0.2718
     75  CB        32.3450   30.3720   75.4700 C.3   109  ILE109      0.0266
     76  CG1       33.6570   30.5110   74.6800 C.3   109  ILE109      0.0019
     77  CG2       31.4230   29.3780   74.7460 C.3   109  ILE109      0.0020
     78  CD1       34.4780   29.2340   74.5980 C.3   109  ILE109      0.0001
     79  N         29.8420   31.2910   77.1570 N.am  110  TYR110     -0.1976
     80  CA        28.4410   31.1280   77.5480 C.3   110  TYR110      0.1639
     81  C         27.6670   32.4380   77.4600 C.2   110  TYR110      0.2290
     82  O         26.4750   32.4520   77.1330 O.2   110  TYR110     -0.2864
     83  CB        28.3300   30.5670   78.9770 C.3   110  TYR110      0.0560
     84  CG        29.1340   29.3140   79.2190 C.ar  110  TYR110     -0.0198
     85  CD1       29.7520   29.0970   80.4460 C.ar  110  TYR110     -0.0009
     86  CD2       29.2820   28.3530   78.2300 C.ar  110  TYR110     -0.0009
     87  CE1       30.4900   27.9610   80.6820 C.ar  110  TYR110      0.0417
     88  CE2       30.0290   27.2130   78.4490 C.ar  110  TYR110      0.0417
     89  CZ        30.6300   27.0250   79.6870 C.ar  110  TYR110      0.1957
     90  OH        31.3750   25.9020   79.9410 O.3   110  TYR110     -0.2866
     91  N         27.1050   32.9270   73.7800 N.3   113  LEU113     -0.1245
     92  CA        26.1890   31.8940   73.3380 C.3   113  LEU113      0.1561
     93  C         24.7380   32.3280   73.5540 C.2   113  LEU113      0.2260
     94  O         23.8720   32.0400   72.7340 O.2   113  LEU113     -0.2867
     95  CB        26.4940   30.5930   74.0940 C.3   113  LEU113      0.0270
     96  CG        25.8070   29.2820   73.7340 C.3   113  LEU113      0.0019
     97  CD1       26.0940   28.8610   72.2820 C.3   113  LEU113      0.0001
     98  CD2       26.2490   28.1960   74.7330 C.3   113  LEU113      0.0001
     99  N         23.1420   34.0710   70.8500 N.3   116  LEU116     -0.1245
    100  CA        22.8020   33.1860   69.7360 C.3   116  LEU116      0.1561
    101  C         21.6110   32.2930   70.0370 C.2   116  LEU116      0.2260
    102  O         21.2000   31.5010   69.1930 O.2   116  LEU116     -0.2867
    103  CB        23.9790   32.2810   69.3670 C.3   116  LEU116      0.0270
    104  CG        25.3240   32.9620   69.1470 C.3   116  LEU116      0.0019
    105  CD1       26.3180   31.9970   68.5220 C.3   116  LEU116      0.0001
    106  CD2       25.1270   34.1840   68.2770 C.3   116  LEU116      0.0001
    107  N         19.5640   27.2380   68.9730 N.3   122  VAL122     -0.1231
    108  CA        20.7590   28.0710   68.8870 C.3   122  VAL122      0.1692
    109  C         21.3610   28.1540   67.4830 C.2   122  VAL122      0.2592
    110  O         21.4060   27.1630   66.7450 O.2   122  VAL122     -0.2718
    111  CB        21.8190   27.5650   69.8730 C.3   122  VAL122      0.0266
    112  CG1       22.1890   26.1250   69.5490 C.3   122  VAL122      0.0020
    113  CG2       23.0400   28.4820   69.8740 C.3   122  VAL122      0.0020
    114  N         21.8080   29.3540   67.1220 N.am  123  LEU123     -0.1966
    115  CA        22.4630   29.5870   65.8410 C.3   123  LEU123      0.1728
    116  C         23.8470   28.9700   65.8310 C.2   123  LEU123      0.2616
    117  O         24.6140   29.1330   66.7800 O.2   123  LEU123     -0.2715
    118  CB        22.5850   31.0850   65.5640 C.3   123  LEU123      0.0311
    119  CG        21.2910   31.8850   65.4600 C.3   123  LEU123      0.0022
    120  CD1       21.6080   33.3740   65.3790 C.3   123  LEU123      0.0001
    121  CD2       20.4600   31.4230   64.2570 C.3   123  LEU123      0.0001
    122  N         24.1630   28.2490   64.7630 N.am  124  ILE124     -0.1963
    123  CA        25.4820   27.6580   64.6230 C.3   124  ILE124      0.1727
    124  C         26.0470   28.0310   63.2580 C.2   124  ILE124      0.2616
    125  O         25.3120   28.5140   62.3980 O.2   124  ILE124     -0.2715
    126  CB        25.4300   26.1400   64.7460 C.3   124  ILE124      0.0290
    127  CG1       24.6050   25.5580   63.5960 C.3   124  ILE124      0.0022
    128  CG2       24.8630   25.7310   66.1140 C.3   124  ILE124      0.0023
    129  CD1       24.6040   24.0620   63.5490 C.3   124  ILE124      0.0001
    130  N         27.3490   27.8270   63.0720 N.am  125  SER125     -0.1950
    131  CA        28.0040   28.1160   61.7880 C.3   125  SER125      0.1924
    132  C         27.7160   29.5160   61.2490 C.2   125  SER125      0.2314
    133  O         27.1260   29.6670   60.1720 O.2   125  SER125     -0.2863
    134  CB        27.6080   27.0840   60.7290 C.3   125  SER125      0.2116
    135  OG        28.0730   25.7920   61.0680 O.3   125  SER125     -0.2180
    136  N         19.0740   18.7300   70.8570 N.3   136  LEU136     -0.1245
    137  CA        20.2500   18.6490   71.7070 C.3   136  LEU136      0.1561
    138  C         19.9420   17.8600   72.9720 C.2   136  LEU136      0.2260
    139  O         20.7370   17.0300   73.4090 O.2   136  LEU136     -0.2867
    140  CB        20.7600   20.0520   72.0350 C.3   136  LEU136      0.0270
    141  CG        21.4470   20.7210   70.8350 C.3   136  LEU136      0.0019
    142  CD1       21.4720   22.2400   70.9710 C.3   136  LEU136      0.0001
    143  CD2       22.8510   20.1630   70.6720 C.3   136  LEU136      0.0001
    144  N         20.0440   13.9700   72.8440 N.3   139  LEU139     -0.1245
    145  CA        21.3070   13.2630   72.6510 C.3   139  LEU139      0.1561
    146  C         21.5410   12.2550   73.7800 C.2   139  LEU139      0.2260
    147  O         21.2000   12.5150   74.9290 O.2   139  LEU139     -0.2867
    148  CB        22.4670   14.2510   72.5250 C.3   139  LEU139      0.0270
    149  CG        22.4380   15.0400   71.2120 C.3   139  LEU139      0.0019
    150  CD1       23.6190   15.9940   71.1100 C.3   139  LEU139      0.0001
    151  CD2       22.4140   14.0830   70.0230 C.3   139  LEU139      0.0001
    152  N         25.6660   13.3730   76.4680 N.3   143  PHE143     -0.1241
    153  CA        25.7120   14.4960   75.5410 C.3   143  PHE143      0.1605
    154  C         24.4900   15.4120   75.5870 C.2   143  PHE143      0.2264
    155  O         24.6020   16.6110   75.3370 O.2   143  PHE143     -0.2867
    156  CB        25.9790   13.9830   74.1320 C.3   143  PHE143      0.0534
    157  CG        27.2540   13.2100   74.0190 C.ar  143  PHE143     -0.0203
    158  CD1       27.2920   11.8720   74.3510 C.ar  143  PHE143     -0.0042
    159  CD2       28.4210   13.8300   73.6060 C.ar  143  PHE143     -0.0042
    160  CE1       28.4680   11.1570   74.2630 C.ar  143  PHE143     -0.0003
    161  CE2       29.6000   13.1250   73.5160 C.ar  143  PHE143     -0.0003
    162  CZ        29.6260   11.7830   73.8440 C.ar  143  PHE143     -0.0000
    163  N         24.6960   18.6010   78.1080 N.3   146  PHE146     -0.1227
    164  CA        25.6890   19.6550   77.9160 C.3   146  PHE146      0.1736
    165  C         25.0950   21.0290   77.6630 C.2   146  PHE146      0.2595
    166  O         25.4540   21.9850   78.3350 O.2   146  PHE146     -0.2718
    167  CB        26.6560   19.2960   76.7840 C.3   146  PHE146      0.0547
    168  CG        27.8200   18.4660   77.2290 C.ar  146  PHE146     -0.0202
    169  CD1       27.8520   17.1040   76.9910 C.ar  146  PHE146     -0.0042
    170  CD2       28.8870   19.0520   77.8990 C.ar  146  PHE146     -0.0042
    171  CE1       28.9270   16.3370   77.4080 C.ar  146  PHE146     -0.0003
    172  CE2       29.9670   18.2920   78.3170 C.ar  146  PHE146     -0.0003
    173  CZ        29.9860   16.9330   78.0750 C.ar  146  PHE146     -0.0000
    174  N         24.1940   21.1350   76.6900 N.am  147  MET147     -0.1979
    175  CA        23.7030   22.4500   76.2970 C.3   147  MET147      0.1605
    176  C         22.5770   23.0070   77.1480 C.2   147  MET147      0.2287
    177  O         22.4410   24.2240   77.2890 O.2   147  MET147     -0.2864
    178  CB        23.2470   22.4430   74.8350 C.3   147  MET147      0.0413
    179  CG        23.2130   23.8220   74.2480 C.3   147  MET147      0.0598
    180  SD        24.8750   24.3420   73.8250 S.3   147  MET147     -0.1393
    181  CE        25.0660   23.3940   72.3090 C.3   147  MET147      0.0692
    182  N         22.9480   25.8470   79.5680 N.3   150  LYS150     -0.1245
    183  CA        23.2690   27.0970   78.8690 C.3   150  LYS150      0.1561
    184  C         21.9980   27.7770   78.3310 C.2   150  LYS150      0.2260
    185  O         21.8470   28.9950   78.4140 O.2   150  LYS150     -0.2867
    186  CB        24.2540   26.8530   77.7220 C.3   150  LYS150      0.0271
    187  CG        25.1700   25.6530   77.8710 C.3   150  LYS150      0.0035
    188  CD        26.4280   25.9640   78.6350 C.3   150  LYS150      0.0206
    189  CE        27.4660   24.8490   78.4680 C.3   150  LYS150      0.1093
    190  NZ        27.3350   23.7300   79.4540 N.3   150  LYS150     -0.1314
    191  N         29.8510   22.0500   83.7230 N.3   232  HIS232     -0.1241
    192  CA        30.3680   21.6160   82.4380 C.3   232  HIS232      0.1621
    193  C         31.5980   20.7270   82.6470 C.2   232  HIS232      0.2264
    194  O         31.6980   19.6330   82.0840 O.2   232  HIS232     -0.2867
    195  CB        30.7130   22.8280   81.5640 C.3   232  HIS232      0.0745
    196  CG        31.1300   22.4650   80.1750 C.ar  232  HIS232      0.0817
    197  ND1       30.2290   22.3140   79.1440 N.ar  232  HIS232     -0.2268
    198  CD2       32.3530   22.2250   79.6480 C.ar  232  HIS232      0.1154
    199  CE1       30.8790   21.9990   78.0380 C.ar  232  HIS232      0.1986
    200  NE2       32.1690   21.9330   78.3180 N.ar  232  HIS232     -0.2212
    201  N         32.4360   16.9720   81.3740 N.3   236  LEU236     -0.1245
    202  CA        33.6320   16.6270   80.6110 C.3   236  LEU236      0.1561
    203  C         34.3730   15.4650   81.2690 C.2   236  LEU236      0.2260
    204  O         35.0100   14.6530   80.5940 O.2   236  LEU236     -0.2867
    205  CB        34.5590   17.8340   80.5090 C.3   236  LEU236      0.0270
    206  CG        34.6670   18.5320   79.1520 C.3   236  LEU236      0.0019
    207  CD1       33.4460   18.2950   78.2680 C.3   236  LEU236      0.0001
    208  CD2       34.9290   20.0120   79.3500 C.3   236  LEU236      0.0001
    209  N         39.8840   15.8720   73.4370 N.3   248  LEU248     -0.1245
    210  CA        39.7320   17.3130   73.2820 C.3   248  LEU248      0.1561
    211  C         40.8550   17.9240   72.4560 C.2   248  LEU248      0.2260
    212  O         41.9720   17.4150   72.4260 O.2   248  LEU248     -0.2867
    213  CB        39.6740   18.0000   74.6510 C.3   248  LEU248      0.0270
    214  CG        38.3170   18.4360   75.2070 C.3   248  LEU248      0.0019
    215  CD1       37.2990   17.3090   75.1580 C.3   248  LEU248      0.0001
    216  CD2       38.4890   18.9540   76.6310 C.3   248  LEU248      0.0001
    217  N         41.8780   23.3690   74.2040 N.3   252  LEU252     -0.1245
    218  CA        40.9080   23.0890   75.2460 C.3   252  LEU252      0.1561
    219  C         41.5770   22.3130   76.3620 C.2   252  LEU252      0.2260
    220  O         41.3470   22.5830   77.5360 O.2   252  LEU252     -0.2867
    221  CB        39.7160   22.3190   74.6880 C.3   252  LEU252      0.0270
    222  CG        38.8510   23.1140   73.7040 C.3   252  LEU252      0.0019
    223  CD1       37.6040   22.3330   73.3520 C.3   252  LEU252      0.0001
    224  CD2       38.4750   24.4840   74.2720 C.3   252  LEU252      0.0001
    225  N         41.6400   23.4430   80.3090 N.3   256  TYR256     -0.1241
    226  CA        41.0360   22.6570   81.3960 C.3   256  TYR256      0.1605
    227  C         42.0440   22.0260   82.3680 C.2   256  TYR256      0.2264
    228  O         41.6900   21.6820   83.4970 O.2   256  TYR256     -0.2867
    229  CB        40.1030   21.5680   80.8450 C.3   256  TYR256      0.0534
    230  CG        38.8020   22.0910   80.2740 C.ar  256  TYR256     -0.0201
    231  CD1       37.9030   22.7890   81.0730 C.ar  256  TYR256     -0.0009
    232  CD2       38.4690   21.8810   78.9380 C.ar  256  TYR256     -0.0009
    233  CE1       36.7050   23.2710   80.5560 C.ar  256  TYR256      0.0417
    234  CE2       37.2690   22.3610   78.4080 C.ar  256  TYR256      0.0417
    235  CZ        36.3940   23.0540   79.2250 C.ar  256  TYR256      0.1957
    236  OH        35.2080   23.5360   78.7140 O.3   256  TYR256     -0.2866
@<TRIPOS>BOND
     1   133   132    2
     2   134   135    1
     3   134   131    1
     4   132   131    1
     5   131   130    1
     6   125   124    2
     7   130   124   am
     8   124   123    1
     9   129   127    1
    10   127   126    1
    11   121   119    1
    12   123   126    1
    13   123   122    1
    14   126   128    1
    15   122   116   am
    16   120   119    1
    17   119   118    1
    18   118   115    1
    19   116   115    1
    20   116   117    2
    21   115   114    1
    22    26    25    1
    23    26    27    1
    24    53    52    1
    25   110   109    2
    26    28    27    2
    27     6     7    1
    28    11    13    1
    29    11    10    1
    30    50    51    1
    31    50    49    1
    32    27    29   am
    33   114   109   am
    34    44    45    1
    35    52    51    2
    36    52    54    1
    37   109   108    1
    38     7    10    1
    39     7     8    1
    40    45    48    1
    41    45    46    1
    42    48    49    1
    43    10    12    1
    44   106   104    1
    45    29    30    1
    46     1     2    1
    47   105   104    1
    48     8     9    2
    49     8    14   am
    50    47    46    2
    51    46    55   am
    52   108   107    1
    53   108   111    1
    54   104   103    1
    55   102   101    2
    56    37    38    2
    57    37    36    1
    58   103   100    1
    59    30    31    1
    60    30    33    1
    61    14    15    1
    62     3     2    1
    63     3     4    2
    64   112   111    1
    65     2     5    1
    66    16    17    2
    67    16    15    1
    68   100   101    1
    69   100    99    1
    70    31    35   am
    71    31    32    2
    72    35    36    1
    73   111   113    1
    74    43    41   am
    75    55    56    1
    76   151   149    1
    77    36    39    1
    78    34    33    1
    79    15    18    1
    80    39    40    1
    81    40    41    1
    82   143   141    1
    83   141   142    1
    84   141   140    1
    85   136   137    1
    86    41    42    2
    87    57    56    1
    88    57    58    2
    89   150   149    1
    90    56    59    1
    91    18    19    1
    92   149   148    1
    93   137   140    1
    94   137   138    1
    95    21    19   ar
    96    21    23   ar
    97    59    60    1
    98    19    20   ar
    99    97    96    1
   100   181   180    1
   101   212   211    2
   102   211   210    1
   103   148   145    1
   104   145   144    1
   105   145   146    1
   106    94    93    2
   107    23    24   ar
   108   138   139    2
   109   210   209    1
   110   210   213    1
   111    92    93    1
   112    92    91    1
   113    92    95    1
   114   223   222    1
   115   161   159   ar
   116   161   162   ar
   117    20    22   ar
   118   159   157   ar
   119   222   224    1
   120   222   221    1
   121    96    95    1
   122    96    98    1
   123   146   147    2
   124   180   179    1
   125   162   160   ar
   126   157   156    1
   127   157   158   ar
   128   156   153    1
   129    24    22   ar
   130   217   218    1
   131   179   178    1
   132   160   158   ar
   133    78    76    1
   134   213   214    1
   135    76    75    1
   136   221   218    1
   137    77    75    1
   138   178   175    1
   139    74    73    2
   140   215   214    1
   141   214   216    1
   142   218   219    1
   143   155   154    2
   144    75    72    1
   145   153   154    1
   146   153   152    1
   147    72    73    1
   148    72    71    1
   149    73    79   am
   150   175   174    1
   151   175   176    1
   152   219   220    2
   153   174   165   am
   154   167   168    1
   155   167   164    1
   156   169   168   ar
   157   169   171   ar
   158    82    81    2
   159   176   177    2
   160    79    80    1
   161   168   170   ar
   162    70    68   ar
   163    70    69   ar
   164   171   173   ar
   165    81    80    1
   166    80    83    1
   167   165   164    1
   168   165   166    2
   169   186   187    1
   170   186   183    1
   171    68    66   ar
   172   187   188    1
   173   170   172   ar
   174    69    67   ar
   175   164   163    1
   176   199   200   ar
   177   199   197   ar
   178   173   172   ar
   179    86    88   ar
   180    86    84   ar
   181   207   206    1
   182   200   198   ar
   183   184   185    2
   184   184   183    1
   185   234   232   ar
   186   234   235   ar
   187    88    89   ar
   188   189   188    1
   189   189   190    1
   190   236   235    1
   191    66    67   ar
   192    66    65    1
   193   183   182    1
   194   232   230   ar
   195    62    61    1
   196    62    63    1
   197    62    65    1
   198    64    63    2
   199    83    84    1
   200   197   196   ar
   201   206   208    1
   202   206   205    1
   203    84    85   ar
   204   235   233   ar
   205   198   196   ar
   206    89    90    1
   207    89    87   ar
   208   196   195    1
   209   230   229    1
   210   230   231   ar
   211   225   226    1
   212    85    87   ar
   213   205   202    1
   214   233   231   ar
   215   204   203    2
   216   202   203    1
   217   202   201    1
   218   229   226    1
   219   226   227    1
   220   195   192    1
   221   194   193    2
   222   227   228    2
   223   192   193    1
   224   192   191    1
