@<TRIPOS>MOLECULE
tmp/3et4A00.pdb
 118 113 0 0 0
SMALL
GASTEIGER

@<TRIPOS>ATOM
      1  N         29.5050   -3.3570    9.8910 N.3    14  LEU14      -0.1245
      2  CA        28.3200   -4.1750   10.0660 C.3    14  LEU14       0.1561
      3  C         28.6860   -5.6120   10.4520 C.2    14  LEU14       0.2260
      4  O         28.1060   -6.1470   11.4000 O.2    14  LEU14      -0.2867
      5  CB        27.4330   -4.1380    8.8150 C.3    14  LEU14       0.0270
      6  CG        26.0800   -4.8520    8.9080 C.3    14  LEU14       0.0019
      7  CD1       25.1850   -4.2710   10.0100 C.3    14  LEU14       0.0001
      8  CD2       25.3950   -4.7290    7.5820 C.3    14  LEU14       0.0001
      9  N         29.6810   -5.4750   14.1140 N.3    17  MET17      -0.1245
     10  CA        28.5350   -5.4090   15.0340 C.3    17  MET17       0.1570
     11  C         27.7180   -6.7070   15.0500 C.2    17  MET17       0.2261
     12  O         27.3550   -7.1910   16.1170 O.2    17  MET17      -0.2867
     13  CB        27.6550   -4.1920   14.7540 C.3    17  MET17       0.0387
     14  CG        28.4170   -2.8770   14.9470 C.3    17  MET17       0.0595
     15  SD        27.4000   -1.4650   14.5420 S.3    17  MET17      -0.1393
     16  CE        26.1670   -1.4710   15.8500 C.3    17  MET17       0.0692
     17  N         20.0540    0.6250   18.7580 N.3    57  GLU57      -0.1245
     18  CA        21.5000    0.3690   18.8890 C.3    57  GLU57       0.1567
     19  C         22.0210    0.5880   20.3090 C.2    57  GLU57       0.2260
     20  O         23.2380    0.6240   20.5420 O.2    57  GLU57      -0.2867
     21  CB        22.3220    1.1470   17.8360 C.3    57  GLU57       0.0388
     22  CG        22.4310    0.4440   16.4890 C.3    57  GLU57       0.1160
     23  CD        21.0780   -0.0500   15.9750 C.2    57  GLU57       0.3649
     24  OE1       20.8770   -1.2790   15.9700 O.co2  57  GLU57      -0.2457
     25  OE2       20.2180    0.7780   15.6030 O.co2  57  GLU57      -0.2457
     26  N         18.8640   -3.2310   15.5470 N.3    62  ASN62      -0.1225
     27  CA        18.2700   -3.0340   14.2250 C.3    62  ASN62       0.1785
     28  C         19.1980   -3.4150   13.0750 C.2    62  ASN62       0.2597
     29  O         18.9020   -3.1280   11.9100 O.2    62  ASN62      -0.2718
     30  CB        17.8690   -1.5730   14.0510 C.3    62  ASN62       0.1169
     31  CG        16.9170   -1.1080   15.1220 C.2    62  ASN62       0.2627
     32  OD1       15.7600   -1.5250   15.1680 O.2    62  ASN62      -0.2716
     33  ND2       17.4090   -0.2480   16.0000 N.am   62  ASN62      -0.0877
     34  N         20.2890   -4.0990   13.3940 N.am   63  SER63      -0.1952
     35  CA        21.2700   -4.4790   12.3670 C.3    63  SER63       0.1924
     36  C         20.7090   -5.2040   11.1210 C.2    63  SER63       0.2314
     37  O         21.2120   -4.9890   10.0070 O.2    63  SER63      -0.2863
     38  CB        22.4670   -5.2200   12.9790 C.3    63  SER63       0.2116
     39  OG        22.1460   -6.5590   13.2840 O.3    63  SER63      -0.2180
     40  N         18.1320   -4.4760    9.5140 N.3    65  TYR65      -0.1227
     41  CA        17.6940   -3.4030    8.6130 C.3    65  TYR65       0.1736
     42  C         18.9050   -2.8750    7.8360 C.2    65  TYR65       0.2595
     43  O         18.8360   -2.7090    6.6170 O.2    65  TYR65      -0.2718
     44  CB        16.9750   -2.2670    9.3620 C.3    65  TYR65       0.0548
     45  CG        16.7350   -1.0360    8.5080 C.ar   65  TYR65      -0.0200
     46  CD1       15.7270   -1.0210    7.5370 C.ar   65  TYR65      -0.0009
     47  CD2       17.5200    0.1070    8.6640 C.ar   65  TYR65      -0.0009
     48  CE1       15.5120    0.1060    6.7360 C.ar   65  TYR65       0.0417
     49  CE2       17.3180    1.2400    7.8720 C.ar   65  TYR65       0.0417
     50  CZ        16.3140    1.2340    6.9140 C.ar   65  TYR65       0.1957
     51  OH        16.1080    2.3520    6.1280 O.3    65  TYR65      -0.2866
     52  N         20.0130   -2.6380    8.5430 N.am   66  ALA66      -0.1980
     53  CA        21.2740   -2.2600    7.8920 C.3    66  ALA66       0.1597
     54  C         21.7260   -3.3090    6.8670 C.2    66  ALA66       0.2287
     55  O         22.2100   -2.9640    5.7870 O.2    66  ALA66      -0.2864
     56  CB        22.3740   -2.0150    8.9470 C.3    66  ALA66       0.0319
     57  N         19.7640   -2.9000    3.7720 N.3    69  GLN69      -0.1245
     58  CA        20.2640   -1.7460    3.0070 C.3    69  GLN69       0.1566
     59  C         21.5040   -2.0810    2.1910 C.2    69  GLN69       0.2260
     60  O         21.6410   -1.6240    1.0650 O.2    69  GLN69      -0.2867
     61  CB        20.6100   -0.5680    3.9110 C.3    69  GLN69       0.0367
     62  CG        19.4850   -0.0300    4.7750 C.3    69  GLN69       0.0905
     63  CD        19.9190    1.1980    5.5520 C.2    69  GLN69       0.2608
     64  OE1       19.6440    2.3280    5.1370 O.2    69  GLN69      -0.2717
     65  NE2       20.6220    0.9930    6.6640 N.am   69  GLN69      -0.0878
     66  N         19.0760    5.3380    3.9220 N.3    76  PHE76      -0.1241
     67  CA        18.0370    5.3760    4.9470 C.3    76  PHE76       0.1605
     68  C         16.8290    6.1000    4.3680 C.2    76  PHE76       0.2264
     69  O         16.9620    7.1960    3.8150 O.2    76  PHE76      -0.2867
     70  CB        18.4860    6.0830    6.2240 C.3    76  PHE76       0.0534
     71  CG        17.3880    6.2080    7.2520 C.ar   76  PHE76      -0.0203
     72  CD1       17.1440    5.1760    8.1580 C.ar   76  PHE76      -0.0042
     73  CD2       16.5770    7.3460    7.2970 C.ar   76  PHE76      -0.0042
     74  CE1       16.1240    5.2800    9.1040 C.ar   76  PHE76      -0.0003
     75  CE2       15.5490    7.4570    8.2390 C.ar   76  PHE76      -0.0003
     76  CZ        15.3260    6.4220    9.1460 C.ar   76  PHE76      -0.0000
     77  N         12.0010    2.2610    7.2030 N.3    81  TRP81      -0.1241
     78  CA        12.1920    2.1380    8.6500 C.3    81  TRP81       0.1605
     79  C         10.9090    1.7450    9.3970 C.2    81  TRP81       0.2264
     80  O         10.9250    0.8340   10.2250 O.2    81  TRP81      -0.2867
     81  CB        12.7710    3.4310    9.2300 C.3    81  TRP81       0.0550
     82  CG        12.9660    3.3650   10.7040 C.ar   81  TRP81       0.0003
     83  CD1       12.2290    4.0040   11.6580 C.ar   81  TRP81       0.0946
     84  CD2       13.9490    2.5920   11.4050 C.ar   81  TRP81       0.0152
     85  NE1       12.6950    3.6850   12.9090 N.ar   81  TRP81      -0.2442
     86  CE2       13.7490    2.8170   12.7820 C.ar   81  TRP81       0.0810
     87  CE3       14.9810    1.7320   11.0020 C.ar   81  TRP81       0.0012
     88  CZ2       14.5460    2.2170   13.7630 C.ar   81  TRP81       0.0191
     89  CZ3       15.7710    1.1340   11.9790 C.ar   81  TRP81       0.0001
     90  CH2       15.5460    1.3840   13.3420 C.ar   81  TRP81       0.0015
     91  N         28.4280    1.8830   18.0550 N.3   208  ASN208     -0.1240
     92  CA        27.7070    1.8970   16.7980 C.3   208  ASN208      0.1653
     93  C         28.5670    2.5170   15.6990 C.2   208  ASN208      0.2266
     94  O         28.7050    3.7420   15.5950 O.2   208  ASN208     -0.2867
     95  CB        26.3630    2.6260   16.9770 C.3   208  ASN208      0.1155
     96  CG        25.5710    2.7380   15.6930 C.2   208  ASN208      0.2627
     97  OD1       26.0030    2.2780   14.6290 O.2   208  ASN208     -0.2716
     98  ND2       24.3890    3.3490   15.7890 N.am  208  ASN208     -0.0877
     99  N         27.9150    2.1840   12.5220 N.3   210  ASN210     -0.1225
    100  CA        27.1060    2.1750   11.2970 C.3   210  ASN210      0.1785
    101  C         26.4430    3.5140   10.9690 C.2   210  ASN210      0.2597
    102  O         26.3000    3.8800    9.7910 O.2   210  ASN210     -0.2718
    103  CB        26.0350    1.0640   11.3710 C.3   210  ASN210      0.1169
    104  CG        25.1810    0.9620   10.0960 C.2   210  ASN210      0.2627
    105  OD1       23.9650    1.2270   10.1090 O.2   210  ASN210     -0.2716
    106  ND2       25.8120    0.5740    8.9920 N.am  210  ASN210     -0.0877
    107  N         25.9940    4.2210   12.0000 N.am  211  TYR211     -0.1976
    108  CA        25.2590    5.4750   11.8020 C.3   211  TYR211      0.1639
    109  C         25.2270    6.2680   13.1080 C.2   211  TYR211      0.2290
    110  O         25.5500    5.7400   14.1670 O.2   211  TYR211     -0.2864
    111  CB        23.8110    5.2080   11.3170 C.3   211  TYR211      0.0560
    112  CG        22.8810    4.6940   12.4110 C.ar  211  TYR211     -0.0198
    113  CD1       22.1230    5.5790   13.1880 C.ar  211  TYR211     -0.0009
    114  CD2       22.7790    3.3270   12.6830 C.ar  211  TYR211     -0.0009
    115  CE1       21.2770    5.1110   14.2150 C.ar  211  TYR211      0.0417
    116  CE2       21.9470    2.8530   13.6970 C.ar  211  TYR211      0.0417
    117  CZ        21.2020    3.7450   14.4660 C.ar  211  TYR211      0.1957
    118  OH        20.3930    3.2510   15.4790 O.3   211  TYR211     -0.2866
@<TRIPOS>BOND
     1    60    59    2
     2    59    58    1
     3    58    57    1
     4    58    61    1
     5    69    68    2
     6    61    62    1
     7    66    67    1
     8    68    67    1
     9    62    63    1
    10    67    70    1
    11    64    63    2
    12    63    65   am
    13    55    54    2
    14    51    50    1
    15    70    71    1
    16    43    42    2
    17    48    50   ar
    18    48    46   ar
    19    54    53    1
    20    50    49   ar
    21    77    78    1
    22    71    73   ar
    23    71    72   ar
    24    73    75   ar
    25    46    45   ar
    26     8     6    1
    27    42    52   am
    28    42    41    1
    29    49    47   ar
    30    53    52    1
    31    53    56    1
    32    72    74   ar
    33    75    76   ar
    34    45    47   ar
    35    45    44    1
    36    41    44    1
    37    41    40    1
    38    78    81    1
    39    78    79    1
    40     5     6    1
    41     5     2    1
    42     6     7    1
    43   106   104   am
    44    74    76   ar
    45    81    82    1
    46    79    80    2
    47   102   101    2
    48     1     2    1
    49    37    36    2
    50     2     3    1
    51   104   105    2
    52   104   103    1
    53     3     4    2
    54    82    84   ar
    55    82    83   ar
    56   101   100    1
    57   101   107   am
    58    87    84   ar
    59    87    89   ar
    60    36    35    1
    61   100   103    1
    62   100    99    1
    63   111   108    1
    64   111   112    1
    65    84    86   ar
    66    83    85   ar
    67   108   107    1
    68   108   109    1
    69    29    28    2
    70    89    90   ar
    71    35    38    1
    72    35    34    1
    73   112   114   ar
    74   112   113   ar
    75   114   116   ar
    76    86    85   ar
    77    86    88   ar
    78    38    39    1
    79    28    34   am
    80    28    27    1
    81   109   110    2
    82   113   115   ar
    83    90    88   ar
    84   116   117   ar
    85    30    27    1
    86    30    31    1
    87     9    10    1
    88   115   117   ar
    89    27    26    1
    90   117   118    1
    91    15    14    1
    92    15    16    1
    93    97    96    2
    94    13    14    1
    95    13    10    1
    96    10    11    1
    97    11    12    2
    98    31    32    2
    99    31    33   am
   100    94    93    2
   101    25    23   ar
   102    96    98   am
   103    96    95    1
   104    93    92    1
   105    24    23   ar
   106    23    22    1
   107    22    21    1
   108    92    95    1
   109    92    91    1
   110    21    18    1
   111    17    18    1
   112    18    19    1
   113    19    20    2
