@<TRIPOS>MOLECULE
tmp/3et7A00.pdb
 172 165 0 0 0
SMALL
GASTEIGER

@<TRIPOS>ATOM
      1  N         14.5820   74.7920   17.2570 N.3    11  ARG11      -0.1245
      2  CA        13.9510   73.5280   17.6860 C.3    11  ARG11       0.1563
      3  C         14.7570   72.7780   18.7350 C.2    11  ARG11       0.2260
      4  O         15.9350   73.0140   18.9080 O.2    11  ARG11      -0.2867
      5  CB        13.5670   72.5280   16.5270 C.3    11  ARG11       0.0307
      6  CG        14.2290   72.6590   15.1100 C.3    11  ARG11       0.0489
      7  CD        15.6210   71.9580   14.8350 C.3    11  ARG11       0.2205
      8  NE        15.5520   70.5190   14.5210 N.pl3  11  ARG11      -0.0865
      9  CZ        14.9270   69.6310   15.3110 C.cat  11  ARG11       0.5346
     10  NH1       14.3080   70.0510   16.4180 N.pl3  11  ARG11       0.1354
     11  NH2       14.8900   68.3330   15.0110 N.pl3  11  ARG11       0.1354
     12  N         16.9990   70.0430   19.5910 N.3    13  LEU13      -0.1231
     13  CA        17.7930   68.9050   19.0760 C.3    13  LEU13       0.1693
     14  C         17.6140   67.5630   19.7680 C.2    13  LEU13       0.2593
     15  O         17.2690   66.5410   19.0940 O.2    13  LEU13      -0.2718
     16  CB        19.2520   69.2290   19.0390 C.3    13  LEU13       0.0284
     17  CG        19.4270   69.3040   17.5430 C.3    13  LEU13       0.0019
     18  CD1       20.7810   69.8870   17.1960 C.3    13  LEU13       0.0001
     19  CD2       19.2360   67.9110   17.0730 C.3    13  LEU13       0.0001
     20  N         17.8760   67.5520   21.0820 N.am   14  GLY14      -0.1942
     21  CA        17.5840   66.4090   21.9240 C.3    14  GLY14       0.2014
     22  C         17.8130   66.7020   23.3870 C.2    14  GLY14       0.2639
     23  O         18.0180   67.8460   23.7850 O.2    14  GLY14      -0.2714
     24  N         17.8160   65.6430   24.1830 N.am   15  GLU15      -0.1963
     25  CA        17.9660   65.7810   25.6180 C.3    15  GLU15       0.1733
     26  C         19.2800   65.2280   26.1280 C.2    15  GLU15       0.2616
     27  O         19.3870   64.0090   26.3590 O.2    15  GLU15      -0.2715
     28  CB        16.8390   65.0340   26.3020 C.3    15  GLU15       0.0429
     29  CG        15.5440   65.8190   26.2910 C.3    15  GLU15       0.1163
     30  CD        15.2820   66.4840   27.6350 C.2    15  GLU15       0.3649
     31  OE1       16.1370   67.3060   28.0920 O.co2  15  GLU15      -0.2457
     32  OE2       14.2230   66.1500   28.2400 O.co2  15  GLU15      -0.2457
     33  N         20.2750   66.0880   26.3450 N.am   16  GLY16      -0.1955
     34  CA        21.5860   65.6150   26.7890 C.3    16  GLY16       0.1869
     35  C         21.5500   65.0150   28.1750 C.2    16  GLY16       0.2309
     36  O         20.4810   64.8280   28.7390 O.2    16  GLY16      -0.2863
     37  N         19.6390   70.3830   23.9080 N.3    21  VAL21      -0.1245
     38  CA        20.5050   71.0120   22.9170 C.3    21  VAL21       0.1561
     39  C         19.4710   71.4740   21.9600 C.2    21  VAL21       0.2260
     40  O         18.4510   70.8160   21.7930 O.2    21  VAL21      -0.2867
     41  CB        21.5300   69.9770   22.2640 C.3    21  VAL21       0.0252
     42  CG1       22.3140   70.5530   21.0850 C.3    21  VAL21       0.0019
     43  CG2       22.4740   69.4260   23.3440 C.3    21  VAL21       0.0019
     44  N         24.3460   74.5870   17.2110 N.3    37  ALA37      -0.1245
     45  CA        23.7600   73.7020   18.2120 C.3    37  ALA37       0.1562
     46  C         24.0790   74.3000   19.6070 C.2    37  ALA37       0.2260
     47  O         25.2010   74.7850   19.8690 O.2    37  ALA37      -0.2867
     48  CB        24.2660   72.3230   18.0590 C.3    37  ALA37       0.0290
     49  N         23.8320   74.1310   23.6670 N.3    39  LYS39      -0.1245
     50  CA        23.7410   73.2090   24.7860 C.3    39  LYS39       0.1561
     51  C         23.4330   74.1280   25.9200 C.2    39  LYS39       0.2260
     52  O         24.0710   75.2170   26.0440 O.2    39  LYS39      -0.2867
     53  CB        25.0890   72.5000   25.0070 C.3    39  LYS39       0.0271
     54  CG        25.0480   71.1880   25.8290 C.3    39  LYS39       0.0035
     55  CD        26.3360   70.3070   25.6490 C.3    39  LYS39       0.0206
     56  CE        26.1110   68.7590   25.9050 C.3    39  LYS39       0.1093
     57  NZ        26.4850   68.1250   27.2870 N.3    39  LYS39      -0.1314
     58  N         34.1800   68.1560   17.9540 N.3    69  VAL69      -0.1245
     59  CA        33.1430   69.1430   17.7490 C.3    69  VAL69       0.1561
     60  C         33.7160   70.5070   17.9490 C.2    69  VAL69       0.2260
     61  O         34.4450   70.7560   18.8860 O.2    69  VAL69      -0.2867
     62  CB        31.9470   68.9570   18.6850 C.3    69  VAL69       0.0252
     63  CG1       31.2340   67.6130   18.4680 C.3    69  VAL69       0.0019
     64  CG2       32.3320   69.0990   20.0590 C.3    69  VAL69       0.0019
     65  N         28.0500   75.6060   19.4840 N.3    84  MET84      -0.1230
     66  CA        28.8350   74.6620   18.7410 C.3    84  MET84       0.1702
     67  C         28.2400   74.6130   17.3860 C.2    84  MET84       0.2592
     68  O         26.9810   74.5790   17.2680 O.2    84  MET84      -0.2718
     69  CB        28.5150   73.2760   19.2320 C.3    84  MET84       0.0401
     70  CG        28.4150   73.1230   20.6900 C.3    84  MET84       0.0596
     71  SD        30.0700   73.2960   21.2280 S.3    84  MET84      -0.1393
     72  CE        30.1400   71.6890   21.8950 C.3    84  MET84       0.0692
     73  N         29.1020   74.4960   16.3730 N.am   85  GLU85      -0.1966
     74  CA        28.6870   74.2850   15.0110 C.3    85  GLU85       0.1733
     75  C         27.6780   73.1620   14.9550 C.2    85  GLU85       0.2616
     76  O         27.7750   72.1890   15.7250 O.2    85  GLU85      -0.2715
     77  CB        29.9070   73.8890   14.2410 C.3    85  GLU85       0.0429
     78  CG        29.7800   73.9040   12.7180 C.3    85  GLU85       0.1163
     79  CD        31.1610   74.0660   12.0760 C.2    85  GLU85       0.3649
     80  OE1       32.1360   73.7930   12.8260 O.co2  85  GLU85      -0.2457
     81  OE2       31.3040   74.4380   10.8650 O.co2  85  GLU85      -0.2457
     82  N         26.6820   73.2900   14.0900 N.am   86  LEU86      -0.1963
     83  CA        25.7840   72.1640   13.8330 C.3    86  LEU86       0.1728
     84  C         26.3980   71.1130   12.8280 C.2    86  LEU86       0.2616
     85  O         27.1660   71.4680   11.8860 O.2    86  LEU86      -0.2715
     86  CB        24.4430   72.6890   13.3340 C.3    86  LEU86       0.0311
     87  CG        23.3880   71.5850   13.1350 C.3    86  LEU86       0.0022
     88  CD1       23.1210   70.8540   14.4850 C.3    86  LEU86       0.0001
     89  CD2       22.0120   71.9820   12.4000 C.3    86  LEU86       0.0001
     90  N         26.0910   69.8220   13.0320 N.am   87  TYR87      -0.1960
     91  CA        26.5330   68.7700   12.1030 C.3    87  TYR87       0.1756
     92  C         25.3080   68.0400   11.6260 C.2    87  TYR87       0.2461
     93  O         24.7610   67.1180   12.2450 O.2    87  TYR87      -0.2730
     94  CB        27.6560   67.8510   12.6760 C.3    87  TYR87       0.0574
     95  CG        28.8690   68.6550   13.0790 C.ar   87  TYR87      -0.0198
     96  CD1       29.2710   68.6620   14.3700 C.ar   87  TYR87      -0.0009
     97  CD2       29.5650   69.4550   12.1720 C.ar   87  TYR87      -0.0009
     98  CE1       30.3590   69.4060   14.7940 C.ar   87  TYR87       0.0417
     99  CE2       30.6620   70.2390   12.5700 C.ar   87  TYR87       0.0417
    100  CZ        31.0390   70.2030   13.9000 C.ar   87  TYR87       0.1957
    101  OH        32.0750   70.9280   14.4320 O.3    87  TYR87      -0.2866
    102  N         24.9060   68.4190   10.4440 N.am   88  PRO88      -0.2716
    103  CA        23.5120   68.1880   10.0460 C.3    88  PRO88       0.1536
    104  C         23.1790   66.7000    9.9170 C.2    88  PRO88       0.2599
    105  O         21.9680   66.3940    9.8280 O.2    88  PRO88      -0.2715
    106  CB        23.3480   68.9530    8.7260 C.3    88  PRO88       0.0310
    107  CG        24.7250   69.7940    8.4810 C.3    88  PRO88       0.0237
    108  CD        25.7850   68.9700    9.3640 C.3    88  PRO88       0.0939
    109  N         24.1700   65.7900    9.9880 N.am   89  TYR89      -0.1960
    110  CA        23.9320   64.3360    9.7820 C.3    89  TYR89       0.1771
    111  C         23.7000   63.5320   11.0840 C.2    89  TYR89       0.2620
    112  O         23.3590   62.3430   11.0410 O.2    89  TYR89      -0.2715
    113  CB        25.1470   63.7380    9.1120 C.3    89  TYR89       0.0574
    114  CG        25.3360   64.0060    7.6390 C.ar   89  TYR89      -0.0198
    115  CD1       26.1410   65.0590    7.2090 C.ar   89  TYR89      -0.0009
    116  CD2       24.8010   63.1420    6.6840 C.ar   89  TYR89      -0.0009
    117  CE1       26.3390   65.3280    5.8410 C.ar   89  TYR89       0.0417
    118  CE2       24.9910   63.3550    5.3350 C.ar   89  TYR89       0.0417
    119  CZ        25.7610   64.4610    4.9140 C.ar   89  TYR89       0.1957
    120  OH        25.9540   64.6810    3.5720 O.3    89  TYR89      -0.2866
    121  N         23.9810   64.1470   12.2490 N.am   90  GLY90      -0.1940
    122  CA        23.8190   63.4520   13.5400 C.3    90  GLY90       0.2014
    123  C         24.7440   62.2890   14.0080 C.2    90  GLY90       0.2638
    124  O         25.8520   62.0850   13.5710 O.2    90  GLY90      -0.2714
    125  N         24.2510   61.5300   14.9570 N.am   91  GLU91      -0.1977
    126  CA        25.0210   60.5270   15.6160 C.3    91  GLU91       0.1602
    127  C         25.5170   59.5800   14.5550 C.2    91  GLU91       0.2287
    128  O         24.7070   59.0880   13.7670 O.2    91  GLU91      -0.2864
    129  CB        24.0750   59.7310   16.4890 C.3    91  GLU91       0.0415
    130  CG        23.8750   60.3100   17.8430 C.3    91  GLU91       0.1163
    131  CD        22.6760   59.6960   18.5220 C.2    91  GLU91       0.3649
    132  OE1       22.4560   58.4190   18.4880 O.co2  91  GLU91      -0.2457
    133  OE2       21.9150   60.5120   19.1160 O.co2  91  GLU91      -0.2457
    134  N         26.9250   56.8090   19.0880 N.3   135  ARG135     -0.1231
    135  CA        25.9680   57.7660   19.5890 C.3   135  ARG135      0.1694
    136  C         26.5650   59.0550   20.0760 C.2   135  ARG135      0.2592
    137  O         25.8690   60.0580   20.0850 O.2   135  ARG135     -0.2718
    138  CB        25.4100   57.2770   20.8850 C.3   135  ARG135      0.0321
    139  CG        24.3400   56.1780   20.9800 C.3   135  ARG135      0.0489
    140  CD        23.7420   56.0950   22.4870 C.3   135  ARG135      0.2205
    141  NE        24.7160   56.7940   23.3680 N.pl3 135  ARG135     -0.0865
    142  CZ        25.9590   56.3330   23.7750 C.cat 135  ARG135      0.5346
    143  NH1       26.3670   55.0740   23.4630 N.pl3 135  ARG135      0.1354
    144  NH2       26.7630   57.1450   24.5010 N.pl3 135  ARG135      0.1354
    145  N         27.8080   59.0610   20.5610 N.am  136  ASN136     -0.1974
    146  CA        28.3280   60.2870   21.0410 C.3   136  ASN136      0.1688
    147  C         29.3010   60.8730   20.1090 C.2   136  ASN136      0.2292
    148  O         30.1290   61.6810   20.5830 O.2   136  ASN136     -0.2864
    149  CB        28.9020   60.1350   22.4440 C.3   136  ASN136      0.1181
    150  CG        29.1720   61.4910   23.1470 C.2   136  ASN136      0.2629
    151  OD1       30.2400   61.6870   23.6860 O.2   136  ASN136     -0.2716
    152  ND2       28.2230   62.4190   23.1100 N.am  136  ASN136     -0.0877
    153  N         29.6360   62.7950   16.0740 N.3   138  LEU138     -0.1245
    154  CA        28.8760   63.3770   15.0090 C.3   138  LEU138      0.1561
    155  C         29.5320   63.2410   13.6120 C.2   138  LEU138      0.2260
    156  O         30.7830   63.3940   13.4630 O.2   138  LEU138     -0.2867
    157  CB        28.6710   64.8610   15.3830 C.3   138  LEU138      0.0270
    158  CG        27.8010   64.6320   16.6320 C.3   138  LEU138      0.0019
    159  CD1       28.3450   65.1600   18.0130 C.3   138  LEU138      0.0001
    160  CD2       26.3730   64.9320   16.3840 C.3   138  LEU138      0.0001
    161  N         32.1560   63.7590   19.9900 N.3   148  GLY148     -0.1210
    162  CA        31.5130   64.1640   21.2260 C.3   148  GLY148      0.1956
    163  C         31.8620   65.4690   21.8790 C.2   148  GLY148      0.2611
    164  O         31.3980   66.4480   21.4060 O.2   148  GLY148     -0.2717
    165  N         32.5970   65.5520   22.9680 N.am  149  ASP149     -0.1973
    166  CA        32.3300   66.7660   23.8580 C.3   149  ASP149      0.1709
    167  C         31.2320   66.4080   24.8080 C.2   149  ASP149      0.2293
    168  O         30.0810   66.5810   24.5520 O.2   149  ASP149     -0.2864
    169  CB        31.8380   68.0110   23.0880 C.3   149  ASP149      0.1436
    170  CG        30.6470   68.7370   23.8100 C.2   149  ASP149      0.3671
    171  OD1       30.8310   68.8990   25.0450 O.co2 149  ASP149     -0.2456
    172  OD2       29.5250   69.1470   23.3190 O.co2 149  ASP149     -0.2456
@<TRIPOS>BOND
     1   120   119    1
     2   119   118   ar
     3   119   117   ar
     4   118   116   ar
     5   117   115   ar
     6   116   114   ar
     7   115   114   ar
     8   114   113    1
     9   107   106    1
    10   107   108    1
    11   106   103    1
    12   113   110    1
    13   108   102    1
    14   110   109    1
    15   110   111    1
    16   105   104    2
    17   104   109   am
    18   104   103    1
    19   103   102    1
    20   102    92   am
    21    81    79   ar
    22   112   111    2
    23   111   121   am
    24    92    91    1
    25    92    93    2
    26    85    84    2
    27    79    78    1
    28    79    80   ar
    29    91    94    1
    30    91    90    1
    31    97    99   ar
    32    97    95   ar
    33   121   122    1
    34    89    87    1
    35    99   100   ar
    36    94    95    1
    37    78    77    1
    38    84    90   am
    39    84    83    1
    40    95    96   ar
    41    87    86    1
    42    87    88    1
    43    86    83    1
    44   156   155    2
    45   122   123    1
    46   124   123    2
    47   155   154    1
    48   128   127    2
    49    83    82    1
    50   100   101    1
    51   100    98   ar
    52   123   125   am
    53    82    75   am
    54    77    74    1
    55    96    98   ar
    56     8     7    1
    57     8     9    2
    58   127   126    1
    59     7     6    1
    60    75    74    1
    61    75    76    2
    62   125   126    1
    63   154   157    1
    64   154   153    1
    65    74    73    1
    66    11     9    1
    67     6     5    1
    68     9    10    1
    69   157   158    1
    70   126   129    1
    71    73    67   am
    72   160   158    1
    73   129   130    1
    74     5     2    1
    75   158   159    1
    76    19    17    1
    77    18    17    1
    78    44    45    1
    79     1     2    1
    80    68    67    2
    81    67    66    1
    82    17    16    1
    83     2     3    1
    84    59    60    1
    85    59    58    1
    86    59    62    1
    87   130   131    1
    88    60    61    2
    89    48    45    1
    90    45    46    1
    91    63    62    1
    92   132   131   ar
    93   131   133   ar
    94    62    64    1
    95     3     4    2
    96    66    69    1
    97    66    65    1
    98    16    13    1
    99    13    12    1
   100    13    14    1
   101   134   135    1
   102    15    14    2
   103    69    70    1
   104   135   136    1
   105   135   138    1
   106    46    47    2
   107    14    20   am
   108   161   162    1
   109   136   137    2
   110   136   145   am
   111   147   148    2
   112   147   146    1
   113   145   146    1
   114    70    71    1
   115   138   139    1
   116   139   140    1
   117   146   149    1
   118    20    21    1
   119    42    41    1
   120   162   163    1
   121    71    72    1
   122   164   163    2
   123    40    39    2
   124   163   165   am
   125    21    22    1
   126    39    38    1
   127    41    38    1
   128    41    43    1
   129   149   150    1
   130   140   141    1
   131    38    37    1
   132   165   166    1
   133   169   170    1
   134   169   166    1
   135   152   150   am
   136   150   151    2
   137   172   170   ar
   138   141   142    2
   139    22    23    2
   140    22    24   am
   141   143   142    1
   142    49    50    1
   143   142   144    1
   144   170   171   ar
   145   166   167    1
   146    24    25    1
   147   168   167    2
   148    50    53    1
   149    50    51    1
   150    53    54    1
   151    25    26    1
   152    25    28    1
   153    55    54    1
   154    55    56    1
   155    56    57    1
   156    51    52    2
   157    26    33   am
   158    26    27    2
   159    29    28    1
   160    29    30    1
   161    33    34    1
   162    34    35    1
   163    30    31   ar
   164    30    32   ar
   165    35    36    2
