@<TRIPOS>MOLECULE
tmp/3etcA01.pdb
 154 154 0 0 0
SMALL
GASTEIGER

@<TRIPOS>ATOM
      1  N         38.6550   47.9900   86.0580 N.3   207  PHE207     -0.1227
      2  CA        39.2850   49.1730   86.6190 C.3   207  PHE207      0.1736
      3  C         40.6730   49.3460   86.0210 C.2   207  PHE207      0.2596
      4  O         41.5070   48.4460   86.0960 O.2   207  PHE207     -0.2718
      5  CB        39.3690   49.0930   88.1450 C.3   207  PHE207      0.0547
      6  CG        38.0890   49.4230   88.8250 C.ar  207  PHE207     -0.0202
      7  CD1       37.8670   50.7100   89.3360 C.ar  207  PHE207     -0.0042
      8  CD2       37.0860   48.4560   88.9520 C.ar  207  PHE207     -0.0042
      9  CE1       36.6770   51.0280   89.9690 C.ar  207  PHE207     -0.0003
     10  CE2       35.8780   48.7680   89.5970 C.ar  207  PHE207     -0.0003
     11  CZ        35.6690   50.0620   90.0970 C.ar  207  PHE207     -0.0000
     12  N         40.9280   50.5360   85.4890 N.am  208  SER208     -0.1938
     13  CA        42.1470   50.8260   84.7620 C.3   208  SER208      0.2055
     14  C         42.7220   52.1940   85.1760 C.2   208  SER208      0.2643
     15  O         41.9890   53.1960   85.2170 O.2   208  SER208     -0.2714
     16  CB        41.8350   50.7900   83.2540 C.3   208  SER208      0.2130
     17  OG        42.9300   51.2460   82.4870 O.3   208  SER208     -0.2179
     18  N         44.0260   52.2260   85.4750 N.am  209  SER209     -0.1949
     19  CA        44.7190   53.4270   85.9520 C.3   209  SER209      0.1924
     20  C         44.5630   54.6810   85.0820 C.2   209  SER209      0.2314
     21  O         44.6090   54.6140   83.8580 O.2   209  SER209     -0.2863
     22  CB        46.2180   53.1290   86.1210 C.3   209  SER209      0.2116
     23  OG        46.4140   52.1940   87.1770 O.3   209  SER209     -0.2180
     24  N         43.0030   40.6570   84.9220 N.3   252  TRP252     -0.1227
     25  CA        43.4930   41.6050   83.9260 C.3   252  TRP252      0.1737
     26  C         42.8360   41.3700   82.5790 C.2   252  TRP252      0.2596
     27  O         42.4940   40.2330   82.2360 O.2   252  TRP252     -0.2718
     28  CB        45.0150   41.4690   83.7650 C.3   252  TRP252      0.0564
     29  CG        45.7690   41.4240   85.0730 C.ar  252  TRP252      0.0003
     30  CD1       46.3680   40.3350   85.6380 C.ar  252  TRP252      0.0946
     31  CD2       46.0000   42.5220   85.9720 C.ar  252  TRP252      0.0152
     32  NE1       46.9590   40.6880   86.8320 N.ar  252  TRP252     -0.2442
     33  CE2       46.7480   42.0210   87.0590 C.ar  252  TRP252      0.0810
     34  CE3       45.6580   43.8810   85.9550 C.ar  252  TRP252      0.0012
     35  CZ2       47.1620   42.8280   88.1210 C.ar  252  TRP252      0.0191
     36  CZ3       46.0670   44.6820   87.0200 C.ar  252  TRP252      0.0001
     37  CH2       46.8110   44.1520   88.0830 C.ar  252  TRP252      0.0015
     38  N         42.6810   42.4500   81.8190 N.am  253  GLY253     -0.1942
     39  CA        42.0890   42.4030   80.4910 C.3   253  GLY253      0.2014
     40  C         42.6590   41.3510   79.5560 C.2   253  GLY253      0.2638
     41  O         41.9210   40.7240   78.8150 O.2   253  GLY253     -0.2714
     42  N         43.9720   41.1400   79.5990 N.am  254  LYS254     -0.1977
     43  CA        44.5990   40.1410   78.7230 C.3   254  LYS254      0.1596
     44  C         43.9790   38.7460   78.8620 C.2   254  LYS254      0.2287
     45  O         43.9890   37.9700   77.9170 O.2   254  LYS254     -0.2864
     46  CB        46.1140   40.0610   78.9160 C.3   254  LYS254      0.0298
     47  CG        46.8200   39.3870   77.7080 C.3   254  LYS254      0.0038
     48  CD        46.8130   40.3340   76.4960 C.3   254  LYS254      0.0206
     49  CE        46.8650   39.5970   75.1870 C.3   254  LYS254      0.1093
     50  NZ        48.1910   38.9030   75.0680 N.3   254  LYS254     -0.1314
     51  N         41.3100   38.5630   76.3600 N.3   257  TRP257     -0.1241
     52  CA        41.9620   38.6390   75.0510 C.3   257  TRP257      0.1605
     53  C         42.4700   37.2620   74.6270 C.2   257  TRP257      0.2264
     54  O         42.5950   36.9810   73.4400 O.2   257  TRP257     -0.2867
     55  CB        43.1810   39.5500   75.1350 C.3   257  TRP257      0.0550
     56  CG        42.9400   41.0320   75.0820 C.ar  257  TRP257      0.0003
     57  CD1       42.0600   41.7670   75.8370 C.ar  257  TRP257      0.0946
     58  CD2       43.6600   41.9710   74.2750 C.ar  257  TRP257      0.0152
     59  NE1       42.1620   43.1040   75.5070 N.ar  257  TRP257     -0.2442
     60  CE2       43.1380   43.2550   74.5580 C.ar  257  TRP257      0.0810
     61  CE3       44.6730   41.8470   73.3080 C.ar  257  TRP257      0.0012
     62  CZ2       43.6080   44.4150   73.9210 C.ar  257  TRP257      0.0191
     63  CZ3       45.1380   43.0080   72.6690 C.ar  257  TRP257      0.0001
     64  CH2       44.6070   44.2720   72.9910 C.ar  257  TRP257      0.0015
     65  N         52.9290   40.5620   73.7250 N.3   321  ALA321     -0.1231
     66  CA        52.3470   41.8700   73.9980 C.3   321  ALA321      0.1694
     67  C         52.5350   42.2460   75.4700 C.2   321  ALA321      0.2592
     68  O         52.6740   41.3740   76.3430 O.2   321  ALA321     -0.2718
     69  CB        50.8490   41.8850   73.6540 C.3   321  ALA321      0.0304
     70  N         52.5150   43.5430   75.7380 N.am  322  GLY322     -0.1957
     71  CA        52.3450   44.0160   77.1170 C.3   322  GLY322      0.1869
     72  C         53.5220   44.7580   77.7190 C.2   322  GLY322      0.2309
     73  O         53.3470   45.4930   78.6920 O.2   322  GLY322     -0.2863
     74  N         51.8050   42.3690   69.2400 N.3   344  GLY344     -0.1210
     75  CA        50.5040   43.0230   69.1110 C.3   344  GLY344      0.1956
     76  C         50.3390   44.0320   70.2390 C.2   344  GLY344      0.2612
     77  O         51.1120   44.0350   71.2200 O.2   344  GLY344     -0.2717
     78  N         49.3230   44.8820   70.1140 N.am  345  PHE345     -0.1962
     79  CA        49.1980   46.0330   71.0110 C.3   345  PHE345      0.1771
     80  C         47.7340   46.4520   71.1140 C.2   345  PHE345      0.2620
     81  O         46.9610   46.2970   70.1670 O.2   345  PHE345     -0.2715
     82  CB        50.0830   47.1730   70.4720 C.3   345  PHE345      0.0574
     83  CG        50.0280   48.4510   71.2610 C.ar  345  PHE345     -0.0200
     84  CD1       50.9350   48.6850   72.2910 C.ar  345  PHE345     -0.0042
     85  CD2       49.1140   49.4500   70.9300 C.ar  345  PHE345     -0.0042
     86  CE1       50.9140   49.8850   73.0060 C.ar  345  PHE345     -0.0003
     87  CE2       49.0770   50.6560   71.6380 C.ar  345  PHE345     -0.0003
     88  CZ        49.9770   50.8750   72.6760 C.ar  345  PHE345     -0.0000
     89  N         47.3650   46.9680   72.2810 N.am  346  GLY346     -0.1940
     90  CA        46.0240   47.4970   72.5130 C.3   346  GLY346      0.2014
     91  C         45.9640   48.0180   73.9390 C.2   346  GLY346      0.2639
     92  O         47.0090   48.2300   74.5640 O.2   346  GLY346     -0.2714
     93  N         44.7510   48.2440   74.4330 N.am  347  GLN347     -0.1963
     94  CA        44.5240   48.8000   75.7850 C.3   347  GLN347      0.1733
     95  C         43.3380   48.0890   76.4000 C.2   347  GLN347      0.2617
     96  O         42.5730   47.4200   75.7030 O.2   347  GLN347     -0.2715
     97  CB        44.0580   50.2580   75.7210 C.3   347  GLN347      0.0408
     98  CG        44.8280   51.2030   74.9320 C.3   347  GLN347      0.0908
     99  CD        44.3770   52.6160   75.2090 C.2   347  GLN347      0.2608
    100  OE1       43.2860   53.0350   74.8090 O.2   347  GLN347     -0.2717
    101  NE2       45.2260   53.3660   75.8810 N.am  347  GLN347     -0.0878
    102  N         43.1200   48.3380   77.6870 N.am  348  THR348     -0.1951
    103  CA        41.8960   47.8900   78.3530 C.3   348  THR348      0.1897
    104  C         40.6330   48.2980   77.5900 C.2   348  THR348      0.2313
    105  O         39.6820   47.5230   77.4960 O.2   348  THR348     -0.2863
    106  CB        41.8220   48.4630   79.7780 C.3   348  THR348      0.1794
    107  OG1       43.0590   48.1920   80.4270 O.3   348  THR348     -0.2208
    108  CG2       40.6890   47.8190   80.5570 C.3   348  THR348      0.0378
    109  N         54.2770   52.6180   83.4150 N.3   451  LYS451     -0.1245
    110  CA        54.1310   51.2270   83.0170 C.3   451  LYS451      0.1561
    111  C         55.3820   50.4590   83.4190 C.2   451  LYS451      0.2260
    112  O         56.4740   50.7320   82.9280 O.2   451  LYS451     -0.2867
    113  CB        53.8950   51.1270   81.5110 C.3   451  LYS451      0.0271
    114  CG        53.4000   49.7790   81.0760 C.3   451  LYS451      0.0035
    115  CD        52.9630   49.8060   79.6300 C.3   451  LYS451      0.0206
    116  CE        52.8400   48.4030   79.1070 C.3   451  LYS451      0.1093
    117  NZ        52.4590   48.3580   77.6690 N.3   451  LYS451     -0.1314
    118  N         54.8040   45.6970   82.5460 N.3   454  GLY454     -0.1210
    119  CA        53.4590   45.4830   82.0210 C.3   454  GLY454      0.1956
    120  C         52.3300   45.9980   82.9030 C.2   454  GLY454      0.2612
    121  O         51.1770   46.0430   82.4590 O.2   454  GLY454     -0.2717
    122  N         52.6460   46.3600   84.1490 N.am  455  TYR455     -0.1962
    123  CA        51.6690   46.9710   85.0620 C.3   455  TYR455      0.1771
    124  C         51.5240   48.4650   84.8370 C.2   455  TYR455      0.2619
    125  O         52.4930   49.2160   84.9600 O.2   455  TYR455     -0.2715
    126  CB        52.0450   46.7640   86.5400 C.3   455  TYR455      0.0574
    127  CG        51.9850   45.3360   86.9940 C.ar  455  TYR455     -0.0198
    128  CD1       50.7630   44.7270   87.2730 C.ar  455  TYR455     -0.0009
    129  CD2       53.1560   44.5840   87.1390 C.ar  455  TYR455     -0.0009
    130  CE1       50.7020   43.3920   87.6870 C.ar  455  TYR455      0.0417
    131  CE2       53.1110   43.2540   87.5580 C.ar  455  TYR455      0.0417
    132  CZ        51.8800   42.6680   87.8320 C.ar  455  TYR455      0.1957
    133  OH        51.8200   41.3590   88.2380 O.3   455  TYR455     -0.2866
    134  N         50.2990   48.8740   84.5330 N.am  456  LYS456     -0.1977
    135  CA        49.9030   50.2680   84.4180 C.3   456  LYS456      0.1596
    136  C         49.6330   50.8140   85.8270 C.2   456  LYS456      0.2287
    137  O         48.9150   50.1920   86.6160 O.2   456  LYS456     -0.2864
    138  CB        48.6400   50.3500   83.5490 C.3   456  LYS456      0.0298
    139  CG        48.2650   51.7350   83.0450 C.3   456  LYS456      0.0038
    140  CD        46.8030   51.7930   82.5600 C.3   456  LYS456      0.0206
    141  CE        46.5970   52.9470   81.5850 C.3   456  LYS456      0.1093
    142  NZ        45.1760   53.2000   81.2580 N.3   456  LYS456     -0.1314
    143  N         52.5400   45.5820   93.6330 N.3   520  TYR520     -0.1241
    144  CA        53.3080   45.7860   92.4120 C.3   520  TYR520      0.1605
    145  C         53.6030   47.2800   92.1820 C.2   520  TYR520      0.2264
    146  O         54.5010   47.6250   91.4150 O.2   520  TYR520     -0.2867
    147  CB        52.6080   45.1360   91.2070 C.3   520  TYR520      0.0534
    148  CG        51.2710   45.7380   90.8480 C.ar  520  TYR520     -0.0201
    149  CD1       50.0770   45.1340   91.2450 C.ar  520  TYR520     -0.0009
    150  CD2       51.1980   46.9050   90.0990 C.ar  520  TYR520     -0.0009
    151  CE1       48.8490   45.6930   90.9130 C.ar  520  TYR520      0.0417
    152  CE2       49.9800   47.4680   89.7610 C.ar  520  TYR520      0.0417
    153  CZ        48.8120   46.8580   90.1680 C.ar  520  TYR520      0.1957
    154  OH        47.6110   47.4340   89.8230 O.3   520  TYR520     -0.2866
@<TRIPOS>BOND
     1    75    74    1
     2    75    76    1
     3    78    76   am
     4    78    79    1
     5    81    80    2
     6    76    77    2
     7    82    79    1
     8    82    83    1
     9    85    83   ar
    10    85    87   ar
    11    79    80    1
    12    80    89   am
    13    83    84   ar
    14    87    88   ar
    15    89    90    1
    16    84    86   ar
    17    90    91    1
    18    63    64   ar
    19    63    61   ar
    20    88    86   ar
    21    64    62   ar
    22    61    58   ar
    23    54    53    2
    24    69    66    1
    25    65    66    1
    26    62    60   ar
    27    91    93   am
    28    91    92    2
    29    66    67    1
    30    58    60   ar
    31    58    56   ar
    32    93    94    1
    33    60    59   ar
    34    53    52    1
    35   100    99    2
    36    98    99    1
    37    98    97    1
    38    52    55    1
    39    52    51    1
    40    50    49    1
    41    56    55    1
    42    56    57   ar
    43    49    48    1
    44    99   101   am
    45    67    70   am
    46    67    68    2
    47    59    57   ar
    48    96    95    2
    49    97    94    1
    50    70    71    1
    51    94    95    1
    52    95   102   am
    53    48    47    1
    54    71    72    1
    55   105   104    2
    56   104   103    1
    57   117   116    1
    58   102   103    1
    59    47    46    1
    60    72    73    2
    61    45    44    2
    62   103   106    1
    63    43    44    1
    64    43    46    1
    65    43    42    1
    66    41    40    2
    67   116   115    1
    68    40    42   am
    69    40    39    1
    70   115   114    1
    71   106   107    1
    72   106   108    1
    73    39    38    1
    74   114   113    1
    75   142   141    1
    76   113   110    1
    77   141   140    1
    78    38    26   am
    79   119   118    1
    80   119   120    1
    81    27    26    2
    82   121   120    2
    83    17    16    1
    84   140   139    1
    85    26    25    1
    86   120   122   am
    87   112   111    2
    88   110   109    1
    89   110   111    1
    90   139   138    1
    91    16    13    1
    92   138   135    1
    93    28    25    1
    94    28    29    1
    95    21    20    2
    96    25    24    1
    97   122   123    1
    98   135   134    1
    99   135   136    1
   100   134   124   am
   101    13    14    1
   102    13    12    1
   103   124   125    2
   104   124   123    1
   105   123   126    1
   106    29    30   ar
   107    29    31   ar
   108    20    19    1
   109    14    15    2
   110    14    18   am
   111    18    19    1
   112    12     3   am
   113    30    32   ar
   114   136   137    2
   115    19    22    1
   116    34    31   ar
   117    34    36   ar
   118    31    33   ar
   119     3     4    2
   120     3     2    1
   121     1     2    1
   122    22    23    1
   123   126   127    1
   124     2     5    1
   125    32    33   ar
   126   127   129   ar
   127   127   128   ar
   128    36    37   ar
   129    33    35   ar
   130   129   131   ar
   131   128   130   ar
   132   131   132   ar
   133   130   132   ar
   134   132   133    1
   135    37    35   ar
   136     5     6    1
   137     6     8   ar
   138     6     7   ar
   139     8    10   ar
   140     7     9   ar
   141    10    11   ar
   142   152   150   ar
   143   152   153   ar
   144   154   153    1
   145     9    11   ar
   146   150   148   ar
   147   153   151   ar
   148   148   147    1
   149   148   149   ar
   150   151   149   ar
   151   147   144    1
   152   146   145    2
   153   145   144    1
   154   144   143    1
