@<TRIPOS>MOLECULE
tmp/3etcB01.pdb
 107 105 0 0 0
SMALL
GASTEIGER

@<TRIPOS>ATOM
      1  N         14.4300   70.6600   93.0010 N.3   252  TRP252     -0.1227
      2  CA        15.3620   71.1580   94.0020 C.3   252  TRP252      0.1737
      3  C         15.0780   70.5480   95.3760 C.2   252  TRP252      0.2596
      4  O         13.9260   70.2420   95.7150 O.2   252  TRP252     -0.2718
      5  CB        15.2540   72.6870   94.0690 C.3   252  TRP252      0.0564
      6  CG        15.3120   73.3130   92.6920 C.ar  252  TRP252      0.0003
      7  CD1       14.2660   73.8360   91.9750 C.ar  252  TRP252      0.0946
      8  CD2       16.4670   73.4290   91.8580 C.ar  252  TRP252      0.0152
      9  NE1       14.7120   74.2880   90.7450 N.ar  252  TRP252     -0.2442
     10  CE2       16.0560   74.0480   90.6500 C.ar  252  TRP252      0.0810
     11  CE3       17.8100   73.0810   92.0160 C.ar  252  TRP252      0.0012
     12  CZ2       16.9450   74.3380   89.6160 C.ar  252  TRP252      0.0191
     13  CZ3       18.6910   73.3550   90.9780 C.ar  252  TRP252      0.0001
     14  CH2       18.2540   73.9790   89.7960 C.ar  252  TRP252      0.0015
     15  N         16.1460   70.3810   96.1470 N.am  253  GLY253     -0.1942
     16  CA        16.0970   69.8750   97.5060 C.3   253  GLY253      0.2014
     17  C         15.0540   70.5520   98.3700 C.2   253  GLY253      0.2638
     18  O         14.4100   69.8910   99.1780 O.2   253  GLY253     -0.2714
     19  N         14.8520   71.8530   98.1740 N.am  254  LYS254     -0.1977
     20  CA        13.8690   72.5770   98.9970 C.3   254  LYS254      0.1596
     21  C         12.4510   72.0140   98.9080 C.2   254  LYS254      0.2287
     22  O         11.7110   72.0960   99.8780 O.2   254  LYS254     -0.2864
     23  CB        13.8720   74.1000   98.7620 C.3   254  LYS254      0.0298
     24  CG        13.2670   74.8840   99.9570 C.3   254  LYS254      0.0038
     25  CD        14.2100   74.8410  101.1760 C.3   254  LYS254      0.0206
     26  CE        13.4920   75.1110  102.4610 C.3   254  LYS254      0.1093
     27  NZ        12.8890   76.4810  102.4220 N.3   254  LYS254     -0.1314
     28  N         12.2030   69.5040  101.6400 N.3   257  TRP257     -0.1241
     29  CA        12.3070   70.2480  102.9060 C.3   257  TRP257      0.1605
     30  C         10.9620   70.8530  103.3000 C.2   257  TRP257      0.2264
     31  O         10.7360   71.1550  104.4740 O.2   257  TRP257     -0.2867
     32  CB        13.2430   71.4460  102.7360 C.3   257  TRP257      0.0550
     33  CG        14.7300   71.1910  102.7670 C.ar  257  TRP257      0.0003
     34  CD1       15.4480   70.2780  102.0310 C.ar  257  TRP257      0.0946
     35  CD2       15.6830   71.9150  103.5480 C.ar  257  TRP257      0.0152
     36  NE1       16.7990   70.3890  102.3230 N.ar  257  TRP257     -0.2442
     37  CE2       16.9660   71.3810  103.2550 C.ar  257  TRP257      0.0810
     38  CE3       15.5760   72.9610  104.4810 C.ar  257  TRP257      0.0012
     39  CZ2       18.1370   71.8650  103.8590 C.ar  257  TRP257      0.0191
     40  CZ3       16.7400   73.4510  105.0710 C.ar  257  TRP257      0.0001
     41  CH2       18.0050   72.8940  104.7650 C.ar  257  TRP257      0.0015
     42  N         14.6020   81.2720  103.5010 N.3   324  ALA324     -0.1231
     43  CA        15.9310   80.7070  103.2630 C.3   324  ALA324      0.1694
     44  C         16.3050   80.8490  101.7960 C.2   324  ALA324      0.2592
     45  O         15.4260   80.9450  100.9390 O.2   324  ALA324     -0.2718
     46  CB        15.9770   79.2360  103.6780 C.3   324  ALA324      0.0304
     47  N         17.6040   80.8590  101.5090 N.am  325  GLY325     -0.1957
     48  CA        18.0850   80.7550  100.1250 C.3   325  GLY325      0.1869
     49  C         18.9140   81.9100   99.5980 C.2   325  GLY325      0.2309
     50  O         19.8120   81.7070   98.7830 O.2   325  GLY325     -0.2863
     51  N         16.3820   80.3630  108.1400 N.3   347  GLY347     -0.1210
     52  CA        17.0700   79.0980  108.3710 C.3   347  GLY347      0.1956
     53  C         18.0540   78.8170  107.2510 C.2   347  GLY347      0.2612
     54  O         18.0750   79.5170  106.2210 O.2   347  GLY347     -0.2717
     55  N         18.8530   77.7700  107.4310 N.am  348  PHE348     -0.1962
     56  CA        19.9950   77.5280  106.5560 C.3   348  PHE348      0.1771
     57  C         20.3230   76.0430  106.4640 C.2   348  PHE348      0.2620
     58  O         20.1640   75.2890  107.4280 O.2   348  PHE348     -0.2715
     59  CB        21.2120   78.3080  107.0950 C.3   348  PHE348      0.0574
     60  CG        22.4900   78.1170  106.3010 C.ar  348  PHE348     -0.0200
     61  CD1       22.7630   78.9180  105.1940 C.ar  348  PHE348     -0.0042
     62  CD2       23.4280   77.1590  106.6870 C.ar  348  PHE348     -0.0042
     63  CE1       23.9490   78.7620  104.4660 C.ar  348  PHE348     -0.0003
     64  CE2       24.6170   76.9930  105.9680 C.ar  348  PHE348     -0.0003
     65  CZ        24.8760   77.7950  104.8550 C.ar  348  PHE348     -0.0000
     66  N         20.8060   75.6360  105.2970 N.am  349  GLY349     -0.1940
     67  CA        21.3590   74.3040  105.1410 C.3   349  GLY349      0.2014
     68  C         21.8120   74.1060  103.7130 C.2   349  GLY349      0.2639
     69  O         22.0960   75.0730  102.9940 O.2   349  GLY349     -0.2714
     70  N         21.8010   72.8550  103.2820 N.am  350  GLN350     -0.1963
     71  CA        22.4920   72.4580  102.0630 C.3   350  GLN350      0.1733
     72  C         21.7800   71.2390  101.5030 C.2   350  GLN350      0.2617
     73  O         21.0880   70.5600  102.2420 O.2   350  GLN350     -0.2715
     74  CB        23.8800   72.0160  102.5280 C.3   350  GLN350      0.0408
     75  CG        24.8980   72.1010  101.5430 C.3   350  GLN350      0.0908
     76  CD        26.2600   72.0650  102.1670 C.2   350  GLN350      0.2608
     77  OE1       26.5740   71.2050  103.0010 O.2   350  GLN350     -0.2717
     78  NE2       27.0780   73.0040  101.7670 N.am  350  GLN350     -0.0878
     79  N         21.9510   70.9510  100.2090 N.am  351  THR351     -0.1951
     80  CA        21.4590   69.7000   99.6300 C.3   351  THR351      0.1897
     81  C         21.8550   68.4780  100.4840 C.2   351  THR351      0.2313
     82  O         21.0360   67.5740  100.7040 O.2   351  THR351     -0.2863
     83  CB        21.9840   69.5340   98.1800 C.3   351  THR351      0.1794
     84  OG1       21.6500   70.7060   97.4380 O.3   351  THR351     -0.2208
     85  CG2       21.3770   68.3100   97.4830 C.3   351  THR351      0.0378
     86  N         26.4850   81.4620   94.2400 N.3   454  LYS454     -0.1245
     87  CA        25.0850   81.4070   94.6390 C.3   454  LYS454      0.1561
     88  C         24.3740   82.6420   94.1150 C.2   454  LYS454      0.2260
     89  O         24.5960   83.7590   94.6070 O.2   454  LYS454     -0.2867
     90  CB        24.9390   81.3220   96.1680 C.3   454  LYS454      0.0271
     91  CG        25.3210   80.0030   96.7220 C.3   454  LYS454      0.0035
     92  CD        24.7790   79.9080   98.1130 C.3   454  LYS454      0.0206
     93  CE        25.3440   78.7530   98.9300 C.3   454  LYS454      0.1093
     94  NZ        24.9080   78.8220  100.3410 N.3   454  LYS454     -0.1314
     95  N         19.3930   82.1500   94.9940 N.3   457  GLY457     -0.1225
     96  CA        18.9320   80.8280   95.3750 C.3   457  GLY457      0.1811
     97  C         19.6710   79.6900   94.6900 C.2   457  GLY457      0.2280
     98  O         19.7820   78.6100   95.2560 O.2   457  GLY457     -0.2866
     99  N         22.6690   77.5060   93.2090 N.3   459  LYS459     -0.1245
    100  CA        24.0620   77.1430   93.3850 C.3   459  LYS459      0.1561
    101  C         24.6100   76.7470   92.0060 C.2   459  LYS459      0.2260
    102  O         24.0350   75.8980   91.3190 O.2   459  LYS459     -0.2867
    103  CB        24.1540   76.0050   94.4100 C.3   459  LYS459      0.0271
    104  CG        25.5410   75.6420   94.9090 C.3   459  LYS459      0.0035
    105  CD        25.4530   74.7980   96.1910 C.3   459  LYS459      0.0206
    106  CE        26.7440   74.0100   96.4620 C.3   459  LYS459      0.1093
    107  NZ        26.8490   73.5480   97.8950 N.3   459  LYS459     -0.1314
@<TRIPOS>BOND
     1    12    14   ar
     2    12    10   ar
     3    14    13   ar
     4    10     9   ar
     5    10     8   ar
     6     9     7   ar
     7    13    11   ar
     8   102   101    2
     9     8    11   ar
    10     8     6   ar
    11     7     6   ar
    12   101   100    1
    13     6     5    1
    14     1     2    1
    15    99   100    1
    16   100   103    1
    17     2     5    1
    18     2     3    1
    19    88    89    2
    20    88    87    1
    21    86    87    1
    22   103   104    1
    23    87    90    1
    24    97    98    2
    25    97    96    1
    26   104   105    1
    27    95    96    1
    28     3     4    2
    29     3    15   am
    30    15    16    1
    31    90    91    1
    32   105   106    1
    33   106   107    1
    34    91    92    1
    35    84    83    1
    36    85    83    1
    37    16    17    1
    38    92    93    1
    39    19    17   am
    40    19    20    1
    41    83    80    1
    42    17    18    2
    43    23    20    1
    44    23    24    1
    45    50    49    2
    46    21    20    1
    47    21    22    2
    48    93    94    1
    49    49    48    1
    50    80    79    1
    51    80    81    1
    52    24    25    1
    53    48    47    1
    54    79    72   am
    55    81    82    2
    56    45    44    2
    57    25    26    1
    58    72    71    1
    59    72    73    2
    60    47    44   am
    61    75    76    1
    62    75    74    1
    63    28    29    1
    64    78    76   am
    65    44    43    1
    66    34    36   ar
    67    34    33   ar
    68    71    74    1
    69    71    70    1
    70    76    77    2
    71    36    37   ar
    72    27    26    1
    73    32    33    1
    74    32    29    1
    75    33    35   ar
    76    29    30    1
    77    69    68    2
    78    37    35   ar
    79    37    39   ar
    80    43    42    1
    81    43    46    1
    82    70    68   am
    83    30    31    2
    84    35    38   ar
    85    68    67    1
    86    39    41   ar
    87    63    65   ar
    88    63    61   ar
    89    38    40   ar
    90    41    40   ar
    91    65    64   ar
    92    67    66    1
    93    61    60   ar
    94    66    57   am
    95    64    62   ar
    96    54    53    2
    97    60    62   ar
    98    60    59    1
    99    57    56    1
   100    57    58    2
   101    56    59    1
   102    56    55    1
   103    53    55   am
   104    53    52    1
   105    51    52    1
