@<TRIPOS>MOLECULE
tmp/3etcA04.pdb
 84 84 0 0 0
SMALL
GASTEIGER

@<TRIPOS>ATOM
      1  N         36.4670   57.8330   65.3280 N.3   398  THR398     -0.1203
      2  CA        35.1760   57.1640   65.5090 C.3   398  THR398      0.1994
      3  C         34.0200   57.8870   64.7810 C.2   398  THR398      0.2617
      4  O         32.8510   57.6560   65.0810 O.2   398  THR398     -0.2717
      5  CB        34.8200   57.0540   66.9950 C.3   398  THR398      0.1784
      6  OG1       34.9000   58.3530   67.5880 O.3   398  THR398     -0.2211
      7  CG2       35.7900   56.1170   67.7280 C.3   398  THR398      0.0376
      8  N         34.3520   58.7530   63.8270 N.am  399  MET399     -0.1979
      9  CA        33.3420   59.5820   63.1570 C.3   399  MET399      0.1605
     10  C         32.3190   58.7390   62.3910 C.2   399  MET399      0.2287
     11  O         31.1760   59.1400   62.2470 O.2   399  MET399     -0.2864
     12  CB        34.0010   60.5870   62.2160 C.3   399  MET399      0.0413
     13  CG        34.8320   61.6430   62.9270 C.3   399  MET399      0.0598
     14  SD        35.7210   62.6290   61.7100 S.3   399  MET399     -0.1393
     15  CE        36.7750   63.6330   62.7610 C.3   399  MET399      0.0692
     16  N         32.5780   51.6100   75.8200 N.3   408  VAL408     -0.1231
     17  CA        31.4400   52.5500   75.7130 C.3   408  VAL408      0.1692
     18  C         31.7690   53.8910   76.3780 C.2   408  VAL408      0.2592
     19  O         31.4560   54.9630   75.8440 O.2   408  VAL408     -0.2718
     20  CB        30.1730   51.9530   76.3820 C.3   408  VAL408      0.0266
     21  CG1       28.9840   52.9350   76.3430 C.3   408  VAL408      0.0020
     22  CG2       29.8130   50.6110   75.7200 C.3   408  VAL408      0.0020
     23  N         32.3800   53.8170   77.5580 N.am  409  HIS409     -0.1976
     24  CA        32.6770   55.0020   78.3620 C.3   409  HIS409      0.1656
     25  C         33.4540   54.5880   79.5980 C.2   409  HIS409      0.2291
     26  O         33.6040   53.3920   79.8640 O.2   409  HIS409     -0.2864
     27  CB        31.3840   55.7320   78.7950 C.3   409  HIS409      0.0771
     28  CG        30.3810   54.8620   79.4890 C.ar  409  HIS409      0.0820
     29  ND1       29.0290   55.1310   79.4670 N.ar  409  HIS409     -0.2267
     30  CD2       30.5260   53.7290   80.2210 C.ar  409  HIS409      0.1154
     31  CE1       28.3860   54.2060   80.1570 C.ar  409  HIS409      0.1986
     32  NE2       29.2720   53.3410   80.6220 N.ar  409  HIS409     -0.2212
     33  N         35.2850   60.6530   80.3030 N.3   417  THR417     -0.1203
     34  CA        34.9420   60.1180   78.9760 C.3   417  THR417      0.1994
     35  C         35.0110   61.2090   77.8970 C.2   417  THR417      0.2617
     36  O         35.6560   61.0240   76.8690 O.2   417  THR417     -0.2717
     37  CB        33.5540   59.4420   78.9660 C.3   417  THR417      0.1784
     38  OG1       33.5120   58.4300   79.9760 O.3   417  THR417     -0.2211
     39  CG2       33.2620   58.8030   77.5780 C.3   417  THR417      0.0376
     40  N         34.3720   62.3500   78.1620 N.am  418  GLU418     -0.1979
     41  CA        34.3840   63.4920   77.2440 C.3   418  GLU418      0.1602
     42  C         35.7790   64.1100   77.0660 C.2   418  GLU418      0.2287
     43  O         36.1290   64.5450   75.9690 O.2   418  GLU418     -0.2864
     44  CB        33.3780   64.5510   77.7070 C.3   418  GLU418      0.0415
     45  CG        33.4410   65.8860   76.9730 C.3   418  GLU418      0.1163
     46  CD        32.6530   65.8990   75.6740 C.2   418  GLU418      0.3649
     47  OE1       31.8660   64.9490   75.4200 O.co2 418  GLU418     -0.2457
     48  OE2       32.8180   66.8780   74.9100 O.co2 418  GLU418     -0.2457
     49  N         37.4860   61.4680   74.7330 N.3   421  TRP421     -0.1227
     50  CA        36.7790   61.0660   73.5140 C.3   421  TRP421      0.1737
     51  C         35.8350   62.1790   73.0800 C.2   421  TRP421      0.2595
     52  O         34.7490   62.3330   73.6440 O.2   421  TRP421     -0.2718
     53  CB        35.9900   59.7910   73.8000 C.3   421  TRP421      0.0564
     54  CG        35.4880   59.0290   72.6140 C.ar  421  TRP421      0.0003
     55  CD1       35.4940   59.4130   71.2950 C.ar  421  TRP421      0.0946
     56  CD2       34.8650   57.7510   72.6560 C.ar  421  TRP421      0.0152
     57  NE1       34.9170   58.4330   70.5180 N.ar  421  TRP421     -0.2442
     58  CE2       34.5240   57.4030   71.3330 C.ar  421  TRP421      0.0810
     59  CE3       34.5720   56.8480   73.6920 C.ar  421  TRP421      0.0012
     60  CZ2       33.9000   56.1930   71.0180 C.ar  421  TRP421      0.0191
     61  CZ3       33.9520   55.6470   73.3730 C.ar  421  TRP421      0.0001
     62  CH2       33.6220   55.3350   72.0520 C.ar  421  TRP421      0.0015
     63  N         36.2550   62.9570   72.0890 N.am  422  HIS422     -0.1961
     64  CA        35.5040   64.1300   71.6670 C.3   422  HIS422      0.1787
     65  C         35.8890   64.5000   70.2350 C.2   422  HIS422      0.2620
     66  O         36.9720   64.1380   69.7610 O.2   422  HIS422     -0.2715
     67  CB        35.7870   65.3040   72.6200 C.3   422  HIS422      0.0785
     68  CG        37.2410   65.6290   72.7480 C.ar  422  HIS422      0.0821
     69  ND1       37.8560   66.5960   71.9800 N.ar  422  HIS422     -0.2267
     70  CD2       38.2100   65.0890   73.5230 C.ar  422  HIS422      0.1154
     71  CE1       39.1400   66.6430   72.2840 C.ar  422  HIS422      0.1986
     72  NE2       39.3800   65.7390   73.2170 N.ar  422  HIS422     -0.2212
     73  N         34.9920   65.2030   69.5420 N.am  423  ASP423     -0.1957
     74  CA        35.2650   65.7200   68.1920 C.3   423  ASP423      0.1840
     75  C         35.6720   64.6330   67.1950 C.2   423  ASP423      0.2622
     76  O         36.4730   64.8700   66.2930 O.2   423  ASP423     -0.2715
     77  CB        36.3210   66.8270   68.2670 C.3   423  ASP423      0.1450
     78  CG        35.8920   67.9730   69.1760 C.2   423  ASP423      0.3671
     79  OD1       36.6140   68.2840   70.1510 O.co2 423  ASP423     -0.2456
     80  OD2       34.8120   68.5490   68.9190 O.co2 423  ASP423     -0.2456
     81  N         35.1370   63.4290   67.3830 N.am  424  GLY424     -0.1954
     82  CA        35.3880   62.3110   66.4790 C.3   424  GLY424      0.1869
     83  C         36.6110   61.4370   66.7380 C.2   424  GLY424      0.2309
     84  O         36.9150   60.5480   65.9190 O.2   424  GLY424     -0.2863
@<TRIPOS>BOND
     1    14    15    1
     2    14    13    1
     3    12    13    1
     4    12     9    1
     5    11    10    2
     6    10     9    1
     7     9     8    1
     8     8     3   am
     9     3     4    2
    10     3     2    1
    11     1     2    1
    12     2     5    1
    13    84    83    2
    14    76    75    2
    15    82    83    1
    16    82    81    1
    17     5     6    1
    18     5     7    1
    19    75    81   am
    20    75    74    1
    21    74    77    1
    22    74    73    1
    23    77    78    1
    24    80    78   ar
    25    78    79   ar
    26    73    65   am
    27    66    65    2
    28    65    64    1
    29    57    55   ar
    30    57    58   ar
    31    60    58   ar
    32    60    62   ar
    33    55    54   ar
    34    58    56   ar
    35    64    63    1
    36    64    67    1
    37    69    71   ar
    38    69    68   ar
    39    62    61   ar
    40    63    51   am
    41    71    72   ar
    42    54    56   ar
    43    54    53    1
    44    67    68    1
    45    56    59   ar
    46    68    70   ar
    47    51    50    1
    48    51    52    2
    49    72    70   ar
    50    61    59   ar
    51    50    53    1
    52    50    49    1
    53    48    46   ar
    54    47    46   ar
    55    46    45    1
    56    17    16    1
    57    17    18    1
    58    17    20    1
    59    22    20    1
    60    19    18    2
    61    43    42    2
    62    21    20    1
    63    18    23   am
    64    36    35    2
    65    45    44    1
    66    42    41    1
    67    41    44    1
    68    41    40    1
    69    23    24    1
    70    39    37    1
    71    35    40   am
    72    35    34    1
    73    24    27    1
    74    24    25    1
    75    27    28    1
    76    37    34    1
    77    37    38    1
    78    34    33    1
    79    29    28   ar
    80    29    31   ar
    81    28    30   ar
    82    25    26    2
    83    31    32   ar
    84    30    32   ar
