@<TRIPOS>MOLECULE
tmp/3etcB02.pdb
 142 142 0 0 0
SMALL
GASTEIGER

@<TRIPOS>ATOM
      1  N          8.1840   69.0720   87.6390 N.3    94  LYS94      -0.1231
      2  CA         7.7700   70.4050   88.1180 C.3    94  LYS94       0.1693
      3  C          6.9500   70.2660   89.3970 C.2    94  LYS94       0.2592
      4  O          7.4230   69.6680   90.3600 O.2    94  LYS94      -0.2718
      5  CB         7.0040   71.1870   87.0410 C.3    94  LYS94       0.0285
      6  CG         7.7560   71.3210   85.7450 C.3    94  LYS94       0.0035
      7  CD         7.8090   72.7570   85.2560 C.3    94  LYS94       0.0206
      8  CE         6.4990   73.3010   84.7660 C.3    94  LYS94       0.1093
      9  NZ         6.7100   74.6800   84.2000 N.3    94  LYS94      -0.1314
     10  N          5.7180   70.7610   89.4180 N.am   95  SER95      -0.1952
     11  CA         4.8550   70.4690   90.5780 C.3    95  SER95       0.1924
     12  C          3.5870   69.6780   90.2540 C.2    95  SER95       0.2314
     13  O          2.5640   69.8290   90.9310 O.2    95  SER95      -0.2863
     14  CB         4.5300   71.7500   91.3460 C.3    95  SER95       0.2116
     15  OG         5.7240   72.2560   91.9090 O.3    95  SER95      -0.2180
     16  N         12.9860   70.9210   85.3460 N.3   118  HIS118     -0.1241
     17  CA        12.5290   70.9010   83.9650 C.3   118  HIS118      0.1621
     18  C         13.4050   71.7670   83.0690 C.2   118  HIS118      0.2264
     19  O         13.3000   71.6940   81.8510 O.2   118  HIS118     -0.2867
     20  CB        11.0710   71.3900   83.8720 C.3   118  HIS118      0.0745
     21  CG        10.9140   72.8680   84.0730 C.ar  118  HIS118      0.0817
     22  ND1       11.0430   73.4700   85.3060 N.ar  118  HIS118     -0.2268
     23  CD2       10.6250   73.8630   83.1990 C.ar  118  HIS118      0.1154
     24  CE1       10.8490   74.7700   85.1840 C.ar  118  HIS118      0.1986
     25  NE2       10.5940   75.0350   83.9170 N.ar  118  HIS118     -0.2212
     26  N          2.9070   75.7440  103.1500 N.3   245  TYR245     -0.1227
     27  CA         3.2790   76.1060  101.7870 C.3   245  TYR245      0.1736
     28  C          4.7480   76.5280  101.7020 C.2   245  TYR245      0.2596
     29  O          5.1290   77.5960  102.1890 O.2   245  TYR245     -0.2718
     30  CB         2.3560   77.2190  101.2950 C.3   245  TYR245      0.0548
     31  CG         2.4550   77.5970   99.8170 C.ar  245  TYR245     -0.0200
     32  CD1        2.9460   76.7070   98.8600 C.ar  245  TYR245     -0.0009
     33  CD2        1.9880   78.8330   99.3830 C.ar  245  TYR245     -0.0009
     34  CE1        3.0160   77.0650   97.5010 C.ar  245  TYR245      0.0417
     35  CE2        2.0520   79.2040   98.0430 C.ar  245  TYR245      0.0417
     36  CZ         2.5520   78.3150   97.1090 C.ar  245  TYR245      0.1957
     37  OH         2.5900   78.7050   95.7930 O.3   245  TYR245     -0.2866
     38  N          5.5810   75.6700  101.1090 N.am  246  THR246     -0.1939
     39  CA         6.9360   76.0770  100.7290 C.3   246  THR246      0.2028
     40  C          6.9140   76.3030   99.2150 C.2   246  THR246      0.2642
     41  O          6.4190   75.4650   98.4640 O.2   246  THR246     -0.2714
     42  CB         8.0100   75.0270  101.1190 C.3   246  THR246      0.1808
     43  OG1        8.2050   75.0240  102.5390 O.3   246  THR246     -0.2208
     44  CG2        9.3610   75.3330  100.4520 C.3   246  THR246      0.0379
     45  N          7.4110   77.4540   98.7750 N.am  247  VAL247     -0.1963
     46  CA         7.5080   77.7250   97.3440 C.3   247  VAL247      0.1727
     47  C          8.8150   77.0930   96.8690 C.2   247  VAL247      0.2616
     48  O          9.8940   77.6000   97.1860 O.2   247  VAL247     -0.2715
     49  CB         7.4850   79.2490   97.0360 C.3   247  VAL247      0.0290
     50  CG1        7.5790   79.4960   95.5220 C.3   247  VAL247      0.0023
     51  CG2        6.2280   79.9040   97.6300 C.3   247  VAL247      0.0023
     52  N          8.7110   75.9640   96.1620 N.am  248  ALA248     -0.1963
     53  CA         9.8810   75.2290   95.6550 C.3   248  ALA248      0.1728
     54  C          9.4710   74.2430   94.5620 C.2   248  ALA248      0.2616
     55  O          8.5360   73.4530   94.7350 O.2   248  ALA248     -0.2715
     56  CB        10.5780   74.4580   96.7950 C.3   248  ALA248      0.0334
     57  N         10.1960   74.2590   93.4600 N.am  249  ASP249     -0.1971
     58  CA        10.0000   73.2710   92.4050 C.3   249  ASP249      0.1709
     59  C         10.5740   71.9010   92.8140 C.2   249  ASP249      0.2293
     60  O         11.6190   71.8360   93.4610 O.2   249  ASP249     -0.2864
     61  CB        10.6600   73.7580   91.1200 C.3   249  ASP249      0.1436
     62  CG        10.4130   72.8170   89.9560 C.2   249  ASP249      0.3671
     63  OD1        9.3080   72.8870   89.3540 O.co2 249  ASP249     -0.2456
     64  OD2       11.3300   72.0160   89.6560 O.co2 249  ASP249     -0.2456
     65  N          7.6300   70.2480  101.3100 N.3   259  LYS259     -0.1245
     66  CA         6.4070   69.7340  100.6620 C.3   259  LYS259      0.1561
     67  C          6.2560   68.2160  100.7950 C.2   259  LYS259      0.2260
     68  O          5.5160   67.5680  100.0340 O.2   259  LYS259     -0.2867
     69  CB         6.3740   70.1480   99.1810 C.3   259  LYS259      0.0271
     70  CG         6.7810   71.6060   98.9180 C.3   259  LYS259      0.0035
     71  CD         6.5760   72.0120   97.4660 C.3   259  LYS259      0.0206
     72  CE         5.1110   72.3280   97.1920 C.3   259  LYS259      0.1093
     73  NZ         4.7600   73.7260   97.5380 N.3   259  LYS259     -0.1314
     74  N          0.3300   72.6600   97.1700 N.3   272  VAL272     -0.1231
     75  CA         1.0890   72.6100   95.9270 C.3   272  VAL272      0.1692
     76  C          0.3290   73.4100   94.8690 C.2   272  VAL272      0.2592
     77  O         -0.8160   73.0970   94.5390 O.2   272  VAL272     -0.2718
     78  CB         1.3000   71.1550   95.4180 C.3   272  VAL272      0.0266
     79  CG1        2.1680   71.1440   94.1410 C.3   272  VAL272      0.0020
     80  CG2        1.9240   70.2670   96.4950 C.3   272  VAL272      0.0020
     81  N          0.9700   74.4450   94.3500 N.am  273  TYR273     -0.1962
     82  CA         0.3750   75.2750   93.3220 C.3   273  TYR273      0.1771
     83  C          1.2530   75.1700   92.0750 C.2   273  TYR273      0.2620
     84  O          2.3220   75.7720   91.9860 O.2   273  TYR273     -0.2715
     85  CB         0.1820   76.7080   93.8500 C.3   273  TYR273      0.0574
     86  CG        -0.2590   77.7650   92.8390 C.ar  273  TYR273     -0.0198
     87  CD1       -0.9820   77.4290   91.6880 C.ar  273  TYR273     -0.0009
     88  CD2        0.0430   79.1140   93.0550 C.ar  273  TYR273     -0.0009
     89  CE1       -1.3780   78.4170   90.7670 C.ar  273  TYR273      0.0417
     90  CE2       -0.3470   80.0990   92.1480 C.ar  273  TYR273      0.0417
     91  CZ        -1.0560   79.7420   91.0150 C.ar  273  TYR273      0.1957
     92  OH        -1.4230   80.7210   90.1260 O.3   273  TYR273     -0.2866
     93  N          0.8020   74.3500   91.1310 N.am  274  ASP274     -0.1957
     94  CA         1.5900   73.9890   89.9570 C.3   274  ASP274      0.1840
     95  C          1.3710   75.0160   88.8440 C.2   274  ASP274      0.2622
     96  O          0.7170   74.7230   87.8330 O.2   274  ASP274     -0.2715
     97  CB         1.1910   72.5800   89.4990 C.3   274  ASP274      0.1450
     98  CG         2.0960   72.0200   88.4000 C.2   274  ASP274      0.3671
     99  OD1        3.2730   72.4170   88.3080 O.co2 274  ASP274     -0.2456
    100  OD2        1.6280   71.1430   87.6460 O.co2 274  ASP274     -0.2456
    101  N          1.8970   76.2250   89.0420 N.am  275  TYR275     -0.1960
    102  CA         1.7750   77.2820   88.0390 C.3   275  TYR275      0.1771
    103  C          2.9330   77.2540   87.0370 C.2   275  TYR275      0.2620
    104  O          3.9700   76.6240   87.2850 O.2   275  TYR275     -0.2715
    105  CB         1.6680   78.6610   88.7010 C.3   275  TYR275      0.0574
    106  CG         2.8580   79.0490   89.5570 C.ar  275  TYR275     -0.0198
    107  CD1        2.8160   78.9050   90.9430 C.ar  275  TYR275     -0.0009
    108  CD2        4.0240   79.5610   88.9830 C.ar  275  TYR275     -0.0009
    109  CE1        3.8880   79.2590   91.7330 C.ar  275  TYR275      0.0417
    110  CE2        5.1110   79.9260   89.7750 C.ar  275  TYR275      0.0417
    111  CZ         5.0300   79.7690   91.1520 C.ar  275  TYR275      0.1957
    112  OH         6.0980   80.1160   91.9440 O.3   275  TYR275     -0.2866
    113  N          2.7560   77.9530   85.9130 N.am  276  ASP276     -0.1957
    114  CA         3.8070   78.0680   84.8950 C.3   276  ASP276      0.1840
    115  C          4.5300   79.4060   84.9780 C.2   276  ASP276      0.2622
    116  O          5.7460   79.4750   84.8180 O.2   276  ASP276     -0.2715
    117  CB         3.2280   77.8390   83.5000 C.3   276  ASP276      0.1450
    118  CG         2.6880   76.4260   83.3230 C.2   276  ASP276      0.3671
    119  OD1        3.4970   75.4700   83.3920 O.co2 276  ASP276     -0.2456
    120  OD2        1.4570   76.2750   83.1340 O.co2 276  ASP276     -0.2456
    121  N          3.7810   80.4670   85.2510 N.am  277  ARG277     -0.1963
    122  CA         4.3540   81.8000   85.3740 C.3   277  ARG277      0.1729
    123  C          4.0490   82.3360   86.7680 C.2   277  ARG277      0.2616
    124  O          2.8750   82.4560   87.1400 O.2   277  ARG277     -0.2715
    125  CB         3.7630   82.7300   84.3160 C.3   277  ARG277      0.0348
    126  CG         4.3920   84.1310   84.4100 C.3   277  ARG277      0.0492
    127  CD         3.7980   85.1030   83.4540 C.3   277  ARG277      0.2205
    128  NE         2.3310   85.2090   83.5690 N.pl3 277  ARG277     -0.0865
    129  CZ         1.7390   86.0230   84.4540 C.cat 277  ARG277      0.5346
    130  NH1        2.4880   86.7450   85.2740 N.pl3 277  ARG277      0.1354
    131  NH2        0.4250   86.0880   84.5220 N.pl3 277  ARG277      0.1354
    132  N          5.0920   82.6560   87.5360 N.am  278  PHE278     -0.1974
    133  CA         4.8860   83.2350   88.8620 C.3   278  PHE278      0.1639
    134  C          4.1640   84.5490   88.7490 C.2   278  PHE278      0.2290
    135  O          4.6300   85.4780   88.0730 O.2   278  PHE278     -0.2864
    136  CB         6.1980   83.4340   89.6360 C.3   278  PHE278      0.0560
    137  CG         6.0360   84.2610   90.9010 C.ar  278  PHE278     -0.0200
    138  CD1        5.6030   83.6730   92.0880 C.ar  278  PHE278     -0.0042
    139  CD2        6.2900   85.6300   90.8910 C.ar  278  PHE278     -0.0042
    140  CE1        5.4430   84.4350   93.2520 C.ar  278  PHE278     -0.0003
    141  CE2        6.1270   86.3990   92.0420 C.ar  278  PHE278     -0.0003
    142  CZ         5.7080   85.8010   93.2260 C.ar  278  PHE278     -0.0000
@<TRIPOS>BOND
     1    19    18    2
     2    18    17    1
     3   120   118   ar
     4    23    25   ar
     5    23    21   ar
     6   118   119   ar
     7   118   117    1
     8   127   128    1
     9   127   126    1
    10   117   114    1
    11   128   129    2
    12    20    17    1
    13    20    21    1
    14    25    24   ar
    15    17    16    1
    16    21    22   ar
    17     9     8    1
    18   125   126    1
    19   125   122    1
    20   129   131    1
    21   129   130    1
    22     8     7    1
    23   116   115    2
    24   114   115    1
    25   114   113    1
    26   115   121   am
    27    24    22   ar
    28   121   122    1
    29     7     6    1
    30   122   123    1
    31     6     5    1
    32   113   103   am
    33   123   124    2
    34   123   132   am
    35   103   104    2
    36   103   102    1
    37     5     2    1
    38   132   133    1
    39     1     2    1
    40   100    98   ar
    41    96    95    2
    42   102   105    1
    43   102   101    1
    44   135   134    2
    45     2     3    1
    46    99    98   ar
    47    98    97    1
    48   105   106    1
    49   134   133    1
    50    95   101   am
    51    95    94    1
    52   133   136    1
    53   108   106   ar
    54   108   110   ar
    55    63    62   ar
    56     3    10   am
    57     3     4    2
    58    10    11    1
    59    97    94    1
    60   106   107   ar
    61   136   137    1
    62    64    62   ar
    63   110   111   ar
    64    62    61    1
    65    94    93    1
    66    92    91    1
    67    12    11    1
    68    12    13    2
    69    11    14    1
    70    89    91   ar
    71    89    87   ar
    72   139   137   ar
    73   139   141   ar
    74   137   138   ar
    75   107   109   ar
    76    91    90   ar
    77    61    58    1
    78    93    83   am
    79   111   109   ar
    80   111   112    1
    81    14    15    1
    82    87    86   ar
    83    84    83    2
    84   141   142   ar
    85    83    82    1
    86   138   140   ar
    87    90    88   ar
    88    58    59    1
    89    58    57    1
    90    59    60    2
    91    86    88   ar
    92    86    85    1
    93   142   140   ar
    94    82    85    1
    95    82    81    1
    96    57    54   am
    97    79    78    1
    98    81    76   am
    99    77    76    2
   100    54    55    2
   101    54    53    1
   102    76    75    1
   103    78    75    1
   104    78    80    1
   105    50    49    1
   106    53    52    1
   107    53    56    1
   108    37    36    1
   109    75    74    1
   110    52    47   am
   111    47    48    2
   112    47    46    1
   113    49    46    1
   114    49    51    1
   115    36    34   ar
   116    36    35   ar
   117    72    71    1
   118    72    73    1
   119    46    45    1
   120    71    70    1
   121    34    32   ar
   122    35    33   ar
   123    41    40    2
   124    45    40   am
   125    32    31   ar
   126    70    69    1
   127    69    66    1
   128    40    39    1
   129    33    31   ar
   130    31    30    1
   131    68    67    2
   132    44    42    1
   133    66    67    1
   134    66    65    1
   135    39    38    1
   136    39    42    1
   137    38    28   am
   138    42    43    1
   139    30    27    1
   140    28    27    1
   141    28    29    2
   142    27    26    1
