@<TRIPOS>MOLECULE
tmp/3etdB02.pdb
 136 129 0 0 0
SMALL
GASTEIGER

@<TRIPOS>ATOM
      1  N         24.3580   43.7900  100.2360 N.3   203  ILE203     -0.1245
      2  CA        23.3160   43.4610  101.1980 C.3   203  ILE203      0.1561
      3  C         23.6610   42.2920  102.1300 C.2   203  ILE203      0.2260
      4  O         23.3410   42.3210  103.3240 O.2   203  ILE203     -0.2867
      5  CB        21.9910   43.1830  100.4690 C.3   203  ILE203      0.0252
      6  CG1       21.5770   44.4410   99.7030 C.3   203  ILE203      0.0019
      7  CG2       20.8960   42.7990  101.4710 C.3   203  ILE203      0.0019
      8  CD1       20.3540   44.2660   98.8120 C.3   203  ILE203      0.0001
      9  N         18.9580   47.5530  101.5820 N.3   209  HIS209     -0.1226
     10  CA        18.1310   47.4770  100.3800 C.3   209  HIS209      0.1752
     11  C         18.1000   48.8030   99.6250 C.2   209  HIS209      0.2596
     12  O         18.0190   49.8740  100.2280 O.2   209  HIS209     -0.2718
     13  CB        16.7000   47.0980  100.7540 C.3   209  HIS209      0.0759
     14  CG        15.7880   46.9520   99.5740 C.ar  209  HIS209      0.0818
     15  ND1       15.4990   45.7320   99.0030 N.ar  209  HIS209     -0.2268
     16  CD2       15.1400   47.8820   98.8280 C.ar  209  HIS209      0.1154
     17  CE1       14.7080   45.9140   97.9580 C.ar  209  HIS209      0.1986
     18  NE2       14.4760   47.2100   97.8290 N.ar  209  HIS209     -0.2212
     19  N         18.1750   48.7310   98.3060 N.am  210  GLY210     -0.1957
     20  CA        18.1080   49.9330   97.4980 C.3   210  GLY210      0.1869
     21  C         19.1970   50.9860   97.6100 C.2   210  GLY210      0.2309
     22  O         18.9820   52.1260   97.1950 O.2   210  GLY210     -0.2863
     23  N         22.1910   50.8160   96.0630 N.3   212  ILE212     -0.1231
     24  CA        22.7850   50.9370   94.7430 C.3   212  ILE212      0.1692
     25  C         21.9910   51.9110   93.8640 C.2   212  ILE212      0.2592
     26  O         22.5660   52.7900   93.2260 O.2   212  ILE212     -0.2718
     27  CB        22.8750   49.5460   94.0410 C.3   212  ILE212      0.0266
     28  CG1       23.8840   48.6610   94.7750 C.3   212  ILE212      0.0019
     29  CG2       23.3300   49.7290   92.5870 C.3   212  ILE212      0.0020
     30  CD1       23.9530   47.2500   94.2570 C.3   212  ILE212      0.0001
     31  N         20.6740   51.7520   93.8520 N.am  213  SER213     -0.1952
     32  CA        19.8150   52.6140   93.0590 C.3   213  SER213      0.1924
     33  C         19.3130   53.8270   93.8380 C.2   213  SER213      0.2314
     34  O         18.5180   54.6090   93.3260 O.2   213  SER213     -0.2863
     35  CB        18.6310   51.8010   92.5470 C.3   213  SER213      0.2116
     36  OG        17.8320   51.3070   93.6070 O.3   213  SER213     -0.2180
     37  N         16.8980   56.9430   92.4220 N.3   217  ARG217     -0.1245
     38  CA        15.5700   57.0930   93.0120 C.3   217  ARG217      0.1563
     39  C         15.4340   58.5130   93.5570 C.2   217  ARG217      0.2260
     40  O         14.3960   59.1680   93.3960 O.2   217  ARG217     -0.2867
     41  CB        15.3810   56.0580   94.1330 C.3   217  ARG217      0.0307
     42  CG        13.9300   55.6730   94.4410 C.3   217  ARG217      0.0489
     43  CD        13.8580   54.4290   95.3890 C.3   217  ARG217      0.2205
     44  NE        12.6790   53.6080   95.1150 N.pl3 217  ARG217     -0.0865
     45  CZ        11.4830   53.8320   95.6330 C.cat 217  ARG217      0.5346
     46  NH1       11.2850   54.8820   96.4200 N.pl3 217  ARG217      0.1354
     47  NH2       10.4610   53.0580   95.2990 N.pl3 217  ARG217      0.1354
     48  N         22.3210   55.1720   85.2130 N.3   257  LEU257     -0.1231
     49  CA        21.4700   54.0230   84.9140 C.3   257  LEU257      0.1693
     50  C         20.1760   54.0460   85.6930 C.2   257  LEU257      0.2592
     51  O         19.1010   53.8370   85.1360 O.2   257  LEU257     -0.2718
     52  CB        22.1900   52.6940   85.2060 C.3   257  LEU257      0.0284
     53  CG        21.3120   51.4340   85.3220 C.3   257  LEU257      0.0019
     54  CD1       20.7120   51.0770   83.9730 C.3   257  LEU257      0.0001
     55  CD2       22.1320   50.2740   85.8280 C.3   257  LEU257      0.0001
     56  N         20.2660   54.2930   86.9870 N.am  258  HIS258     -0.1976
     57  CA        19.0570   54.2950   87.7910 C.3   258  HIS258      0.1656
     58  C         18.1980   55.5370   87.6400 C.2   258  HIS258      0.2291
     59  O         16.9770   55.4490   87.7440 O.2   258  HIS258     -0.2864
     60  CB        19.3990   53.9970   89.2500 C.3   258  HIS258      0.0771
     61  CG        19.8870   52.5950   89.4530 C.ar  258  HIS258      0.0820
     62  ND1       21.2070   52.3030   89.7110 N.ar  258  HIS258     -0.2267
     63  CD2       19.2580   51.4030   89.2990 C.ar  258  HIS258      0.1154
     64  CE1       21.3780   50.9920   89.7030 C.ar  258  HIS258      0.1986
     65  NE2       20.2110   50.4230   89.4550 N.ar  258  HIS258     -0.2212
     66  N         16.3140   54.6250   84.7670 N.3   261  ARG261     -0.1231
     67  CA        15.3010   53.6060   85.0700 C.3   261  ARG261      0.1694
     68  C         14.0570   54.2240   85.6990 C.2   261  ARG261      0.2592
     69  O         12.9360   53.9610   85.2540 O.2   261  ARG261     -0.2718
     70  CB        15.8340   52.5140   86.0230 C.3   261  ARG261      0.0321
     71  CG        16.8700   51.5590   85.4470 C.3   261  ARG261      0.0489
     72  CD        17.3090   50.4940   86.4610 C.3   261  ARG261      0.2205
     73  NE        16.1960   49.6830   86.9610 N.pl3 261  ARG261     -0.0865
     74  CZ        15.7410   49.7040   88.2180 C.cat 261  ARG261      0.5346
     75  NH1       16.2900   50.4980   89.1300 N.pl3 261  ARG261      0.1354
     76  NH2       14.7190   48.9390   88.5630 N.pl3 261  ARG261      0.1354
     77  N         14.2460   55.0490   86.7270 N.am  262  TYR262     -0.1976
     78  CA        13.1120   55.6550   87.4150 C.3   262  TYR262      0.1639
     79  C         12.3140   56.6790   86.5930 C.2   262  TYR262      0.2290
     80  O         11.0760   56.6790   86.6490 O.2   262  TYR262     -0.2864
     81  CB        13.5740   56.2460   88.7650 C.3   262  TYR262      0.0560
     82  CG        13.9890   55.1840   89.7870 C.ar  262  TYR262     -0.0198
     83  CD1       15.3290   54.9880   90.1280 C.ar  262  TYR262     -0.0009
     84  CD2       13.0430   54.3450   90.3760 C.ar  262  TYR262     -0.0009
     85  CE1       15.7140   53.9790   91.0280 C.ar  262  TYR262      0.0417
     86  CE2       13.4150   53.3340   91.2740 C.ar  262  TYR262      0.0417
     87  CZ        14.7500   53.1590   91.5930 C.ar  262  TYR262      0.1957
     88  OH        15.1110   52.1600   92.4690 O.3   262  TYR262     -0.2866
     89  N         10.1190   54.9230   84.1960 N.3   265  ARG265     -0.1245
     90  CA         9.0130   54.2550   84.8530 C.3   265  ARG265      0.1563
     91  C          7.7600   55.1070   84.9530 C.2   265  ARG265      0.2260
     92  O          6.6390   54.5990   84.8170 O.2   265  ARG265     -0.2867
     93  CB         9.4100   53.8190   86.2530 C.3   265  ARG265      0.0307
     94  CG         8.2370   53.2790   87.0530 C.3   265  ARG265      0.0489
     95  CD         8.6770   52.8430   88.4070 C.3   265  ARG265      0.2205
     96  NE         9.6960   51.8080   88.3080 N.pl3 265  ARG265     -0.0865
     97  CZ        10.2900   51.2440   89.3530 C.cat 265  ARG265      0.5346
     98  NH1        9.9640   51.6230   90.5860 N.pl3 265  ARG265      0.1354
     99  NH2       11.2060   50.3010   89.1720 N.pl3 265  ARG265      0.1354
    100  N         16.0950   48.8500   80.3720 N.3   289  LYS289     -0.1245
    101  CA        16.4340   47.4390   80.5490 C.3   289  LYS289      0.1561
    102  C         17.2330   46.8700   79.3690 C.2   289  LYS289      0.2260
    103  O         18.2440   46.1980   79.5720 O.2   289  LYS289     -0.2867
    104  CB        15.1680   46.6000   80.7870 C.3   289  LYS289      0.0271
    105  CG        15.4380   45.1300   81.0620 C.3   289  LYS289      0.0035
    106  CD        16.2890   44.9730   82.3240 C.3   289  LYS289      0.0206
    107  CE        16.9050   43.5800   82.4560 C.3   289  LYS289      0.1093
    108  NZ        17.6310   43.4540   83.7520 N.3   289  LYS289     -0.1314
    109  N         20.7800   48.2870   79.2670 N.3   292  GLU292     -0.1245
    110  CA        21.6400   47.7470   80.3070 C.3   292  GLU292      0.1567
    111  C         22.1810   46.3760   79.9100 C.2   292  GLU292      0.2260
    112  O         23.3240   46.0470   80.2190 O.2   292  GLU292     -0.2867
    113  CB        20.8970   47.6560   81.6530 C.3   292  GLU292      0.0388
    114  CG        21.8320   47.3590   82.8310 C.3   292  GLU292      0.1160
    115  CD        21.1210   46.9290   84.1060 C.2   292  GLU292      0.3649
    116  OE1       21.7990   46.3580   84.9870 O.co2 292  GLU292     -0.2457
    117  OE2       19.9000   47.1570   84.2370 O.co2 292  GLU292     -0.2457
    118  N         13.0200   47.5600  103.1710 N.3   446  LYS446     -0.1245
    119  CA        12.7430   48.1590  101.8760 C.3   446  LYS446      0.1561
    120  C         11.7480   49.3130  102.0140 C.2   446  LYS446      0.2260
    121  O         11.9150   50.3730  101.3990 O.2   446  LYS446     -0.2867
    122  CB        12.1810   47.0930  100.9300 C.3   446  LYS446      0.0271
    123  CG        11.7390   47.6410   99.5830 C.3   446  LYS446      0.0035
    124  CD        11.1790   46.5650   98.6690 C.3   446  LYS446      0.0206
    125  CE         9.8580   45.9870   99.1750 C.3   446  LYS446      0.1093
    126  NZ         9.1120   45.2870   98.0760 N.3   446  LYS446     -0.1314
    127  N         12.5490   53.4270  101.0290 N.3   450  HIS450     -0.1241
    128  CA        11.7220   54.1450  100.0580 C.3   450  HIS450      0.1621
    129  C         10.9760   55.3290  100.6340 C.2   450  HIS450      0.2264
    130  O         11.1080   56.4490  100.1480 O.2   450  HIS450     -0.2867
    131  CB        10.7230   53.1860   99.4270 C.3   450  HIS450      0.0745
    132  CG        11.3670   52.1520   98.5670 C.ar  450  HIS450      0.0817
    133  ND1       10.6770   51.0700   98.0560 N.ar  450  HIS450     -0.2268
    134  CD2       12.6460   52.0240   98.1390 C.ar  450  HIS450      0.1154
    135  CE1       11.5060   50.3220   97.3490 C.ar  450  HIS450      0.1986
    136  NE2       12.7050   50.8780   97.3840 N.ar  450  HIS450     -0.2212
@<TRIPOS>BOND
     1   109   110    1
     2   102   103    2
     3   102   101    1
     4   111   112    2
     5   111   110    1
     6   110   113    1
     7   100   101    1
     8   101   104    1
     9   104   105    1
    10   105   106    1
    11   113   114    1
    12   106   107    1
    13   107   108    1
    14   114   115    1
    15    54    53    1
    16   115   117   ar
    17   115   116   ar
    18    89    90    1
    19    66    67    1
    20    92    91    2
    21    90    91    1
    22    90    93    1
    23    49    52    1
    24    49    48    1
    25    49    50    1
    26    67    68    1
    27    67    70    1
    28    51    50    2
    29    52    53    1
    30    69    68    2
    31    53    55    1
    32    71    70    1
    33    71    72    1
    34    50    56   am
    35    68    77   am
    36    93    94    1
    37    72    73    1
    38    79    80    2
    39    79    78    1
    40    77    78    1
    41    73    74    2
    42    56    57    1
    43    94    95    1
    44    78    81    1
    45    58    59    2
    46    58    57    1
    47    57    60    1
    48    74    76    1
    49    74    75    1
    50    96    95    1
    51    96    97    2
    52    81    82    1
    53    99    97    1
    54    60    61    1
    55    63    61   ar
    56    63    65   ar
    57    97    98    1
    58    61    62   ar
    59    65    64   ar
    60    64    62   ar
    61    82    83   ar
    62    82    84   ar
    63    83    85   ar
    64    84    86   ar
    65    85    87   ar
    66    86    87   ar
    67    87    88    1
    68    37    38    1
    69    35    32    1
    70    35    36    1
    71    29    27    1
    72    38    39    1
    73    38    41    1
    74    32    33    1
    75    32    31    1
    76    26    25    2
    77    34    33    2
    78    40    39    2
    79    31    25   am
    80    25    24    1
    81    27    24    1
    82    27    28    1
    83    41    42    1
    84    30    28    1
    85    42    43    1
    86    24    23    1
    87    44    43    1
    88    44    45    2
    89    47    45    1
    90    45    46    1
    91    22    21    2
    92   135   136   ar
    93   135   133   ar
    94   136   134   ar
    95    20    21    1
    96    20    19    1
    97    18    17   ar
    98    18    16   ar
    99    17    15   ar
   100   133   132   ar
   101   126   125    1
   102   134   132   ar
   103    19    11   am
   104   132   131    1
   105   124   125    1
   106   124   123    1
   107     8     6    1
   108    16    14   ar
   109    15    14   ar
   110   131   128    1
   111    14    13    1
   112   123   122    1
   113    11    12    2
   114    11    10    1
   115     6     5    1
   116   128   129    1
   117   128   127    1
   118   130   129    2
   119     1     2    1
   120    10    13    1
   121    10     9    1
   122     5     2    1
   123     5     7    1
   124   122   119    1
   125     2     3    1
   126   121   120    2
   127   119   120    1
   128   119   118    1
   129     3     4    2
