@<TRIPOS>MOLECULE
tmp/3etgA03.pdb
 84 78 0 0 0
SMALL
GASTEIGER

@<TRIPOS>ATOM
      1  N         34.6620   83.6040  132.0480 N.3   139  ASN139     -0.1240
      2  CA        35.9020   83.0030  131.5680 C.3   139  ASN139      0.1653
      3  C         36.4720   82.1010  132.6680 C.2   139  ASN139      0.2266
      4  O         36.9500   80.9950  132.3940 O.2   139  ASN139     -0.2867
      5  CB        36.9080   84.1020  131.1960 C.3   139  ASN139      0.1155
      6  CG        38.2100   83.5540  130.6360 C.2   139  ASN139      0.2627
      7  OD1       38.2240   82.9120  129.5800 O.2   139  ASN139     -0.2716
      8  ND2       39.3210   83.8130  131.3390 N.am  139  ASN139     -0.0877
      9  N         34.3400   78.8300  133.2450 N.3   142  GLU142     -0.1231
     10  CA        34.6310   77.8510  132.2060 C.3   142  GLU142      0.1699
     11  C         35.8900   77.0450  132.5270 C.2   142  GLU142      0.2592
     12  O         35.8920   75.8180  132.4180 O.2   142  GLU142     -0.2718
     13  CB        34.8180   78.5350  130.8520 C.3   142  GLU142      0.0402
     14  CG        34.9770   77.5180  129.7160 C.3   142  GLU142      0.1161
     15  CD        35.0780   78.1550  128.3390 C.2   142  GLU142      0.3649
     16  OE1       34.5740   79.2850  128.1610 O.co2 142  GLU142     -0.2457
     17  OE2       35.6400   77.5140  127.4240 O.co2 142  GLU142     -0.2457
     18  N         36.9550   77.7510  132.8990 N.am  143  LYS143     -0.1980
     19  CA        38.2140   77.1050  133.2630 C.3   143  LYS143      0.1596
     20  C         37.9190   76.1010  134.3740 C.2   143  LYS143      0.2287
     21  O         38.3960   74.9700  134.3630 O.2   143  LYS143     -0.2864
     22  CB        39.2320   78.1210  133.8070 C.3   143  LYS143      0.0298
     23  CG        39.7690   79.1640  132.8370 C.3   143  LYS143      0.0038
     24  CD        41.0930   79.7080  133.3990 C.3   143  LYS143      0.0206
     25  CE        41.5600   80.9810  132.7380 C.3   143  LYS143      0.1093
     26  NZ        41.1910   82.2060  133.5320 N.3   143  LYS143     -0.1314
     27  N         35.6080   73.0870  133.0670 N.3   146  ARG146     -0.1231
     28  CA        36.4100   72.2540  132.1710 C.3   146  ARG146      0.1694
     29  C         37.5270   71.4690  132.8610 C.2   146  ARG146      0.2591
     30  O         37.7750   70.3130  132.5130 O.2   146  ARG146     -0.2718
     31  CB        37.0080   73.1020  131.0620 C.3   146  ARG146      0.0321
     32  CG        36.0040   73.6240  130.0450 C.3   146  ARG146      0.0489
     33  CD        36.7960   74.1790  128.8710 C.3   146  ARG146      0.2205
     34  NE        35.9750   74.7450  127.8030 N.pl3 146  ARG146     -0.0865
     35  CZ        35.4940   74.0620  126.7750 C.cat 146  ARG146      0.5346
     36  NH1       35.7320   72.7660  126.6580 N.pl3 146  ARG146      0.1354
     37  NH2       34.8040   74.6930  125.8380 N.pl3 146  ARG146      0.1354
     38  N         38.1980   72.0990  133.8200 N.am  147  ARG147     -0.1980
     39  CA        39.2720   71.4540  134.5490 C.3   147  ARG147      0.1597
     40  C         38.7090   70.3930  135.4860 C.2   147  ARG147      0.2287
     41  O         39.2920   69.3270  135.6720 O.2   147  ARG147     -0.2864
     42  CB        40.0660   72.5130  135.3200 C.3   147  ARG147      0.0334
     43  CG        41.2110   71.9900  136.1900 C.3   147  ARG147      0.0492
     44  CD        42.0130   70.8770  135.5090 C.3   147  ARG147      0.2205
     45  NE        43.0470   70.3410  136.3890 N.pl3 147  ARG147     -0.0865
     46  CZ        44.2260   70.9220  136.6100 C.cat 147  ARG147      0.5346
     47  NH1       44.5270   72.0690  136.0080 N.pl3 147  ARG147      0.1354
     48  NH2       45.1020   70.3620  137.4440 N.pl3 147  ARG147      0.1354
     49  N         37.9630   67.2810  133.4360 N.3   150  MET150     -0.1245
     50  CA        39.1600   66.5070  133.1570 C.3   150  MET150      0.1570
     51  C         39.6090   65.6930  134.3480 C.2   150  MET150      0.2261
     52  O         40.0230   64.5490  134.1900 O.2   150  MET150     -0.2867
     53  CB        40.3050   67.4210  132.7240 C.3   150  MET150      0.0387
     54  CG        40.3070   67.7460  131.2560 C.3   150  MET150      0.0595
     55  SD        40.7090   66.2830  130.2810 S.3   150  MET150     -0.1393
     56  CE        39.0280   65.6160  129.9750 C.3   150  MET150      0.0692
     57  N         31.8490   69.1960  125.8800 N.3   181  ASP181     -0.1225
     58  CA        32.8920   69.5460  124.9480 C.3   181  ASP181      0.1805
     59  C         34.2640   69.0730  125.4410 C.2   181  ASP181      0.2598
     60  O         35.0520   68.5190  124.6710 O.2   181  ASP181     -0.2718
     61  CB        32.9030   71.0550  124.7340 C.3   181  ASP181      0.1424
     62  CG        33.9530   71.4850  123.7400 C.2   181  ASP181      0.3668
     63  OD1       33.7610   71.2260  122.5240 O.co2 181  ASP181     -0.2456
     64  OD2       34.9710   72.0670  124.1880 O.co2 181  ASP181     -0.2456
     65  N         34.5490   69.2880  126.7230 N.am  182  THR182     -0.1953
     66  CA        35.8290   68.8770  127.2860 C.3   182  THR182      0.1897
     67  C         35.9930   67.3700  127.2050 C.2   182  THR182      0.2313
     68  O         37.0400   66.8770  126.8030 O.2   182  THR182     -0.2863
     69  CB        35.9860   69.3040  128.7630 C.3   182  THR182      0.1794
     70  OG1       35.8860   70.7300  128.8600 O.3   182  THR182     -0.2208
     71  CG2       37.3400   68.8710  129.3030 C.3   182  THR182      0.0378
     72  N         36.2470   66.3620  123.4390 N.3   185  SER185     -0.1202
     73  CA        37.4900   66.8290  122.8080 C.3   185  SER185      0.2020
     74  C         38.7180   66.0680  123.2580 C.2   185  SER185      0.2619
     75  O         39.7680   66.1550  122.6260 O.2   185  SER185     -0.2717
     76  CB        37.7140   68.3340  123.0800 C.3   185  SER185      0.2103
     77  OG        36.7850   69.1140  122.3630 O.3   185  SER185     -0.2182
     78  N         38.5970   65.3220  124.3460 N.am  186  THR186     -0.1952
     79  CA        39.7400   64.5850  124.8510 C.3   186  THR186      0.1897
     80  C         39.5150   63.0810  124.9780 C.2   186  THR186      0.2313
     81  O         39.5330   62.3550  123.9910 O.2   186  THR186     -0.2863
     82  CB        40.1890   65.1560  126.2220 C.3   186  THR186      0.1794
     83  OG1       39.1370   65.0170  127.1770 O.3   186  THR186     -0.2208
     84  CG2       40.5280   66.6330  126.0890 C.3   186  THR186      0.0378
@<TRIPOS>BOND
     1    77    76    1
     2    63    62   ar
     3    75    74    2
     4    73    76    1
     5    73    74    1
     6    73    72    1
     7    74    78   am
     8    62    64   ar
     9    62    61    1
    10    81    80    2
    11    78    79    1
    12    60    59    2
    13    61    58    1
    14    79    80    1
    15    79    82    1
    16    58    59    1
    17    58    57    1
    18    59    65   am
    19    37    35    1
    20    84    82    1
    21    82    83    1
    22    36    35    1
    23    65    66    1
    24    35    34    2
    25    68    67    2
    26    67    66    1
    27    66    69    1
    28    17    15   ar
    29    34    33    1
    30    16    15   ar
    31    15    14    1
    32    69    70    1
    33    69    71    1
    34    33    32    1
    35     7     6    2
    36    14    13    1
    37    56    55    1
    38    32    31    1
    39    55    54    1
    40     6     5    1
    41     6     8   am
    42    13    10    1
    43    31    28    1
    44     5     2    1
    45    54    53    1
    46     2     1    1
    47     2     3    1
    48    28    29    1
    49    28    27    1
    50    10    11    1
    51    10     9    1
    52     4     3    2
    53    12    11    2
    54    30    29    2
    55    11    18   am
    56    53    50    1
    57    25    24    1
    58    25    26    1
    59    23    24    1
    60    23    22    1
    61    29    38   am
    62    18    19    1
    63    50    49    1
    64    50    51    1
    65    19    22    1
    66    19    20    1
    67    38    39    1
    68    52    51    2
    69    21    20    2
    70    39    42    1
    71    39    40    1
    72    42    43    1
    73    40    41    2
    74    44    43    1
    75    44    45    1
    76    47    46    1
    77    45    46    2
    78    46    48    1
