@<TRIPOS>MOLECULE
tmp/3etgD02.pdb
 128 122 0 0 0
SMALL
GASTEIGER

@<TRIPOS>ATOM
      1  N         65.7370   42.5640  145.9370 N.3   209  HIS209     -0.1226
      2  CA        66.5470   42.2060  147.0880 C.3   209  HIS209      0.1752
      3  C         66.5310   43.2820  148.1620 C.2   209  HIS209      0.2596
      4  O         66.6180   44.4800  147.8670 O.2   209  HIS209     -0.2718
      5  CB        67.9990   41.9880  146.6720 C.3   209  HIS209      0.0759
      6  CG        68.9020   41.6290  147.8130 C.ar  209  HIS209      0.0818
      7  ND1       69.2230   40.3260  148.1310 N.ar  209  HIS209     -0.2268
      8  CD2       69.5400   42.4040  148.7260 C.ar  209  HIS209      0.1154
      9  CE1       70.0140   40.3140  149.1850 C.ar  209  HIS209      0.1986
     10  NE2       70.2250   41.5610  149.5670 N.ar  209  HIS209     -0.2212
     11  N         66.4250   42.8380  149.4100 N.am  210  GLY210     -0.1957
     12  CA        66.4430   43.7470  150.5440 C.3   210  GLY210      0.1869
     13  C         65.4060   44.8530  150.6400 C.2   210  GLY210      0.2309
     14  O         65.6500   45.8730  151.2780 O.2   210  GLY210     -0.2863
     15  N         62.4360   44.5650  152.1040 N.3   212  ILE212     -0.1231
     16  CA        61.8510   44.4690  153.4370 C.3   212  ILE212      0.1692
     17  C         62.7180   45.1370  154.5040 C.2   212  ILE212      0.2592
     18  O         62.2110   45.8270  155.3800 O.2   212  ILE212     -0.2718
     19  CB        61.6130   42.9920  153.8160 C.3   212  ILE212      0.0266
     20  CG1       60.5250   42.4170  152.9150 C.3   212  ILE212      0.0019
     21  CG2       61.1800   42.8680  155.2690 C.3   212  ILE212      0.0020
     22  CD1       60.4180   40.9090  152.9490 C.3   212  ILE212      0.0001
     23  N         64.0260   44.9340  154.4110 N.am  213  SER213     -0.1952
     24  CA        64.9660   45.5010  155.3630 C.3   213  SER213      0.1924
     25  C         65.4920   46.8560  154.9210 C.2   213  SER213      0.2314
     26  O         66.2810   47.4790  155.6370 O.2   213  SER213     -0.2863
     27  CB        66.1240   44.5280  155.5830 C.3   213  SER213      0.2116
     28  OG        66.6640   44.0980  154.3540 O.3   213  SER213     -0.2180
     29  N         67.5450   49.6540  157.1570 N.3   217  ARG217     -0.1245
     30  CA        68.8870   49.8710  156.6440 C.3   217  ARG217      0.1563
     31  C         69.1000   51.3560  156.3470 C.2   217  ARG217      0.2260
     32  O         70.1960   51.9050  156.5480 O.2   217  ARG217     -0.2867
     33  CB        69.0980   49.0480  155.3780 C.3   217  ARG217      0.0307
     34  CG        70.5360   49.0840  154.9050 C.3   217  ARG217      0.0489
     35  CD        70.7520   48.2620  153.6630 C.3   217  ARG217      0.2205
     36  NE        71.4990   47.0470  153.9550 N.pl3 217  ARG217     -0.0865
     37  CZ        72.7230   46.8220  153.5060 C.cat 217  ARG217      0.5346
     38  NH1       73.3150   47.7260  152.7500 N.pl3 217  ARG217      0.1354
     39  NH2       73.3560   45.7090  153.8110 N.pl3 217  ARG217      0.1354
     40  N         62.4140   46.1010  163.6870 N.3   257  LEU257     -0.1231
     41  CA        63.2170   44.8800  163.7470 C.3   257  LEU257      0.1693
     42  C         64.5260   45.0590  163.0100 C.2   257  LEU257      0.2592
     43  O         65.6040   44.7830  163.5380 O.2   257  LEU257     -0.2718
     44  CB        62.4770   43.7040  163.1100 C.3   257  LEU257      0.0284
     45  CG        63.3700   42.4960  162.7640 C.3   257  LEU257      0.0019
     46  CD1       63.9140   41.8890  164.0410 C.3   257  LEU257      0.0001
     47  CD2       62.5840   41.4460  161.9900 C.3   257  LEU257      0.0001
     48  N         64.4240   45.5210  161.7720 N.am  258  HIS258     -0.1976
     49  CA        65.5980   45.7130  160.9390 C.3   258  HIS258      0.1656
     50  C         66.4970   46.8650  161.3370 C.2   258  HIS258      0.2291
     51  O         67.7190   46.7710  161.1770 O.2   258  HIS258     -0.2864
     52  CB        65.1770   45.7820  159.4650 C.3   258  HIS258      0.0771
     53  CG        64.7610   44.4480  158.9250 C.ar  258  HIS258      0.0820
     54  ND1       63.4460   44.1110  158.6750 N.ar  258  HIS258     -0.2267
     55  CD2       65.4870   43.3300  158.6750 C.ar  258  HIS258      0.1154
     56  CE1       63.3810   42.8470  158.2980 C.ar  258  HIS258      0.1986
     57  NE2       64.6050   42.3510  158.2910 N.ar  258  HIS258     -0.2212
     58  N         68.3580   45.2880  163.9430 N.3   261  ARG261     -0.1231
     59  CA        69.3650   44.3650  163.4110 C.3   261  ARG261      0.1694
     60  C         70.6310   45.0960  162.9690 C.2   261  ARG261      0.2592
     61  O         71.7510   44.6890  163.2900 O.2   261  ARG261     -0.2718
     62  CB        68.8310   43.5990  162.1910 C.3   261  ARG261      0.0321
     63  CG        67.8360   42.4720  162.4620 C.3   261  ARG261      0.0489
     64  CD        67.3720   41.7990  161.1550 C.3   261  ARG261      0.2205
     65  NE        68.4520   41.1320  160.4180 N.pl3 261  ARG261     -0.0865
     66  CZ        68.8580   41.4870  159.2010 C.cat 261  ARG261      0.5346
     67  NH1       68.2680   42.4880  158.5730 N.pl3 261  ARG261      0.1354
     68  NH2       69.8540   40.8430  158.6070 N.pl3 261  ARG261      0.1354
     69  N         70.4400   46.1740  162.2190 N.am  262  TYR262     -0.1976
     70  CA        71.5660   46.9170  161.6870 C.3   262  TYR262      0.1639
     71  C         72.4000   47.6940  162.7110 C.2   262  TYR262      0.2290
     72  O         73.6250   47.6650  162.6440 O.2   262  TYR262     -0.2864
     73  CB        71.0880   47.8410  160.5540 C.3   262  TYR262      0.0560
     74  CG        70.6550   47.0860  159.3060 C.ar  262  TYR262     -0.0198
     75  CD1       69.3740   47.2610  158.7630 C.ar  262  TYR262     -0.0009
     76  CD2       71.5190   46.1840  158.6840 C.ar  262  TYR262     -0.0009
     77  CE1       68.9730   46.5520  157.6390 C.ar  262  TYR262      0.0417
     78  CE2       71.1330   45.4730  157.5620 C.ar  262  TYR262      0.0417
     79  CZ        69.8590   45.6570  157.0420 C.ar  262  TYR262      0.1957
     80  OH        69.4700   44.9390  155.9370 O.3   262  TYR262     -0.2866
     81  N         74.5240   45.4380  164.5510 N.3   265  ARG265     -0.1245
     82  CA        75.6220   44.9360  163.7520 C.3   265  ARG265      0.1563
     83  C         76.8330   45.8310  163.8940 C.2   265  ARG265      0.2260
     84  O         77.9710   45.3580  163.8460 O.2   265  ARG265     -0.2867
     85  CB        75.2280   44.8640  162.2800 C.3   265  ARG265      0.0307
     86  CG        76.4230   44.5650  161.3740 C.3   265  ARG265      0.0489
     87  CD        75.9770   44.3020  159.9680 C.3   265  ARG265      0.2205
     88  NE        74.9760   43.2430  159.9190 N.pl3 265  ARG265     -0.0865
     89  CZ        74.2300   42.9770  158.8530 C.cat 265  ARG265      0.5346
     90  NH1       74.3840   43.6970  157.7550 N.pl3 265  ARG265      0.1354
     91  NH2       73.3340   42.0080  158.8800 N.pl3 265  ARG265      0.1354
     92  N         68.1990   38.9000  166.9500 N.3   289  LYS289     -0.1245
     93  CA        67.8870   37.5940  166.4060 C.3   289  LYS289      0.1561
     94  C         67.1390   36.6420  167.3200 C.2   289  LYS289      0.2260
     95  O         66.2290   35.9360  166.8800 O.2   289  LYS289     -0.2867
     96  CB        69.1630   36.9230  165.9250 C.3   289  LYS289      0.0271
     97  CG        68.9170   35.5900  165.2290 C.3   289  LYS289      0.0035
     98  CD        67.9720   35.7340  164.0460 C.3   289  LYS289      0.0206
     99  CE        67.6800   34.3980  163.3910 C.3   289  LYS289      0.1093
    100  NZ        66.6900   34.5400  162.2860 N.3   289  LYS289     -0.1314
    101  N         63.6800   37.9410  167.6210 N.3   292  GLU292     -0.1245
    102  CA        62.8410   37.7260  166.4650 C.3   292  GLU292      0.1567
    103  C         62.2880   36.3120  166.5720 C.2   292  GLU292      0.2260
    104  O         61.0920   36.0960  166.3660 O.2   292  GLU292     -0.2867
    105  CB        63.6310   37.8780  165.1620 C.3   292  GLU292      0.0388
    106  CG        62.7380   37.7970  163.9120 C.3   292  GLU292      0.1160
    107  CD        63.5120   37.5650  162.6250 C.2   292  GLU292      0.3649
    108  OE1       62.8650   37.3750  161.5730 O.co2 292  GLU292     -0.2457
    109  OE2       64.7620   37.5630  162.6450 O.co2 292  GLU292     -0.2457
    110  N         71.8550   42.9960  144.3240 N.3   446  LYS446     -0.1245
    111  CA        72.1470   43.2740  145.7220 C.3   446  LYS446      0.1561
    112  C         73.1690   44.3970  145.8870 C.2   446  LYS446      0.2260
    113  O         73.0490   45.2220  146.7800 O.2   446  LYS446     -0.2867
    114  CB        72.6610   42.0090  146.3870 C.3   446  LYS446      0.0271
    115  CG        72.8790   42.1590  147.8550 C.3   446  LYS446      0.0035
    116  CD        73.3890   40.8890  148.4750 C.3   446  LYS446      0.0206
    117  CE        74.8280   40.6340  148.0560 C.3   446  LYS446      0.1093
    118  NZ        75.3060   39.3840  148.6820 N.3   446  LYS446     -0.1314
    119  N         72.2990   47.9080  147.8300 N.3   450  HIS450     -0.1241
    120  CA        73.1020   48.3410  148.9600 C.3   450  HIS450      0.1621
    121  C         73.8840   49.6450  148.6770 C.2   450  HIS450      0.2264
    122  O         73.7610   50.6170  149.4230 O.2   450  HIS450     -0.2867
    123  CB        74.0800   47.2410  149.3890 C.3   450  HIS450      0.0745
    124  CG        73.4230   46.0140  149.9480 C.ar  450  HIS450      0.0817
    125  ND1       74.1370   44.8840  150.2820 N.ar  450  HIS450     -0.2268
    126  CD2       72.1290   45.7380  150.2400 C.ar  450  HIS450      0.1154
    127  CE1       73.3140   43.9640  150.7530 C.ar  450  HIS450      0.1986
    128  NE2       72.0870   44.4560  150.7390 N.ar  450  HIS450     -0.2212
@<TRIPOS>BOND
     1   110   111    1
     2   111   112    1
     3   111   114    1
     4   112   113    2
     5     1     2    1
     6   114   115    1
     7     5     2    1
     8     5     6    1
     9     2     3    1
    10     6     7   ar
    11     6     8   ar
    12   119   120    1
    13   115   116    1
    14     4     3    2
    15   117   116    1
    16   117   118    1
    17     7     9   ar
    18     3    11   am
    19   121   120    1
    20   121   122    2
    21     8    10   ar
    22   120   123    1
    23     9    10   ar
    24   123   124    1
    25    11    12    1
    26   124   126   ar
    27   124   125   ar
    28   126   128   ar
    29   125   127   ar
    30    12    13    1
    31    13    14    2
    32   128   127   ar
    33    15    16    1
    34    38    37    1
    35    20    22    1
    36    20    19    1
    37    16    19    1
    38    16    17    1
    39    37    39    1
    40    37    36    2
    41    35    36    1
    42    35    34    1
    43    19    21    1
    44    28    27    1
    45    23    17   am
    46    23    24    1
    47    17    18    2
    48    34    33    1
    49    25    24    1
    50    25    26    2
    51    24    27    1
    52    33    30    1
    53    80    79    1
    54    31    32    2
    55    31    30    1
    56    30    29    1
    57    79    78   ar
    58    79    77   ar
    59    78    76   ar
    60    77    75   ar
    61    90    89    1
    62    57    56   ar
    63    57    55   ar
    64    56    54   ar
    65    67    66    1
    66    68    66    1
    67    54    53   ar
    68    55    53   ar
    69    76    74   ar
    70    75    74   ar
    71    89    91    1
    72    89    88    2
    73    53    52    1
    74    66    65    2
    75    74    73    1
    76    52    49    1
    77    88    87    1
    78    87    86    1
    79    65    64    1
    80    73    70    1
    81    49    50    1
    82    49    48    1
    83    64    63    1
    84    51    50    2
    85    86    85    1
    86   108   107   ar
    87    70    69    1
    88    70    71    1
    89    48    42   am
    90    47    45    1
    91    62    63    1
    92    62    59    1
    93    69    60   am
    94    85    82    1
    95   100    99    1
    96   107   109   ar
    97   107   106    1
    98    72    71    2
    99    45    44    1
   100    45    46    1
   101    60    61    2
   102    60    59    1
   103    42    43    2
   104    42    41    1
   105    44    41    1
   106    99    98    1
   107    59    58    1
   108    40    41    1
   109    82    83    1
   110    82    81    1
   111    84    83    2
   112   106   105    1
   113    98    97    1
   114   105   102    1
   115    97    96    1
   116    96    93    1
   117   104   103    2
   118    93    92    1
   119    93    94    1
   120   102   103    1
   121   102   101    1
   122    95    94    2
