@<TRIPOS>MOLECULE
tmp/3ethA00.pdb
 220 207 0 0 0
SMALL
GASTEIGER

@<TRIPOS>ATOM
      1  N         18.3090   21.5830   36.0530 N.3    80  ARG80      -0.1245
      2  CA        17.7460   22.9410   36.0050 C.3    80  ARG80       0.1563
      3  C         17.9080   23.6210   34.6310 C.2    80  ARG80       0.2260
      4  O         17.0500   24.4080   34.1690 O.2    80  ARG80      -0.2867
      5  CB        18.3920   23.8100   37.0860 C.3    80  ARG80       0.0307
      6  CG        18.1190   23.3690   38.5240 C.3    80  ARG80       0.0489
      7  CD        18.3520   24.5320   39.5240 C.3    80  ARG80       0.2205
      8  NE        18.3470   23.9750   40.8880 N.pl3  80  ARG80      -0.0865
      9  CZ        17.2550   23.9260   41.6520 C.cat  80  ARG80       0.5346
     10  NH1       16.1220   24.4110   41.1770 N.pl3  80  ARG80       0.1354
     11  NH2       17.2760   23.3870   42.8630 N.pl3  80  ARG80       0.1354
     12  N         12.4190   33.5190   35.8810 N.3    95  ALA95      -0.1245
     13  CA        13.5600   34.4190   36.0870 C.3    95  ALA95       0.1562
     14  C         14.5720   34.3210   34.9670 C.2    95  ALA95       0.2260
     15  O         14.9850   33.2280   34.6110 O.2    95  ALA95      -0.2867
     16  CB        14.2760   34.0380   37.3790 C.3    95  ALA95       0.0290
     17  N         21.8300   41.2470   42.1220 N.3   116  LEU116     -0.1245
     18  CA        21.8220   39.9970   42.8660 C.3   116  LEU116      0.1561
     19  C         21.6320   38.7880   41.9810 C.2   116  LEU116      0.2260
     20  O         20.6330   38.6990   41.2530 O.2   116  LEU116     -0.2867
     21  CB        20.6850   40.0810   43.8810 C.3   116  LEU116      0.0270
     22  CG        20.7990   38.9480   44.8960 C.3   116  LEU116      0.0019
     23  CD1       21.8630   39.2830   45.9350 C.3   116  LEU116      0.0001
     24  CD2       19.4480   38.5890   45.4960 C.3   116  LEU116      0.0001
     25  N         21.4660   34.5790   41.6320 N.3   118  ILE118     -0.1245
     26  CA        21.1060   33.3990   42.3920 C.3   118  ILE118      0.1561
     27  C         21.6290   32.2730   41.5400 C.2   118  ILE118      0.2260
     28  O         21.1330   31.9690   40.4370 O.2   118  ILE118     -0.2867
     29  CB        19.5480   33.1910   42.4860 C.3   118  ILE118      0.0252
     30  CG1       18.7530   34.4760   42.8630 C.3   118  ILE118      0.0019
     31  CG2       19.2330   31.9860   43.3940 C.3   118  ILE118      0.0019
     32  CD1       19.2500   35.2220   44.0930 C.3   118  ILE118      0.0001
     33  N         22.4510   28.3190   41.2540 N.3   120  LYS120     -0.1245
     34  CA        21.8740   27.0230   41.6100 C.3   120  LYS120      0.1561
     35  C         22.5030   25.8410   40.8650 C.2   120  LYS120      0.2260
     36  O         22.5750   25.8590   39.6270 O.2   120  LYS120     -0.2867
     37  CB        20.3810   27.0150   41.2910 C.3   120  LYS120      0.0271
     38  CG        19.5500   28.1970   41.7920 C.3   120  LYS120      0.0035
     39  CD        18.0630   27.9180   41.5440 C.3   120  LYS120      0.0206
     40  CE        17.2220   29.0570   42.0180 C.3   120  LYS120      0.1093
     41  NZ        15.7100   28.8320   41.9780 N.3   120  LYS120     -0.1314
     42  N         19.8560   19.7010   44.0020 N.3   125  GLY125     -0.1210
     43  CA        19.5420   20.6260   45.0670 C.3   125  GLY125      0.1956
     44  C         18.1590   20.4060   45.6790 C.2   125  GLY125      0.2612
     45  O         17.2110   19.9570   45.0230 O.2   125  GLY125     -0.2717
     46  N         18.0610   20.6970   46.9720 N.am  126  TYR126     -0.1962
     47  CA        16.7820   20.6270   47.6510 C.3   126  TYR126      0.1771
     48  C         16.9980   21.5160   48.8840 C.2   126  TYR126      0.2620
     49  O         18.1350   21.7580   49.3310 O.2   126  TYR126     -0.2715
     50  CB        16.3240   19.2040   48.0040 C.3   126  TYR126      0.0574
     51  CG        17.2660   18.4490   48.9280 C.ar  126  TYR126     -0.0198
     52  CD1       17.1170   18.4850   50.3010 C.ar  126  TYR126     -0.0009
     53  CD2       18.3470   17.7630   48.4140 C.ar  126  TYR126     -0.0009
     54  CE1       17.9900   17.8170   51.1320 C.ar  126  TYR126      0.0417
     55  CE2       19.2180   17.0960   49.2310 C.ar  126  TYR126      0.0417
     56  CZ        19.0340   17.0960   50.5830 C.ar  126  TYR126      0.1957
     57  OH        19.9500   16.3860   51.3450 O.3   126  TYR126     -0.2866
     58  N         15.8800   21.9860   49.4150 N.am  127  ASP127     -0.1957
     59  CA        15.9210   22.8650   50.5850 C.3   127  ASP127      0.1840
     60  C         16.9580   23.9980   50.4780 C.2   127  ASP127      0.2623
     61  O         17.4590   24.4570   51.5150 O.2   127  ASP127     -0.2715
     62  CB        16.2120   22.0560   51.8670 C.3   127  ASP127      0.1450
     63  CG        15.1050   21.1200   52.2170 C.2   127  ASP127      0.3671
     64  OD1       13.9960   21.4150   51.7450 O.co2 127  ASP127     -0.2456
     65  OD2       15.3340   20.0970   52.9010 O.co2 127  ASP127     -0.2456
     66  N         17.2950   24.4700   49.2760 N.am  128  GLY128     -0.1940
     67  CA        18.2700   25.5800   49.1980 C.3   128  GLY128      0.2014
     68  C         19.7460   25.1590   49.2850 C.2   128  GLY128      0.2638
     69  O         20.6580   26.0070   49.2430 O.2   128  GLY128     -0.2714
     70  N         20.0290   23.8670   49.4200 N.am  129  ARG129     -0.1977
     71  CA        21.4510   23.4710   49.4720 C.3   129  ARG129      0.1597
     72  C         21.9170   23.6300   48.0290 C.2   129  ARG129      0.2287
     73  O         21.1490   23.3640   47.1090 O.2   129  ARG129     -0.2864
     74  CB        21.6170   21.9970   49.8690 C.3   129  ARG129      0.0334
     75  CG        20.9600   21.6840   51.2070 C.3   129  ARG129      0.0492
     76  CD        20.3930   20.2390   51.2950 C.3   129  ARG129      0.2205
     77  NE        21.2280   19.1700   50.6900 N.pl3 129  ARG129     -0.0865
     78  CZ        22.2800   18.5760   51.2660 C.cat 129  ARG129      0.5346
     79  NH1       22.6700   18.9710   52.4770 N.pl3 129  ARG129      0.1354
     80  NH2       22.9510   17.5870   50.6610 N.pl3 129  ARG129      0.1354
     81  N         22.6280   26.3710   46.5860 N.3   131  GLN131     -0.1245
     82  CA        22.1690   27.6650   46.1100 C.3   131  GLN131      0.1566
     83  C         23.0280   28.7890   46.7340 C.2   131  GLN131      0.2260
     84  O         23.2830   28.7920   47.9380 O.2   131  GLN131     -0.2867
     85  CB        20.6930   27.7960   46.4720 C.3   131  GLN131      0.0367
     86  CG        20.1640   29.1450   45.9930 C.3   131  GLN131      0.0905
     87  CD        18.7350   29.4660   46.4230 C.2   131  GLN131      0.2608
     88  OE1       18.5200   30.4650   47.1360 O.2   131  GLN131     -0.2717
     89  NE2       17.7750   28.6640   45.9510 N.am  131  GLN131     -0.0878
     90  N         20.4280   32.7870   38.0980 N.3   153  GLU153     -0.1231
     91  CA        19.2000   33.5020   37.7250 C.3   153  GLU153      0.1699
     92  C         19.1440   34.8480   38.4050 C.2   153  GLU153      0.2592
     93  O         19.8350   35.0990   39.4140 O.2   153  GLU153     -0.2718
     94  CB        17.9350   32.8890   38.3570 C.3   153  GLU153      0.0402
     95  CG        17.9690   31.4740   38.6220 C.3   153  GLU153      0.1161
     96  CD        16.5650   31.0030   38.8780 C.2   153  GLU153      0.3649
     97  OE1       15.9480   30.3910   37.9640 O.co2 153  GLU153     -0.2457
     98  OE2       16.0840   31.3070   39.9990 O.co2 153  GLU153     -0.2457
     99  N         18.2560   35.6790   37.8690 N.am  154  GLN154     -0.1966
    100  CA        18.0120   37.0140   38.4150 C.3   154  GLN154      0.1733
    101  C         17.3370   36.8230   39.7940 C.2   154  GLN154      0.2617
    102  O         16.4560   35.9740   39.9700 O.2   154  GLN154     -0.2715
    103  CB        17.0520   37.8060   37.5200 C.3   154  GLN154      0.0408
    104  CG        16.9870   39.2650   37.9600 C.3   154  GLN154      0.0908
    105  CD        15.6250   39.9550   37.8100 C.2   154  GLN154      0.2608
    106  OE1       15.2630   40.8170   38.6130 O.2   154  GLN154     -0.2717
    107  NE2       14.8750   39.5970   36.7870 N.am  154  GLN154     -0.0878
    108  N         17.7520   37.6060   40.7820 N.am  155  GLY155     -0.1940
    109  CA        17.1820   37.5780   42.1290 C.3   155  GLY155      0.2014
    110  C         15.7850   38.1770   41.9410 C.2   155  GLY155      0.2638
    111  O         15.6490   39.3330   41.5200 O.2   155  GLY155     -0.2714
    112  N         14.7320   37.4170   42.2610 N.am  156  ILE156     -0.1977
    113  CA        13.3790   37.9660   42.1130 C.3   156  ILE156      0.1596
    114  C         12.8070   38.5430   43.4150 C.2   156  ILE156      0.2287
    115  O         12.7820   37.8860   44.4530 O.2   156  ILE156     -0.2864
    116  CB        12.3930   36.9110   41.5630 C.3   156  ILE156      0.0276
    117  CG1       12.8700   36.3500   40.2140 C.3   156  ILE156      0.0022
    118  CG2       10.9810   37.5100   41.4090 C.3   156  ILE156      0.0022
    119  CD1       13.1290   37.4120   39.0860 C.3   156  ILE156      0.0001
    120  N          9.8340   38.8400   44.9440 N.3   158  PHE158     -0.1241
    121  CA         8.4050   38.5650   44.9300 C.3   158  PHE158      0.1605
    122  C          7.7230   39.0490   46.2320 C.2   158  PHE158      0.2264
    123  O          8.3330   39.2600   47.2850 O.2   158  PHE158     -0.2867
    124  CB         8.2650   37.0530   44.7290 C.3   158  PHE158      0.0534
    125  CG         9.1090   36.2550   45.6860 C.ar  158  PHE158     -0.0203
    126  CD1       10.3170   35.6980   45.2820 C.ar  158  PHE158     -0.0042
    127  CD2        8.6660   36.0470   47.0010 C.ar  158  PHE158     -0.0042
    128  CE1       11.0630   34.9380   46.1720 C.ar  158  PHE158     -0.0003
    129  CE2        9.3700   35.2790   47.8930 C.ar  158  PHE158     -0.0003
    130  CZ        10.6050   34.7300   47.4800 C.ar  158  PHE158     -0.0000
    131  N          5.1190   33.5930   47.7580 N.3   161  GLU161     -0.1245
    132  CA         5.3710   32.3870   46.9550 C.3   161  GLU161      0.1567
    133  C          4.1430   31.4910   46.9330 C.2   161  GLU161      0.2260
    134  O          3.4530   31.3620   47.9480 O.2   161  GLU161     -0.2867
    135  CB         6.5200   31.6110   47.5960 C.3   161  GLU161      0.0388
    136  CG         7.8580   32.3540   47.3870 C.3   161  GLU161      0.1160
    137  CD         9.0290   31.4070   47.7130 C.2   161  GLU161      0.3649
    138  OE1        9.6370   31.6030   48.7730 O.co2 161  GLU161     -0.2457
    139  OE2        9.3690   30.4970   46.9120 O.co2 161  GLU161     -0.2457
    140  N          9.0390   30.0120   53.0670 N.3   184  HIS184     -0.1241
    141  CA        10.3280   29.3130   53.1760 C.3   184  HIS184      0.1621
    142  C         11.2820   30.1400   54.0200 C.2   184  HIS184      0.2264
    143  O         11.3660   31.3530   53.8940 O.2   184  HIS184     -0.2867
    144  CB        11.0300   29.0950   51.8070 C.3   184  HIS184      0.0745
    145  CG        10.1820   28.3670   50.8220 C.ar  184  HIS184      0.0817
    146  ND1        9.2760   29.0170   50.0000 N.ar  184  HIS184     -0.2268
    147  CD2       10.0370   27.0370   50.5920 C.ar  184  HIS184      0.1154
    148  CE1        8.6330   28.1100   49.2770 C.ar  184  HIS184      0.1986
    149  NE2        9.0970   26.9100   49.5970 N.ar  184  HIS184     -0.2212
    150  N         15.9470   28.6040   53.1170 N.3   187  GLY187     -0.1225
    151  CA        15.8260   27.6790   52.0120 C.3   187  GLY187      0.1811
    152  C         14.8620   26.5180   52.1540 C.2   187  GLY187      0.2280
    153  O         14.6160   25.8690   51.1570 O.2   187  GLY187     -0.2866
    154  N          6.1390   25.5470   41.6100 N.3   226  GLU226     -0.1245
    155  CA         6.4520   26.6110   42.5670 C.3   226  GLU226      0.1567
    156  C          6.6430   27.8790   41.7150 C.2   226  GLU226      0.2260
    157  O          7.3520   27.8870   40.6920 O.2   226  GLU226     -0.2867
    158  CB         7.7710   26.3950   43.2850 C.3   226  GLU226      0.0388
    159  CG         7.8340   25.0920   44.1180 C.3   226  GLU226      0.1160
    160  CD         9.2000   24.9950   44.7920 C.2   226  GLU226      0.3649
    161  OE1       10.0860   25.8530   44.5220 O.co2 226  GLU226     -0.2457
    162  OE2        9.4250   24.0840   45.5900 O.co2 226  GLU226     -0.2457
    163  N          6.6020   32.4300   41.8320 N.3   228  PHE228     -0.1241
    164  CA         6.8320   33.6770   42.5470 C.3   228  PHE228      0.1605
    165  C          5.7400   34.6480   42.0680 C.2   228  PHE228      0.2264
    166  O          5.4580   34.7530   40.8600 O.2   228  PHE228     -0.2867
    167  CB         8.1680   34.2700   42.0930 C.3   228  PHE228      0.0534
    168  CG         9.3720   33.4980   42.5500 C.ar  228  PHE228     -0.0203
    169  CD1        9.3090   32.6510   43.6660 C.ar  228  PHE228     -0.0042
    170  CD2       10.5740   33.6250   41.8570 C.ar  228  PHE228     -0.0042
    171  CE1       10.4230   31.9680   44.1010 C.ar  228  PHE228     -0.0003
    172  CE2       11.7060   32.9420   42.2760 C.ar  228  PHE228     -0.0003
    173  CZ        11.6300   32.1040   43.4060 C.ar  228  PHE228     -0.0000
    174  N          9.2810   29.2550   39.4310 N.3   237  ASN237     -0.1225
    175  CA        10.5840   29.1000   40.0740 C.3   237  ASN237      0.1785
    176  C         11.1130   27.7120   39.6700 C.2   237  ASN237      0.2597
    177  O         12.1920   27.6050   39.0780 O.2   237  ASN237     -0.2718
    178  CB        10.4490   29.2180   41.6010 C.3   237  ASN237      0.1169
    179  CG        11.6900   28.7770   42.3560 C.2   237  ASN237      0.2627
    180  OD1       12.7980   29.1600   41.9690 O.2   237  ASN237     -0.2716
    181  ND2       11.5330   28.0320   43.4680 N.am  237  ASN237     -0.0877
    182  N         10.3600   26.6550   39.9960 N.am  238  GLU238     -0.1979
    183  CA        10.7900   25.2900   39.6980 C.3   238  GLU238      0.1602
    184  C          9.6350   24.2840   39.7620 C.2   238  GLU238      0.2287
    185  O          8.5230   24.5910   40.2200 O.2   238  GLU238     -0.2864
    186  CB        11.9520   24.9140   40.6190 C.3   238  GLU238      0.0415
    187  CG        11.4770   24.5560   42.0540 C.3   238  GLU238      0.1163
    188  CD        12.4640   23.7070   42.8830 C.2   238  GLU238      0.3649
    189  OE1       12.2790   23.5980   44.1100 O.co2 238  GLU238     -0.2457
    190  OE2       13.4680   23.1970   42.3320 O.co2 238  GLU238     -0.2457
    191  N          6.2250   15.0970   41.0300 N.3   242  ARG242     -0.1245
    192  CA         5.7210   14.1660   42.0150 C.3   242  ARG242      0.1563
    193  C          4.8600   14.9640   42.9690 C.2   242  ARG242      0.2260
    194  O          4.8060   16.1640   42.8310 O.2   242  ARG242     -0.2867
    195  CB         6.9160   13.7000   42.8880 C.3   242  ARG242      0.0307
    196  CG         7.8860   14.8340   43.2970 C.3   242  ARG242      0.0489
    197  CD         8.8530   14.4090   44.3750 C.3   242  ARG242      0.2205
    198  NE         9.8840   15.4210   44.5920 N.pl3 242  ARG242     -0.0865
    199  CZ         9.7540   16.4880   45.3820 C.cat 242  ARG242      0.5346
    200  NH1        8.6010   16.7430   46.0110 N.pl3 242  ARG242      0.1354
    201  NH2       10.7950   17.3080   45.5410 N.pl3 242  ARG242      0.1354
    202  N          4.1720   16.8180   46.3970 N.3   244  HIS244     -0.1241
    203  CA         5.1040   17.8120   46.9120 C.3   244  HIS244      0.1621
    204  C          4.7410   18.2940   48.3040 C.2   244  HIS244      0.2264
    205  O          3.5600   18.3410   48.6370 O.2   244  HIS244     -0.2867
    206  CB         5.0310   18.9740   45.8640 C.3   244  HIS244      0.0745
    207  CG         5.9680   20.1110   46.1270 C.ar  244  HIS244      0.0817
    208  ND1        5.6090   21.2410   46.8480 N.ar  244  HIS244     -0.2268
    209  CD2        7.2390   20.3170   45.6990 C.ar  244  HIS244      0.1154
    210  CE1        6.6320   22.0800   46.8760 C.ar  244  HIS244      0.1986
    211  NE2        7.6270   21.5530   46.1720 N.ar  244  HIS244     -0.2212
    212  N         13.2130   17.1510   57.6350 N.3   314  LYS314     -0.1245
    213  CA        11.7800   17.1120   57.7660 C.3   314  LYS314      0.1561
    214  C         11.4180   15.8010   58.4790 C.2   314  LYS314      0.2260
    215  O         11.6650   14.6600   58.0030 O.2   314  LYS314     -0.2867
    216  CB        11.1170   17.1250   56.3930 C.3   314  LYS314      0.0271
    217  CG        11.4550   18.4180   55.6440 C.3   314  LYS314      0.0035
    218  CD        10.9410   18.4310   54.2010 C.3   314  LYS314      0.0206
    219  CE        11.1520   19.8270   53.6360 C.3   314  LYS314      0.1093
    220  NZ        10.7160   19.9240   52.2270 N.3   314  LYS314     -0.1314
@<TRIPOS>BOND
     1     4     3    2
     2    15    14    2
     3     3     2    1
     4    14    13    1
     5    12    13    1
     6     2     1    1
     7     2     5    1
     8    13    16    1
     9   107   105   am
    10     5     6    1
    11   103   104    1
    12   103   100    1
    13    91    90    1
    14    91    94    1
    15    91    92    1
    16   105   104    1
    17   105   106    2
    18    99    92   am
    19    99   100    1
    20    97    96   ar
    21    94    95    1
    22    92    93    2
    23   100   101    1
    24     6     7    1
    25    95    96    1
    26    96    98   ar
    27   177   176    2
    28   119   117    1
    29   174   175    1
    30     7     8    1
    31    36    35    2
    32   176   182   am
    33   176   175    1
    34   183   184    1
    35   183   182    1
    36   183   186    1
    37   184   185    2
    38   101   102    2
    39   101   108   am
    40   175   178    1
    41   117   116    1
    42    28    27    2
    43   186   187    1
    44   157   156    2
    45   108   109    1
    46   166   165    2
    47    35    34    1
    48     8     9    2
    49   191   192    1
    50    10     9    1
    51    20    19    2
    52    33    34    1
    53    37    34    1
    54    37    38    1
    55   118   116    1
    56   111   110    2
    57    27    26    1
    58    39    38    1
    59    39    40    1
    60   116   113    1
    61   178   179    1
    62   154   155    1
    63    25    26    1
    64     9    11    1
    65   156   155    1
    66   163   164    1
    67   170   172   ar
    68   170   168   ar
    69   110   109    1
    70   110   112   am
    71   180   179    2
    72    41    40    1
    73    19    18    1
    74   192   195    1
    75   192   193    1
    76   187   188    1
    77   165   164    1
    78   167   164    1
    79   167   168    1
    80   113   112    1
    81   113   114    1
    82    17    18    1
    83   172   173   ar
    84   190   188   ar
    85   179   181   am
    86    26    29    1
    87    29    30    1
    88    29    31    1
    89   168   169   ar
    90   155   158    1
    91   194   193    2
    92    30    32    1
    93    18    21    1
    94   188   189   ar
    95   195   196    1
    96   158   159    1
    97   196   197    1
    98   173   171   ar
    99   114   115    2
   100   169   171   ar
   101    21    22    1
   102    42    43    1
   103   159   160    1
   104   197   198    1
   105   161   160   ar
   106   198   199    2
   107   124   121    1
   108   124   125    1
   109   160   162   ar
   110    22    24    1
   111    22    23    1
   112   121   120    1
   113   121   122    1
   114    45    44    2
   115    43    44    1
   116   126   125   ar
   117   126   128   ar
   118   199   201    1
   119   199   200    1
   120    44    46   am
   121   125   127   ar
   122   209   207   ar
   123   209   211   ar
   124   206   207    1
   125   206   203    1
   126    89    87   am
   127    86    87    1
   128    86    85    1
   129    82    85    1
   130    82    81    1
   131    82    83    1
   132   207   208   ar
   133   211   210   ar
   134   128   130   ar
   135   122   123    2
   136   202   203    1
   137    87    88    2
   138    83    84    2
   139   208   210   ar
   140   203   204    1
   141   139   137   ar
   142   133   132    1
   143   133   134    2
   144   132   135    1
   145   132   131    1
   146    46    47    1
   147   127   129   ar
   148    73    72    2
   149   136   135    1
   150   136   137    1
   151   130   129   ar
   152    47    50    1
   153    47    48    1
   154   137   138   ar
   155    50    51    1
   156    72    71    1
   157   204   205    2
   158    53    51   ar
   159    53    55   ar
   160    48    49    2
   161    48    58   am
   162    51    52   ar
   163    67    66    1
   164    67    68    1
   165    55    56   ar
   166    69    68    2
   167    66    60   am
   168   148   149   ar
   169   148   146   ar
   170    68    70   am
   171    58    59    1
   172    70    71    1
   173    71    74    1
   174   149   147   ar
   175    74    75    1
   176   146   145   ar
   177    52    54   ar
   178    60    59    1
   179    60    61    2
   180    56    54   ar
   181    56    57    1
   182    59    62    1
   183   147   145   ar
   184    80    78    1
   185    77    78    2
   186    77    76    1
   187   145   144    1
   188   153   152    2
   189    75    76    1
   190    78    79    1
   191    64    63   ar
   192   144   141    1
   193    62    63    1
   194   151   152    1
   195   151   150    1
   196    63    65   ar
   197   220   219    1
   198   140   141    1
   199   141   142    1
   200   219   218    1
   201   143   142    2
   202   218   217    1
   203   217   216    1
   204   216   213    1
   205   212   213    1
   206   213   214    1
   207   215   214    2
