@<TRIPOS>MOLECULE
tmp/3etnB01.pdb
 111 106 0 0 0
SMALL
GASTEIGER

@<TRIPOS>ATOM
      1  N         70.6110   49.2580   10.9340 N.3    52  GLY52      -0.1210
      2  CA        71.8590   50.0040   10.8640 C.3    52  GLY52       0.1956
      3  C         71.6230   51.5050   11.0160 C.2    52  GLY52       0.2612
      4  O         70.6760   51.9260   11.6740 O.2    52  GLY52      -0.2717
      5  N         72.4760   52.3060   10.3860 N.am   53  LYS53      -0.1965
      6  CA        72.3900   53.7470   10.4940 C.3    53  LYS53       0.1728
      7  C         71.0270   54.2580   10.0040 C.2    53  LYS53       0.2616
      8  O         70.4660   55.1690   10.6020 O.2    53  LYS53      -0.2715
      9  CB        73.5200   54.4230    9.7460 C.3    53  LYS53       0.0311
     10  CG        73.7800   55.8700   10.1820 C.3    53  LYS53       0.0038
     11  CD        74.9120   56.4870    9.3660 C.3    53  LYS53       0.0206
     12  CE        75.1800   57.9510    9.6880 C.3    53  LYS53       0.1093
     13  NZ        76.4340   58.4280    9.1050 N.3    53  LYS53      -0.1314
     14  N         70.4810   53.6530    8.9530 N.am   54  ALA54      -0.1977
     15  CA        69.1330   54.0000    8.4880 C.3    54  ALA54       0.1597
     16  C         68.0730   53.7730    9.5840 C.2    54  ALA54       0.2287
     17  O         67.1620   54.5780    9.7710 O.2    54  ALA54      -0.2864
     18  CB        68.8010   53.2220    7.2240 C.3    54  ALA54       0.0319
     19  N         62.4400   52.4630    6.5350 N.3    96  ILE96      -0.1231
     20  CA        63.6010   53.0300    5.8880 C.3    96  ILE96       0.1692
     21  C         64.5610   51.9150    5.4530 C.2    96  ILE96       0.2593
     22  O         64.9940   51.0910    6.2620 O.2    96  ILE96      -0.2718
     23  CB        64.3400   54.0260    6.7700 C.3    96  ILE96       0.0266
     24  CG1       63.3510   55.0450    7.3430 C.3    96  ILE96       0.0019
     25  CG2       65.4500   54.7170    5.9190 C.3    96  ILE96       0.0020
     26  CD1       63.9790   56.2030    8.0890 C.3    96  ILE96       0.0001
     27  N         64.8340   51.8860    4.1590 N.am   97  SER97      -0.1938
     28  CA        65.6830   50.8730    3.5220 C.3    97  SER97       0.2055
     29  C         66.3540   51.5070    2.3300 C.2    97  SER97       0.2643
     30  O         65.7020   51.7590    1.2980 O.2    97  SER97      -0.2714
     31  CB        64.8770   49.6480    3.1020 C.3    97  SER97       0.2130
     32  OG        65.6880   48.6930    2.4250 O.3    97  SER97      -0.2179
     33  N         67.6450   51.7710    2.4490 N.am   98  ASN98      -0.1957
     34  CA        68.3680   52.3820    1.3300 C.3    98  ASN98       0.1819
     35  C         68.2920   51.5170    0.0710 C.2    98  ASN98       0.2622
     36  O         67.9350   52.0070   -1.0080 O.2    98  ASN98      -0.2715
     37  CB        69.8330   52.6750    1.6730 C.3    98  ASN98       0.1195
     38  CG        70.4760   53.6510    0.6950 C.2    98  ASN98       0.2630
     39  OD1       69.7870   54.4780    0.1020 O.2    98  ASN98      -0.2716
     40  ND2       71.8050   53.5430    0.5010 N.am   98  ASN98      -0.0877
     41  N         68.6610   50.2530    0.2370 N.am   99  SER99      -0.1950
     42  CA        68.6230   49.2520   -0.8300 C.3    99  SER99       0.1924
     43  C         67.2100   48.9390   -1.3080 C.2    99  SER99       0.2314
     44  O         67.0270   48.4910   -2.4240 O.2    99  SER99      -0.2863
     45  CB        69.2320   47.9360   -0.3500 C.3    99  SER99       0.2116
     46  OG        68.3790   47.2990    0.6200 O.3    99  SER99      -0.2180
     47  N         65.6150   46.4280   -0.1240 N.3   101  LYS101     -0.1231
     48  CA        65.5120   44.9700    0.0020 C.3   101  LYS101      0.1693
     49  C         66.1730   44.4540    1.2760 C.2   101  LYS101      0.2593
     50  O         66.6020   43.3050    1.3580 O.2   101  LYS101     -0.2718
     51  CB        66.0650   44.2880   -1.2600 C.3   101  LYS101      0.0285
     52  CG        67.4300   44.7460   -1.6800 C.3   101  LYS101      0.0035
     53  CD        67.8600   44.0670   -3.0080 C.3   101  LYS101      0.0206
     54  CE        69.2720   44.4790   -3.3950 C.3   101  LYS101      0.1093
     55  NZ        69.7410   43.7600   -4.6240 N.3   101  LYS101     -0.1314
     56  N         66.2240   45.3130    2.2940 N.am  102  THR102     -0.1939
     57  CA        66.8250   44.9550    3.5860 C.3   102  THR102      0.2028
     58  C         66.1100   43.7220    4.1450 C.2   102  THR102      0.2642
     59  O         64.8880   43.7420    4.3160 O.2   102  THR102     -0.2714
     60  CB        66.6940   46.1270    4.5650 C.3   102  THR102      0.1808
     61  OG1       67.2580   47.2990    3.9760 O.3   102  THR102     -0.2208
     62  CG2       67.3710   45.8560    5.8930 C.3   102  THR102      0.0379
     63  N         66.8770   42.6750    4.4580 N.am  103  ARG103     -0.1963
     64  CA        66.2940   41.3880    4.8320 C.3   103  ARG103      0.1729
     65  C         65.2450   41.5210    5.9360 C.2   103  ARG103      0.2616
     66  O         64.1270   41.0050    5.8220 O.2   103  ARG103     -0.2715
     67  CB        67.3750   40.3940    5.2340 C.3   103  ARG103      0.0348
     68  CG        66.8100   39.0570    5.7160 C.3   103  ARG103      0.0492
     69  CD        67.8990   38.1100    6.1770 C.3   103  ARG103      0.2205
     70  NE        68.3690   38.4080    7.5280 N.pl3 103  ARG103     -0.0865
     71  CZ        69.3020   37.6930    8.1700 C.cat 103  ARG103      0.5346
     72  NH1       69.8710   36.6590    7.5690 N.pl3 103  ARG103      0.1354
     73  NH2       69.6770   38.0300    9.4070 N.pl3 103  ARG103      0.1354
     74  N         65.6010   42.1980    7.0160 N.am  104  GLU104     -0.1977
     75  CA        64.7040   42.3030    8.1600 C.3   104  GLU104      0.1602
     76  C         63.4700   43.1210    7.8720 C.2   104  GLU104      0.2287
     77  O         62.4290   42.8960    8.4520 O.2   104  GLU104     -0.2864
     78  CB        65.4250   42.9300    9.3550 C.3   104  GLU104      0.0415
     79  CG        66.5320   42.0360    9.9400 C.3   104  GLU104      0.1163
     80  CD        67.7990   41.9970    9.1270 C.2   104  GLU104      0.3649
     81  OE1       68.0410   42.8670    8.2270 O.co2 104  GLU104     -0.2457
     82  OE2       68.5760   41.0550    9.4200 O.co2 104  GLU104     -0.2457
     83  N         77.7830   58.6590   -1.6280 N.3   147  GLU147     -0.1245
     84  CA        78.2940   58.7610   -0.2730 C.3   147  GLU147      0.1567
     85  C         79.6150   59.5140   -0.2830 C.2   147  GLU147      0.2260
     86  O         80.3760   59.4430   -1.2480 O.2   147  GLU147     -0.2867
     87  CB        78.5020   57.3720    0.3280 C.3   147  GLU147      0.0388
     88  CG        77.2560   56.4400    0.2750 C.3   147  GLU147      0.1160
     89  CD        76.1280   56.8490    1.2150 C.2   147  GLU147      0.3649
     90  OE1       76.1890   57.9600    1.8220 O.co2 147  GLU147     -0.2457
     91  OE2       75.1680   56.0380    1.3470 O.co2 147  GLU147     -0.2457
     92  N         77.2080   54.8780    4.8620 N.3   154  PRO154     -0.2116
     93  CA        76.0430   55.7780    4.7800 C.3   154  PRO154      0.1372
     94  C         76.3590   57.1080    5.4520 C.2   154  PRO154      0.2244
     95  O         76.7230   57.1590    6.6150 O.2   154  PRO154     -0.2868
     96  CB        74.9150   55.0020    5.4910 C.3   154  PRO154      0.0268
     97  CG        75.5860   53.9250    6.2570 C.3   154  PRO154      0.0207
     98  CD        76.9140   53.6420    5.6030 C.3   154  PRO154      0.0892
     99  N         73.4700   59.6450    2.2610 N.3   157  SER157     -0.1202
    100  CA        72.1720   58.9570    2.2080 C.3   157  SER157      0.2020
    101  C         71.4140   59.1820    3.5210 C.2   157  SER157      0.2619
    102  O         70.2410   59.5130    3.5070 O.2   157  SER157     -0.2717
    103  CB        72.3550   57.4580    1.9260 C.3   157  SER157      0.2103
    104  OG        73.1660   56.8190    2.9230 O.3   157  SER157     -0.2182
    105  N         72.1010   59.0000    4.6430 N.am  158  THR158     -0.1952
    106  CA        71.4900   59.1920    5.9440 C.3   158  THR158      0.1897
    107  C         71.1750   60.6480    6.3000 C.2   158  THR158      0.2313
    108  O         70.1810   60.9320    6.9990 O.2   158  THR158     -0.2863
    109  CB        72.2570   58.4890    7.0630 C.3   158  THR158      0.1794
    110  OG1       73.6620   58.7960    6.9900 O.3   158  THR158     -0.2208
    111  CG2       72.0010   56.9750    6.9450 C.3   158  THR158      0.0378
@<TRIPOS>BOND
     1    55    54    1
     2    54    53    1
     3    53    52    1
     4    44    43    2
     5    52    51    1
     6    83    84    1
     7    43    42    1
     8    51    48    1
     9    86    85    2
    10    36    35    2
    11    42    45    1
    12    42    41    1
    13    45    46    1
    14    85    84    1
    15    84    87    1
    16    47    48    1
    17    48    49    1
    18    35    41   am
    19    35    34    1
    20    39    38    2
    21    88    87    1
    22    88    89    1
    23    40    38   am
    24    38    37    1
    25    89    91   ar
    26    89    90   ar
    27    49    50    2
    28    49    56   am
    29    30    29    2
    30    34    37    1
    31    34    33    1
    32   103   100    1
    33   103   104    1
    34   100    99    1
    35   100   101    1
    36    56    57    1
    37    29    33   am
    38    29    28    1
    39    32    31    1
    40    31    28    1
    41   102   101    2
    42   101   105   am
    43    28    27    1
    44    57    58    1
    45    57    60    1
    46    61    60    1
    47    58    59    2
    48    58    63   am
    49    27    21   am
    50    63    64    1
    51    60    62    1
    52   105   106    1
    53    93    92    1
    54    93    94    1
    55    93    96    1
    56    64    67    1
    57    64    65    1
    58    92    98    1
    59    67    68    1
    60    94    95    2
    61    21    20    1
    62    21    22    2
    63    96    97    1
    64    98    97    1
    65    68    69    1
    66    66    65    2
    67    20    19    1
    68    20    23    1
    69    25    23    1
    70    65    74   am
    71   106   107    1
    72   106   109    1
    73    69    70    1
    74   107   108    2
    75    23    24    1
    76   111   109    1
    77   110   109    1
    78    74    75    1
    79    18    15    1
    80    24    26    1
    81    70    71    2
    82    72    71    1
    83    76    75    1
    84    76    77    2
    85    75    78    1
    86    71    73    1
    87    81    80   ar
    88    15    14    1
    89    15    16    1
    90    14     7   am
    91    13    12    1
    92    80    82   ar
    93    80    79    1
    94    78    79    1
    95    11    12    1
    96    11    10    1
    97    16    17    2
    98     9    10    1
    99     9     6    1
   100     7     6    1
   101     7     8    2
   102     5     6    1
   103     5     3   am
   104     2     1    1
   105     2     3    1
   106     3     4    2
