@<TRIPOS>MOLECULE
tmp/3etrC01.pdb
 112 104 0 0 0
SMALL
GASTEIGER

@<TRIPOS>ATOM
      1  N          6.6750  -22.1700   33.2290 N.3    78  LEU78      -0.1245
      2  CA         6.4350  -23.0210   32.0720 C.3    78  LEU78       0.1561
      3  C          6.7200  -24.5240   32.3160 C.2    78  LEU78       0.2260
      4  O          6.0630  -25.4160   31.7150 O.2    78  LEU78      -0.2867
      5  CB         7.2220  -22.4670   30.8880 C.3    78  LEU78       0.0270
      6  CG         6.8010  -22.8000   29.4640 C.3    78  LEU78       0.0019
      7  CD1        5.5200  -22.0490   29.1040 C.3    78  LEU78       0.0001
      8  CD2        7.9130  -22.4040   28.5440 C.3    78  LEU78       0.0001
      9  N          6.8440  -12.7580   26.9960 N.3   232  GLU232     -0.1245
     10  CA         6.3120  -14.0000   26.4690 C.3   232  GLU232      0.1567
     11  C          6.0140  -14.9170   27.6240 C.2   232  GLU232      0.2260
     12  O          4.9730  -15.5920   27.6500 O.2   232  GLU232     -0.2867
     13  CB         7.3080  -14.6430   25.4810 C.3   232  GLU232      0.0388
     14  CG         6.9440  -16.0780   25.0920 C.3   232  GLU232      0.1160
     15  CD         7.7720  -16.6470   23.9770 C.2   232  GLU232      0.3649
     16  OE1        7.6400  -17.8590   23.7500 O.co2 232  GLU232     -0.2457
     17  OE2        8.5620  -15.9000   23.3340 O.co2 232  GLU232     -0.2457
     18  N         12.0420  -20.9800   28.9160 N.3   303  LEU303     -0.1245
     19  CA        12.1450  -21.2920   27.4890 C.3   303  LEU303      0.1561
     20  C         13.5710  -21.6910   27.0450 C.2   303  LEU303      0.2260
     21  O         13.8340  -21.7320   25.8610 O.2   303  LEU303     -0.2867
     22  CB        11.5920  -20.1340   26.6360 C.3   303  LEU303      0.0270
     23  CG        10.1160  -19.7410   26.7700 C.3   303  LEU303      0.0019
     24  CD1        9.9080  -18.2500   26.3090 C.3   303  LEU303      0.0001
     25  CD2        9.3050  -20.6950   25.9660 C.3   303  LEU303      0.0001
     26  N         14.2510  -24.6770   24.2310 N.3   306  SER306     -0.1217
     27  CA        13.8860  -24.4220   22.8440 C.3   306  SER306      0.1889
     28  C         14.7170  -23.3020   22.2360 C.2   306  SER306      0.2288
     29  O         14.9530  -23.2770   21.0130 O.2   306  SER306     -0.2866
     30  CB        12.3600  -24.1630   22.7620 C.3   306  SER306      0.2089
     31  OG        11.8860  -23.9590   24.0870 O.3   306  SER306     -0.2183
     32  N         16.7930  -23.8010   18.8290 N.3   310  ARG310     -0.1245
     33  CA        16.9130  -22.7950   17.7480 C.3   310  ARG310      0.1563
     34  C         18.3740  -22.3770   17.4610 C.2   310  ARG310      0.2260
     35  O         18.7310  -22.1070   16.2840 O.2   310  ARG310     -0.2867
     36  CB        16.0440  -21.5520   18.0180 C.3   310  ARG310      0.0307
     37  CG        16.3300  -20.3910   17.0370 C.3   310  ARG310      0.0489
     38  CD        15.2710  -19.2940   17.0910 C.3   310  ARG310      0.2205
     39  NE        13.9330  -19.7970   16.7980 N.pl3 310  ARG310     -0.0865
     40  CZ        13.4220  -19.8920   15.5790 C.cat 310  ARG310      0.5346
     41  NH1       14.1000  -19.4950   14.5210 N.pl3 310  ARG310      0.1354
     42  NH2       12.2030  -20.3610   15.4250 N.pl3 310  ARG310      0.1354
     43  N         16.1380  -15.4520   19.7430 N.3   344  PHE344     -0.1241
     44  CA        15.7580  -16.6460   20.5190 C.3   344  PHE344      0.1605
     45  C         16.8200  -17.7730   20.3970 C.2   344  PHE344      0.2264
     46  O         16.5170  -18.8470   19.9070 O.2   344  PHE344     -0.2867
     47  CB        14.3380  -17.0590   20.0850 C.3   344  PHE344      0.0534
     48  CG        13.6200  -18.0400   20.9920 C.ar  344  PHE344     -0.0203
     49  CD1       12.9160  -17.6020   22.1130 C.ar  344  PHE344     -0.0042
     50  CD2       13.5690  -19.4110   20.6580 C.ar  344  PHE344     -0.0042
     51  CE1       12.2020  -18.5090   22.9090 C.ar  344  PHE344     -0.0003
     52  CE2       12.8960  -20.3300   21.4550 C.ar  344  PHE344     -0.0003
     53  CZ        12.2050  -19.8840   22.5850 C.ar  344  PHE344     -0.0000
     54  N          7.6290  -21.5140   15.3550 N.3   439  PHE439     -0.1227
     55  CA         7.9930  -21.9460   16.7150 C.3   439  PHE439      0.1736
     56  C          8.6610  -23.2950   16.4890 C.2   439  PHE439      0.2596
     57  O          8.2780  -24.0200   15.5740 O.2   439  PHE439     -0.2718
     58  CB         6.7690  -22.1940   17.6340 C.3   439  PHE439      0.0547
     59  CG         6.0040  -20.9450   18.0440 C.ar  439  PHE439     -0.0202
     60  CD1        5.0130  -20.4240   17.2320 C.ar  439  PHE439     -0.0042
     61  CD2        6.2530  -20.3330   19.2770 C.ar  439  PHE439     -0.0042
     62  CE1        4.2990  -19.2940   17.5840 C.ar  439  PHE439     -0.0003
     63  CE2        5.5450  -19.1970   19.6630 C.ar  439  PHE439     -0.0003
     64  CZ         4.5580  -18.6550   18.8100 C.ar  439  PHE439     -0.0000
     65  N          9.6180  -23.6450   17.3310 N.am  440  THR440     -0.1939
     66  CA        10.3490  -24.9000   17.1950 C.3   440  THR440      0.2028
     67  C          9.5720  -26.0270   17.8720 C.2   440  THR440      0.2642
     68  O          9.8710  -27.2130   17.6650 O.2   440  THR440     -0.2714
     69  CB        11.8060  -24.8030   17.7970 C.3   440  THR440      0.1808
     70  OG1       11.7490  -24.3840   19.1700 O.3   440  THR440     -0.2208
     71  CG2       12.6670  -23.8330   16.9990 C.3   440  THR440      0.0379
     72  N          8.5840  -25.6460   18.6830 N.am  441  VAL441     -0.1977
     73  CA         7.5690  -26.5630   19.2180 C.3   441  VAL441      0.1596
     74  C          6.3550  -26.6260   18.2520 C.2   441  VAL441      0.2287
     75  O          5.6380  -25.6190   18.1320 O.2   441  VAL441     -0.2864
     76  CB         7.0790  -26.0510   20.5560 C.3   441  VAL441      0.0276
     77  CG1        5.8940  -26.8940   21.0390 C.3   441  VAL441      0.0022
     78  CG2        8.1940  -26.1060   21.5660 C.3   441  VAL441      0.0022
     79  N          2.6330  -24.9860   18.8020 N.3   444  LEU444     -0.1245
     80  CA         2.4270  -23.5440   19.0280 C.3   444  LEU444      0.1561
     81  C          2.1160  -22.8660   17.7090 C.2   444  LEU444      0.2260
     82  O          1.7150  -21.7060   17.6640 O.2   444  LEU444     -0.2867
     83  CB         3.6080  -22.8750   19.7290 C.3   444  LEU444      0.0270
     84  CG         3.9160  -23.1520   21.2040 C.3   444  LEU444      0.0019
     85  CD1        5.2770  -22.5730   21.5270 C.3   444  LEU444      0.0001
     86  CD2        2.8660  -22.5920   22.1780 C.3   444  LEU444      0.0001
     87  N          1.8420  -17.5540   22.6140 N.3   506  PRO506     -0.2116
     88  CA         2.4390  -16.2070   22.7500 C.3   506  PRO506      0.1372
     89  C          2.6180  -15.5400   21.3950 C.2   506  PRO506      0.2244
     90  O          2.7300  -16.2410   20.3580 O.2   506  PRO506     -0.2868
     91  CB         3.8480  -16.4680   23.3570 C.3   506  PRO506      0.0268
     92  CG         4.0460  -17.9450   23.3590 C.3   506  PRO506      0.0207
     93  CD         2.6300  -18.5350   23.3950 C.3   506  PRO506      0.0892
     94  N          5.0020  -14.4040   19.3960 N.3   508  ALA508     -0.1231
     95  CA         6.4360  -14.6970   19.3720 C.3   508  ALA508      0.1694
     96  C          6.8310  -15.3980   18.0490 C.2   508  ALA508      0.2591
     97  O          5.9840  -15.6290   17.1950 O.2   508  ALA508     -0.2718
     98  CB         6.8210  -15.5220   20.5730 C.3   508  ALA508      0.0304
     99  N          8.1260  -15.7000   17.8920 N.am  509  ALA509     -0.1980
    100  CA         8.7120  -16.3760   16.7100 C.3   509  ALA509      0.1597
    101  C          8.4590  -15.6680   15.4100 C.2   509  ALA509      0.2287
    102  O          8.5830  -16.2560   14.3440 O.2   509  ALA509     -0.2864
    103  CB         8.2690  -17.8080   16.6400 C.3   509  ALA509      0.0319
    104  N         12.2330  -10.9950   14.0880 N.3   691  GLU691     -0.1245
    105  CA        13.5330  -11.3690   14.6170 C.3   691  GLU691      0.1567
    106  C         14.6500  -11.5460   13.5880 C.2   691  GLU691      0.2260
    107  O         15.8250  -11.4140   13.9740 O.2   691  GLU691     -0.2867
    108  CB        13.4730  -12.6610   15.3870 C.3   691  GLU691      0.0388
    109  CG        12.6370  -12.6610   16.6290 C.3   691  GLU691      0.1160
    110  CD        12.3490  -14.0610   17.0270 C.2   691  GLU691      0.3649
    111  OE1       11.5770  -14.7070   16.2910 O.co2 691  GLU691     -0.2457
    112  OE2       12.8750  -14.5410   18.0480 O.co2 691  GLU691     -0.2457
@<TRIPOS>BOND
     1   106   107    2
     2   106   105    1
     3   104   105    1
     4   102   101    2
     5    41    40    1
     6   105   108    1
     7    54    55    1
     8   108   109    1
     9   101   100    1
    10    42    40    1
    11    57    56    2
    12    40    39    2
    13    35    34    2
    14   111   110   ar
    15    56    55    1
    16    56    65   am
    17   109   110    1
    18   103   100    1
    19   100    99    1
    20    55    58    1
    21    39    38    1
    22    71    69    1
    23   110   112   ar
    24    37    38    1
    25    37    36    1
    26    66    65    1
    27    66    69    1
    28    66    67    1
    29    97    96    2
    30    60    62   ar
    31    60    59   ar
    32    34    33    1
    33    62    64   ar
    34    58    59    1
    35    82    81    2
    36    68    67    2
    37    81    80    1
    38    33    36    1
    39    33    32    1
    40    69    70    1
    41    67    72   am
    42    99    96   am
    43    59    61   ar
    44    96    95    1
    45    75    74    2
    46    74    73    1
    47    72    73    1
    48    79    80    1
    49    64    63   ar
    50    80    83    1
    51    73    76    1
    52    61    63   ar
    53    95    94    1
    54    95    98    1
    55    83    84    1
    56    43    44    1
    57    46    45    2
    58    47    44    1
    59    47    48    1
    60    90    89    2
    61    45    44    1
    62    76    77    1
    63    76    78    1
    64    50    48   ar
    65    50    52   ar
    66    48    49   ar
    67    29    28    2
    68    84    85    1
    69    84    86    1
    70    89    88    1
    71    52    53   ar
    72    49    51   ar
    73    28    27    1
    74    53    51   ar
    75    87    88    1
    76    87    93    1
    77    88    91    1
    78    30    27    1
    79    30    31    1
    80    27    26    1
    81    17    15   ar
    82    91    92    1
    83    92    93    1
    84    16    15   ar
    85    15    14    1
    86    14    13    1
    87    13    10    1
    88    21    20    2
    89    25    23    1
    90    24    23    1
    91    10     9    1
    92    10    11    1
    93    22    23    1
    94    22    19    1
    95    20    19    1
    96    19    18    1
    97    11    12    2
    98     8     6    1
    99     7     6    1
   100     6     5    1
   101     5     2    1
   102     4     3    2
   103     2     3    1
   104     2     1    1
