@<TRIPOS>MOLECULE
tmp/3etsA00.pdb
 127 120 0 0 0
SMALL
GASTEIGER

@<TRIPOS>ATOM
      1  N        -15.9510   31.4790   28.3140 N.3   140  PHE140     -0.1241
      2  CA       -16.7430   32.3560   29.1630 C.3   140  PHE140      0.1605
      3  C        -15.9860   32.7610   30.3980 C.2   140  PHE140      0.2264
      4  O        -15.3050   31.9450   31.0190 O.2   140  PHE140     -0.2867
      5  CB       -18.0970   31.7110   29.5920 C.3   140  PHE140      0.0534
      6  CG       -19.0470   31.4180   28.4480 C.ar  140  PHE140     -0.0203
      7  CD1      -19.2610   32.3350   27.4330 C.ar  140  PHE140     -0.0042
      8  CD2      -19.7260   30.2160   28.3970 C.ar  140  PHE140     -0.0042
      9  CE1      -20.1130   32.0680   26.3740 C.ar  140  PHE140     -0.0003
     10  CE2      -20.6180   29.9470   27.3660 C.ar  140  PHE140     -0.0003
     11  CZ       -20.7940   30.8720   26.3270 C.ar  140  PHE140     -0.0000
     12  N        -20.0850   42.5250   24.0380 N.3   171  PHE171     -0.1241
     13  CA       -19.4870   41.5190   23.1540 C.3   171  PHE171      0.1605
     14  C        -18.0480   41.2590   23.5890 C.2   171  PHE171      0.2264
     15  O        -17.1060   41.7460   22.9730 O.2   171  PHE171     -0.2867
     16  CB       -19.5240   41.9970   21.6950 C.3   171  PHE171      0.0534
     17  CG       -19.6200   40.8860   20.6730 C.ar  171  PHE171     -0.0203
     18  CD1      -20.7050   40.0080   20.6790 C.ar  171  PHE171     -0.0042
     19  CD2      -18.6490   40.7440   19.6840 C.ar  171  PHE171     -0.0042
     20  CE1      -20.7970   38.9930   19.7540 C.ar  171  PHE171     -0.0003
     21  CE2      -18.7220   39.7260   18.7570 C.ar  171  PHE171     -0.0003
     22  CZ       -19.8030   38.8530   18.7860 C.ar  171  PHE171     -0.0000
     23  N        -13.5000   40.8570   22.2200 N.3   208  TYR208     -0.1241
     24  CA       -13.6430   39.5660   21.6090 C.3   208  TYR208      0.1605
     25  C        -12.5620   39.3290   20.5570 C.2   208  TYR208      0.2264
     26  O        -12.6590   39.7350   19.3820 O.2   208  TYR208     -0.2867
     27  CB       -15.0500   39.4630   20.9920 C.3   208  TYR208      0.0534
     28  CG       -15.6420   38.0730   20.8560 C.ar  208  TYR208     -0.0201
     29  CD1      -16.9790   37.8520   21.1260 C.ar  208  TYR208     -0.0009
     30  CD2      -14.8800   36.9870   20.4290 C.ar  208  TYR208     -0.0009
     31  CE1      -17.5460   36.6050   20.9580 C.ar  208  TYR208      0.0417
     32  CE2      -15.4550   35.7180   20.2750 C.ar  208  TYR208      0.0417
     33  CZ       -16.7970   35.5330   20.5500 C.ar  208  TYR208      0.1957
     34  OH       -17.4010   34.2810   20.4230 O.3   208  TYR208     -0.2866
     35  N        -10.5640   38.3160   17.6870 N.3   210  MET210     -0.1245
     36  CA       -11.1570   37.9090   16.4170 C.3   210  MET210      0.1570
     37  C        -10.3640   38.4000   15.2300 C.2   210  MET210      0.2261
     38  O         -9.5220   39.2830   15.3040 O.2   210  MET210     -0.2867
     39  CB       -12.5740   38.5320   16.3130 C.3   210  MET210      0.0387
     40  CG       -13.6790   37.8370   17.1330 C.3   210  MET210      0.0595
     41  SD       -15.2580   38.6510   17.0140 S.3   210  MET210     -0.1393
     42  CE       -16.3250   37.2610   17.1960 C.3   210  MET210      0.0692
     43  N        -14.6570   40.5170   14.4780 N.3   252  HIS252     -0.1241
     44  CA       -14.8420   39.6130   13.3140 C.3   252  HIS252      0.1621
     45  C        -13.7210   39.5450   12.3180 C.2   252  HIS252      0.2264
     46  O        -13.3030   38.4660   11.9280 O.2   252  HIS252     -0.2867
     47  CB       -16.1460   39.9120   12.5700 C.3   252  HIS252      0.0745
     48  CG       -17.3560   39.4690   13.3060 C.ar  252  HIS252      0.0817
     49  ND1      -18.0440   40.2860   14.1720 N.ar  252  HIS252     -0.2268
     50  CD2      -17.9910   38.2780   13.3200 C.ar  252  HIS252      0.1154
     51  CE1      -19.0460   39.6110   14.7080 C.ar  252  HIS252      0.1986
     52  NE2      -19.0360   38.3890   14.2010 N.ar  252  HIS252     -0.2212
     53  N        -32.8280   32.3420   18.9370 N.3   319  GLY319     -0.1225
     54  CA       -31.6400   31.8710   19.6610 C.3   319  GLY319      0.1811
     55  C        -30.3420   32.3840   19.0700 C.2   319  GLY319      0.2280
     56  O        -29.3600   32.5090   19.7870 O.2   319  GLY319     -0.2866
     57  N        -24.6060   43.4170   10.5840 N.3   348  HIS348     -0.1241
     58  CA       -23.7520   42.4030   11.1640 C.3   348  HIS348      0.1621
     59  C        -22.7440   41.9070   10.1410 C.2   348  HIS348      0.2264
     60  O        -22.7310   40.7350    9.8000 O.2   348  HIS348     -0.2867
     61  CB       -24.5780   41.2530   11.6500 C.3   348  HIS348      0.0745
     62  CG       -23.8660   40.3480   12.6000 C.ar  348  HIS348      0.0817
     63  ND1      -24.1970   40.2790   13.9380 N.ar  348  HIS348     -0.2268
     64  CD2      -22.8690   39.4510   12.4070 C.ar  348  HIS348      0.1154
     65  CE1      -23.4080   39.4020   14.5350 C.ar  348  HIS348      0.1986
     66  NE2      -22.5890   38.8910   13.6300 N.ar  348  HIS348     -0.2212
     67  N        -19.3540   40.5440    8.9250 N.3   350  ASN350     -0.1240
     68  CA       -18.4960   39.6080    9.6490 C.3   350  ASN350      0.1653
     69  C        -17.3080   39.1190    8.8790 C.2   350  ASN350      0.2266
     70  O        -16.5690   38.2630    9.3610 O.2   350  ASN350     -0.2867
     71  CB       -19.3180   38.4110   10.2170 C.3   350  ASN350      0.1155
     72  CG       -20.0800   37.6280    9.1550 C.2   350  ASN350      0.2627
     73  OD1      -19.6800   37.5810    8.0070 O.2   350  ASN350     -0.2716
     74  ND2      -21.1870   37.0140    9.5520 N.am  350  ASN350     -0.0877
     75  N        -24.1530   39.2730    7.5560 N.3   366  ARG366     -0.1245
     76  CA       -24.8620   38.1330    8.0760 C.3   366  ARG366      0.1563
     77  C        -26.3610   38.2660    7.8250 C.2   366  ARG366      0.2260
     78  O        -27.0520   37.2800    7.5820 O.2   366  ARG366     -0.2867
     79  CB       -24.5890   37.9740    9.5650 C.3   366  ARG366      0.0307
     80  CG       -25.0690   36.6680   10.1420 C.3   366  ARG366      0.0489
     81  CD       -25.0810   36.6390   11.6820 C.3   366  ARG366      0.2205
     82  NE       -25.5540   35.3470   12.1370 N.pl3 366  ARG366     -0.0865
     83  CZ       -26.7320   35.1170   12.7100 C.cat 366  ARG366      0.5346
     84  NH1      -27.5770   36.1000   12.9440 N.pl3 366  ARG366      0.1354
     85  NH2      -27.0780   33.8740   13.0250 N.pl3 366  ARG366      0.1354
     86  N        -23.7520   29.6690   13.6330 N.3   491  ILE491     -0.1231
     87  CA       -22.9260   30.8790   13.6650 C.3   491  ILE491      0.1692
     88  C        -21.4540   30.6170   13.3770 C.2   491  ILE491      0.2592
     89  O        -21.0000   29.4890   13.1340 O.2   491  ILE491     -0.2718
     90  CB       -23.0830   31.6010   15.0260 C.3   491  ILE491      0.0266
     91  CG1      -22.5700   30.7420   16.1760 C.3   491  ILE491      0.0019
     92  CG2      -24.5330   31.9350   15.2900 C.3   491  ILE491      0.0020
     93  CD1      -22.7610   31.3760   17.5720 C.3   491  ILE491      0.0001
     94  N        -20.7180   31.7190   13.3530 N.am  492  THR492     -0.1953
     95  CA       -19.2600   31.7540   13.1480 C.3   492  THR492      0.1897
     96  C        -18.8140   30.9850   11.9060 C.2   492  THR492      0.2313
     97  O        -19.4970   30.9920   10.8600 O.2   492  THR492     -0.2863
     98  CB       -18.4780   31.4350   14.4470 C.3   492  THR492      0.1794
     99  OG1      -18.5100   30.0430   14.7520 O.3   492  THR492     -0.2208
    100  CG2      -19.0740   32.2400   15.6090 C.3   492  THR492      0.0378
    101  N        -24.4400   23.6490   18.9190 N.3   513  LEU513     -0.1245
    102  CA       -24.4860   24.7850   19.8200 C.3   513  LEU513      0.1561
    103  C        -25.7080   24.7340   20.7470 C.2   513  LEU513      0.2260
    104  O        -25.6110   25.0150   21.9490 O.2   513  LEU513     -0.2867
    105  CB       -24.4290   26.0950   19.0290 C.3   513  LEU513      0.0270
    106  CG       -24.4990   27.3710   19.8850 C.3   513  LEU513      0.0019
    107  CD1      -23.3860   27.3770   20.9440 C.3   513  LEU513      0.0001
    108  CD2      -24.4500   28.5770   18.9530 C.3   513  LEU513      0.0001
    109  N        -19.5540   28.7010   21.7260 N.3   548  THR548     -0.1218
    110  CA       -19.1480   28.6880   20.3180 C.3   548  THR548      0.1862
    111  C        -17.6750   28.9740   20.1770 C.2   548  THR548      0.2287
    112  O        -17.0750   29.5640   21.0620 O.2   548  THR548     -0.2866
    113  CB       -19.9190   29.7570   19.5210 C.3   548  THR548      0.1770
    114  OG1      -19.6800   29.6080   18.1170 O.3   548  THR548     -0.2211
    115  CG2      -19.4920   31.1640   19.9780 C.3   548  THR548      0.0375
    116  N        -14.8580   30.4440   17.1390 N.3   550  TYR550     -0.1241
    117  CA       -14.9970   31.4540   16.0740 C.3   550  TYR550      0.1605
    118  C        -14.4340   30.9890   14.7240 C.2   550  TYR550      0.2264
    119  O        -15.1410   30.8220   13.7560 O.2   550  TYR550     -0.2867
    120  CB       -14.4360   32.8360   16.5000 C.3   550  TYR550      0.0534
    121  CG       -14.6410   33.8840   15.4290 C.ar  550  TYR550     -0.0201
    122  CD1      -15.9030   34.1830   15.0010 C.ar  550  TYR550     -0.0009
    123  CD2      -13.5720   34.5320   14.7980 C.ar  550  TYR550     -0.0009
    124  CE1      -16.1430   35.0980   13.9350 C.ar  550  TYR550      0.0417
    125  CE2      -13.8090   35.4530   13.7790 C.ar  550  TYR550      0.0417
    126  CZ       -15.1030   35.7360   13.3640 C.ar  550  TYR550      0.1957
    127  OH       -15.3790   36.6350   12.3410 O.3   550  TYR550     -0.2866
@<TRIPOS>BOND
     1    75    76    1
     2    78    77    2
     3    77    76    1
     4    73    72    2
     5    76    79    1
     6    69    70    2
     7    69    68    1
     8    67    68    1
     9    72    74   am
    10    72    71    1
    11    79    80    1
    12    68    71    1
    13    60    59    2
    14    59    58    1
    15    80    81    1
    16    57    58    1
    17    97    96    2
    18    58    61    1
    19    61    62    1
    20    81    82    1
    21    96    95    1
    22    46    45    2
    23    82    83    2
    24    45    44    1
    25   127   126    1
    26    64    62   ar
    27    64    66   ar
    28    47    48    1
    29    47    44    1
    30    62    63   ar
    31    83    84    1
    32    83    85    1
    33    89    88    2
    34    95    94    1
    35    95    98    1
    36    48    50   ar
    37    48    49   ar
    38    44    43    1
    39    50    52   ar
    40    94    88   am
    41   126   125   ar
    42   126   124   ar
    43    88    87    1
    44    66    65   ar
    45    86    87    1
    46    87    90    1
    47   119   118    2
    48   125   123   ar
    49   124   122   ar
    50    63    65   ar
    51    49    51   ar
    52    52    51   ar
    53    98    99    1
    54    98   100    1
    55   118   117    1
    56   123   121   ar
    57   122   121   ar
    58    90    92    1
    59    90    91    1
    60    37    38    2
    61    37    36    1
    62   121   120    1
    63   117   120    1
    64   117   116    1
    65    91    93    1
    66    39    36    1
    67    39    40    1
    68    36    35    1
    69    41    40    1
    70    41    42    1
    71   114   113    1
    72    21    22   ar
    73    21    19   ar
    74    22    20   ar
    75   101   102    1
    76    53    54    1
    77   108   106    1
    78   105   102    1
    79   105   106    1
    80    55    54    1
    81    55    56    2
    82    26    25    2
    83   113   115    1
    84   113   110    1
    85    19    17   ar
    86    20    18   ar
    87   102   103    1
    88   106   107    1
    89   111   110    1
    90   111   112    2
    91    32    30   ar
    92    32    33   ar
    93   110   109    1
    94    34    33    1
    95    30    28   ar
    96    33    31   ar
    97    25    24    1
    98    17    18   ar
    99    17    16    1
   100   103   104    2
   101    28    27    1
   102    28    29   ar
   103    31    29   ar
   104    27    24    1
   105    24    23    1
   106    16    13    1
   107    15    14    2
   108    13    14    1
   109    13    12    1
   110    11     9   ar
   111    11    10   ar
   112     9     7   ar
   113    10     8   ar
   114     7     6   ar
   115     1     2    1
   116     8     6   ar
   117     6     5    1
   118     2     5    1
   119     2     3    1
   120     3     4    2
