@<TRIPOS>MOLECULE
tmp/3ettB00.pdb
 104 98 0 0 0
SMALL
GASTEIGER

@<TRIPOS>ATOM
      1  N         21.8920   58.2220   29.9230 N.3   171  PHE171     -0.1241
      2  CA        21.5500   59.2270   28.9480 C.3   171  PHE171      0.1605
      3  C         20.0370   59.4290   28.9510 C.2   171  PHE171      0.2264
      4  O         19.3330   58.9850   28.0660 O.2   171  PHE171     -0.2867
      5  CB        22.0030   58.7570   27.5630 C.3   171  PHE171      0.0534
      6  CG        22.2540   59.8260   26.6120 C.ar  171  PHE171     -0.0203
      7  CD1       23.2090   60.7800   26.8560 C.ar  171  PHE171     -0.0042
      8  CD2       21.5570   59.8870   25.4360 C.ar  171  PHE171     -0.0042
      9  CE1       23.4430   61.7870   25.9300 C.ar  171  PHE171     -0.0003
     10  CE2       21.7990   60.8700   24.5010 C.ar  171  PHE171     -0.0003
     11  CZ        22.7470   61.8120   24.7390 C.ar  171  PHE171     -0.0000
     12  N         16.0920   59.9150   26.2810 N.3   208  TYR208     -0.1241
     13  CA        16.3710   61.2740   25.8720 C.3   208  TYR208      0.1605
     14  C         15.7080   61.4950   24.5540 C.2   208  TYR208      0.2264
     15  O         16.1840   60.9350   23.5790 O.2   208  TYR208     -0.2867
     16  CB        17.8800   61.3650   25.7140 C.3   208  TYR208      0.0534
     17  CG        18.5010   62.7610   25.7590 C.ar  208  TYR208     -0.0201
     18  CD1       19.5780   63.0230   26.5600 C.ar  208  TYR208     -0.0009
     19  CD2       18.0430   63.7920   24.9330 C.ar  208  TYR208     -0.0009
     20  CE1       20.1860   64.3080   26.5780 C.ar  208  TYR208      0.0417
     21  CE2       18.6350   65.0780   24.9580 C.ar  208  TYR208      0.0417
     22  CZ        19.7020   65.3310   25.7780 C.ar  208  TYR208      0.1957
     23  OH        20.3130   66.5800   25.7950 O.3   208  TYR208     -0.2866
     24  N         14.7550   62.4050   21.0920 N.3   210  MET210     -0.1245
     25  CA        15.5950   62.9720   20.0500 C.3   210  MET210      0.1570
     26  C         15.1760   62.4370   18.7210 C.2   210  MET210      0.2261
     27  O         14.3330   61.5810   18.6390 O.2   210  MET210     -0.2867
     28  CB        17.0270   62.5160   20.2240 C.3   210  MET210      0.0387
     29  CG        17.6900   62.9450   21.5300 C.3   210  MET210      0.0595
     30  SD        19.1930   62.0420   21.8490 S.3   210  MET210     -0.1393
     31  CE        20.4450   63.3590   21.7090 C.3   210  MET210      0.0692
     32  N         19.6020   60.2680   19.1980 N.3   252  HIS252     -0.1241
     33  CA        20.0720   61.1920   18.1670 C.3   252  HIS252      0.1621
     34  C         19.2590   61.2910   16.8840 C.2   252  HIS252      0.2264
     35  O         19.0740   62.3920   16.4000 O.2   252  HIS252     -0.2867
     36  CB        21.5710   61.0010   17.8180 C.3   252  HIS252      0.0745
     37  CG        22.4850   61.3560   18.9570 C.ar  252  HIS252      0.0817
     38  ND1       22.8570   60.4480   19.9090 N.ar  252  HIS252     -0.2268
     39  CD2       23.0760   62.5170   19.3000 C.ar  252  HIS252      0.1154
     40  CE1       23.6400   61.0320   20.7910 C.ar  252  HIS252      0.1986
     41  NE2       23.7810   62.2940   20.4420 N.ar  252  HIS252     -0.2212
     42  N         32.9340   68.4470   26.8290 N.3   320  ALA320     -0.1231
     43  CA        31.7660   68.0540   25.9710 C.3   320  ALA320      0.1694
     44  C         31.3400   66.5540   26.0650 C.2   320  ALA320      0.2591
     45  O         30.6460   66.1270   27.0090 O.2   320  ALA320     -0.2718
     46  CB        32.0500   68.4070   24.4950 C.3   320  ALA320      0.0304
     47  N         31.7350   65.7590   25.0650 N.am  321  VAL321     -0.1980
     48  CA        31.4150   64.3110   25.0080 C.3   321  VAL321      0.1595
     49  C         29.8960   64.1230   24.9130 C.2   321  VAL321      0.2287
     50  O         29.2010   64.9550   24.2990 O.2   321  VAL321     -0.2864
     51  CB        32.0330   63.5390   26.2220 C.3   321  VAL321      0.0276
     52  CG1       31.9180   62.0000   26.0100 C.3   321  VAL321      0.0022
     53  CG2       33.5120   63.9750   26.4730 C.3   321  VAL321      0.0022
     54  N         30.2630   57.4960   18.3260 N.3   350  HIS350     -0.1241
     55  CA        29.1910   58.4160   18.6100 C.3   350  HIS350      0.1621
     56  C         28.4960   58.9040   17.3590 C.2   350  HIS350      0.2264
     57  O         28.4990   60.1130   17.0780 O.2   350  HIS350     -0.2867
     58  CB        29.7820   59.5580   19.3830 C.3   350  HIS350      0.0745
     59  CG        28.7830   60.4520   20.0160 C.ar  350  HIS350      0.0817
     60  ND1       28.6590   60.5590   21.3970 N.ar  350  HIS350     -0.2268
     61  CD2       27.8970   61.3160   19.4830 C.ar  350  HIS350      0.1154
     62  CE1       27.7160   61.4350   21.6610 C.ar  350  HIS350      0.1986
     63  NE2       27.2300   61.9040   20.5190 N.ar  350  HIS350     -0.2212
     64  N         25.5840   60.2180   15.1930 N.3   352  ASN352     -0.1240
     65  CA        24.5450   61.1660   15.6000 C.3   352  ASN352      0.1653
     66  C         23.6160   61.6600   14.4950 C.2   352  ASN352      0.2266
     67  O         22.7180   62.4550   14.7350 O.2   352  ASN352     -0.2867
     68  CB        25.1540   62.3520   16.3910 C.3   352  ASN352      0.1155
     69  CG        26.1990   63.1400   15.6170 C.2   352  ASN352      0.2627
     70  OD1       26.1710   63.2060   14.3820 O.2   352  ASN352     -0.2716
     71  ND2       27.1240   63.7650   16.3680 N.am  352  ASN352     -0.0877
     72  N         30.6510   61.4560   15.2450 N.3   368  ARG368     -0.1245
     73  CA        31.1640   62.5880   15.8930 C.3   368  ARG368      0.1563
     74  C         32.6430   62.4430   16.1310 C.2   368  ARG368      0.2260
     75  O         33.3820   63.4480   16.2080 O.2   368  ARG368     -0.2867
     76  CB        30.4710   62.7310   17.2480 C.3   368  ARG368      0.0307
     77  CG        30.6660   64.0990   17.8900 C.3   368  ARG368      0.0489
     78  CD        30.3670   64.0890   19.3820 C.3   368  ARG368      0.2205
     79  NE        30.5690   65.4170   19.9490 N.pl3 368  ARG368     -0.0865
     80  CZ        31.5480   65.7860   20.7530 C.cat 368  ARG368      0.5346
     81  NH1       32.4440   64.9120   21.1540 N.pl3 368  ARG368      0.1354
     82  NH2       31.6200   67.0380   21.1840 N.pl3 368  ARG368      0.1354
     83  N         28.4420   71.0080   21.0270 N.3   493  ILE493     -0.1231
     84  CA        27.6410   69.8290   20.7850 C.3   493  ILE493      0.1692
     85  C         26.3390   70.1030   20.0570 C.2   493  ILE493      0.2592
     86  O         25.9050   71.2390   19.8490 O.2   493  ILE493     -0.2718
     87  CB        27.3610   69.0970   22.1510 C.3   493  ILE493      0.0266
     88  CG1       26.6600   69.9680   23.1500 C.3   493  ILE493      0.0019
     89  CG2       28.6450   68.5710   22.7460 C.3   493  ILE493      0.0020
     90  CD1       26.2680   69.2650   24.4960 C.3   493  ILE493      0.0001
     91  N         25.6740   69.0040   19.7420 N.am  494  THR494     -0.1953
     92  CA        24.3120   68.9480   19.2030 C.3   494  THR494      0.1897
     93  C         24.1920   69.7270   17.8970 C.2   494  THR494      0.2313
     94  O         25.1730   69.8090   17.2040 O.2   494  THR494     -0.2863
     95  CB        23.2310   69.2030   20.2150 C.3   494  THR494      0.1794
     96  OG1       23.1400   70.5870   20.4530 O.3   494  THR494     -0.2208
     97  CG2       23.4830   68.3930   21.5350 C.3   494  THR494      0.0378
     98  N         22.0590   71.9200   27.6750 N.3   550  THR550     -0.1218
     99  CA        22.0300   71.9600   26.2070 C.3   550  THR550      0.1862
    100  C         20.6320   71.7350   25.5810 C.2   550  THR550      0.2287
    101  O         19.7640   71.1350   26.1840 O.2   550  THR550     -0.2866
    102  CB        23.0810   70.9610   25.6330 C.3   550  THR550      0.1770
    103  OG1       23.3820   71.2960   24.2830 O.3   550  THR550     -0.2211
    104  CG2       22.5620   69.4780   25.6530 C.3   550  THR550      0.0375
@<TRIPOS>BOND
     1    70    69    2
     2    66    67    2
     3    66    65    1
     4    64    65    1
     5    72    73    1
     6    65    68    1
     7    69    71   am
     8    69    68    1
     9    73    74    1
    10    73    76    1
    11    74    75    2
    12    35    34    2
    13    34    33    1
    14    57    56    2
    15    94    93    2
    16    76    77    1
    17    56    55    1
    18    36    33    1
    19    36    37    1
    20    77    78    1
    21    93    92    1
    22    33    32    1
    23    54    55    1
    24    55    58    1
    25    27    26    2
    26    26    25    1
    27    37    39   ar
    28    37    38   ar
    29    92    91    1
    30    92    95    1
    31    39    41   ar
    32    78    79    1
    33    58    59    1
    34    61    59   ar
    35    61    63   ar
    36    91    85   am
    37    86    85    2
    38    38    40   ar
    39    79    80    2
    40    59    60   ar
    41    25    28    1
    42    25    24    1
    43    85    84    1
    44    95    96    1
    45    95    97    1
    46    28    29    1
    47    41    40   ar
    48    63    62   ar
    49    80    81    1
    50    80    82    1
    51    84    83    1
    52    84    87    1
    53    60    62   ar
    54    29    30    1
    55    31    30    1
    56    87    89    1
    57    87    88    1
    58    88    90    1
    59    15    14    2
    60   103   102    1
    61    50    49    2
    62    46    43    1
    63    10    11   ar
    64    10     8   ar
    65    14    13    1
    66    11     9   ar
    67    49    48    1
    68    19    21   ar
    69    19    17   ar
    70    21    22   ar
    71    48    47    1
    72    48    51    1
    73    47    44   am
    74     8     6   ar
    75   100   101    2
    76   100    99    1
    77   102   104    1
    78   102    99    1
    79    16    17    1
    80    16    13    1
    81    17    18   ar
    82    22    23    1
    83    22    20   ar
    84    13    12    1
    85     9     7   ar
    86    43    44    1
    87    43    42    1
    88    52    51    1
    89    44    45    2
    90    99    98    1
    91    51    53    1
    92    18    20   ar
    93     6     7   ar
    94     6     5    1
    95     5     2    1
    96     4     3    2
    97     2     3    1
    98     2     1    1
