@<TRIPOS>MOLECULE
tmp/3euaH00.pdb
 100 98 0 0 0
SMALL
GASTEIGER

@<TRIPOS>ATOM
      1  N         75.7550   -9.7940  126.1090 N.3    31  CYS31      -0.1235
      2  CA        74.3920   -9.3500  125.7870 C.3    31  CYS31       0.1677
      3  C         74.1680   -7.8610  126.0500 C.2    31  CYS31       0.2270
      4  O         74.6780   -7.3260  127.0470 O.2    31  CYS31      -0.2867
      5  CB        73.4290  -10.1130  126.6520 C.3    31  CYS31       0.0956
      6  SG        73.3590  -11.8880  126.3220 S.3    31  CYS31      -0.0801
      7  N         76.5170   -4.9240  127.5910 N.3    34  SER34      -0.1217
      8  CA        77.8100   -5.6040  127.7340 C.3    34  SER34       0.1889
      9  C         78.3660   -6.0510  126.3780 C.2    34  SER34       0.2288
     10  O         79.5500   -6.2750  126.2720 O.2    34  SER34      -0.2866
     11  CB        77.6980   -6.7940  128.6750 C.3    34  SER34       0.2089
     12  OG        77.5950   -6.3730  130.0030 O.3    34  SER34      -0.2183
     13  N         79.3840   -9.6900  131.7660 N.3    79  SER79      -0.1202
     14  CA        78.0660   -9.5800  132.3780 C.3    79  SER79       0.2020
     15  C         78.2810   -8.8340  133.6570 C.2    79  SER79       0.2619
     16  O         79.1000   -9.2540  134.4560 O.2    79  SER79      -0.2717
     17  CB        77.4400  -10.9150  132.6970 C.3    79  SER79       0.2103
     18  OG        76.2800  -10.7500  133.5220 O.3    79  SER79      -0.2182
     19  N         77.5460   -7.7520  133.8660 N.am   80  HIS80      -0.1961
     20  CA        77.7210   -6.9470  135.0460 C.3    80  HIS80       0.1787
     21  C         77.4240   -7.7340  136.3480 C.2    80  HIS80       0.2620
     22  O         78.2770   -7.8570  137.2260 O.2    80  HIS80      -0.2715
     23  CB        76.8320   -5.7040  134.8900 C.3    80  HIS80       0.0785
     24  CG        76.9730   -4.7370  136.0090 C.ar   80  HIS80       0.0821
     25  ND1       78.0280   -3.8590  136.0900 N.ar   80  HIS80      -0.2267
     26  CD2       76.2330   -4.5500  137.1210 C.ar   80  HIS80       0.1154
     27  CE1       77.9180   -3.1550  137.2000 C.ar   80  HIS80       0.1986
     28  NE2       76.8310   -3.5460  137.8380 N.ar   80  HIS80      -0.2212
     29  N         76.2230   -8.2900  136.4290 N.am   81  SER81      -0.1950
     30  CA        75.8130   -9.0730  137.5820 C.3    81  SER81       0.1924
     31  C         76.4960  -10.4270  137.5810 C.2    81  SER81       0.2314
     32  O         76.7040  -11.0110  138.6180 O.2    81  SER81      -0.2863
     33  CB        74.3070   -9.3060  137.5610 C.3    81  SER81       0.2116
     34  OG        73.9390  -10.1460  136.4590 O.3    81  SER81      -0.2180
     35  N         75.1000  -12.9080  136.1780 N.3    83  ASN83      -0.1225
     36  CA        73.9600  -13.8240  136.1830 C.3    83  ASN83       0.1785
     37  C         73.2660  -13.9950  134.8490 C.2    83  ASN83       0.2598
     38  O         72.4570  -14.9180  134.7360 O.2    83  ASN83      -0.2718
     39  CB        72.8640  -13.3230  137.1450 C.3    83  ASN83       0.1169
     40  CG        73.3350  -13.1800  138.5620 C.2    83  ASN83       0.2627
     41  OD1       74.1470  -13.9810  139.0730 O.2    83  ASN83      -0.2716
     42  ND2       72.7920  -12.1630  139.2400 N.am   83  ASN83      -0.0877
     43  N         73.5280  -13.1020  133.8820 N.am   84  THR84      -0.1939
     44  CA        72.8730  -13.1070  132.5580 C.3    84  THR84       0.2013
     45  C         72.9410  -14.5320  132.0310 C.2    84  THR84       0.2484
     46  O         74.0210  -15.0170  131.6760 O.2    84  THR84      -0.2729
     47  CB        73.5310  -12.1240  131.6200 C.3    84  THR84       0.1807
     48  OG1       73.8740  -10.9340  132.3520 O.3    84  THR84      -0.2208
     49  CG2       72.6050  -11.8180  130.4320 C.3    84  THR84       0.0379
     50  N         71.7960  -15.2130  132.0000 N.am   85  PRO85      -0.2715
     51  CA        71.8480  -16.6190  131.6900 C.3    85  PRO85       0.1536
     52  C         72.4920  -16.9950  130.3750 C.2    85  PRO85       0.2598
     53  O         73.2070  -18.0170  130.3250 O.2    85  PRO85      -0.2715
     54  CB        70.3690  -17.0380  131.7020 C.3    85  PRO85       0.0310
     55  CG        69.7050  -16.0460  132.5030 C.3    85  PRO85       0.0237
     56  CD        70.4180  -14.7620  132.2410 C.3    85  PRO85       0.0939
     57  N         72.2240  -16.2190  129.3240 N.am   86  GLU86      -0.1978
     58  CA        72.7590  -16.5330  128.0060 C.3    86  GLU86       0.1602
     59  C         74.2870  -16.4330  127.9830 C.2    86  GLU86       0.2287
     60  O         74.9640  -17.2090  127.3590 O.2    86  GLU86      -0.2864
     61  CB        72.1770  -15.6060  126.9650 C.3    86  GLU86       0.0415
     62  CG        70.6660  -15.6460  126.8340 C.3    86  GLU86       0.1163
     63  CD        69.9700  -14.5860  127.6410 C.2    86  GLU86       0.3649
     64  OE1       70.2540  -14.4520  128.8430 O.co2  86  GLU86      -0.2457
     65  OE2       69.1360  -13.8570  127.0390 O.co2  86  GLU86      -0.2457
     66  N         65.4480    0.9230  126.8410 N.3   212  GLU212     -0.1245
     67  CA        65.3430    0.2430  128.1290 C.3   212  GLU212      0.1567
     68  C         65.0540    1.1320  129.3200 C.2   212  GLU212      0.2260
     69  O         64.0990    0.8970  130.0760 O.2   212  GLU212     -0.2867
     70  CB        66.6830   -0.4770  128.4350 C.3   212  GLU212      0.0388
     71  CG        66.8010   -1.1940  129.7660 C.3   212  GLU212      0.1160
     72  CD        68.1740   -1.8220  130.0000 C.2   212  GLU212      0.3649
     73  OE1       69.1460   -1.4650  129.3090 O.co2 212  GLU212     -0.2457
     74  OE2       68.2950   -2.6820  130.8990 O.co2 212  GLU212     -0.2457
     75  N         63.6930   -7.9440  135.3310 N.3   317  TRP317     -0.1241
     76  CA        63.6630   -8.2640  136.7530 C.3   317  TRP317      0.1605
     77  C         62.2530   -8.3890  137.3620 C.2   317  TRP317      0.2264
     78  O         62.1220   -8.6510  138.5670 O.2   317  TRP317     -0.2867
     79  CB        64.4100   -7.1990  137.6140 C.3   317  TRP317      0.0550
     80  CG        65.7630   -6.7530  137.1190 C.ar  317  TRP317      0.0003
     81  CD1       66.8180   -7.5540  136.8350 C.ar  317  TRP317      0.0946
     82  CD2       66.2330   -5.4000  136.9500 C.ar  317  TRP317      0.0152
     83  NE1       67.9020   -6.7940  136.4380 N.ar  317  TRP317     -0.2442
     84  CE2       67.5590   -5.4710  136.4980 C.ar  317  TRP317      0.0810
     85  CE3       65.6480   -4.1400  137.1090 C.ar  317  TRP317      0.0012
     86  CZ2       68.3100   -4.3430  136.2050 C.ar  317  TRP317      0.0191
     87  CZ3       66.4050   -3.0140  136.8250 C.ar  317  TRP317      0.0001
     88  CH2       67.7230   -3.1290  136.3830 C.ar  317  TRP317      0.0015
     89  N         60.5440  -14.4290  131.2330 N.3   321  TYR321     -0.1241
     90  CA        60.6820  -14.3210  129.7770 C.3   321  TYR321      0.1605
     91  C         61.8220  -15.1560  129.1940 C.2   321  TYR321      0.2264
     92  O         62.7970  -15.4510  129.8870 O.2   321  TYR321     -0.2867
     93  CB        60.8510  -12.8530  129.3580 C.3   321  TYR321      0.0534
     94  CG        61.9700  -12.1280  130.0270 C.ar  321  TYR321     -0.0201
     95  CD1       63.2710  -12.2070  129.5430 C.ar  321  TYR321     -0.0009
     96  CD2       61.7240  -11.3000  131.1200 C.ar  321  TYR321     -0.0009
     97  CE1       64.2900  -11.5220  130.1620 C.ar  321  TYR321      0.0417
     98  CE2       62.7470  -10.5890  131.7360 C.ar  321  TYR321      0.0417
     99  CZ        64.0170  -10.7250  131.2660 C.ar  321  TYR321      0.1957
    100  OH        65.0380  -10.0320  131.8600 O.3   321  TYR321     -0.2866
@<TRIPOS>BOND
     1     2     3    1
     2     2     1    1
     3     2     5    1
     4     3     4    2
     5    10     9    2
     6     6     5    1
     7     9     8    1
     8    62    61    1
     9    62    63    1
    10    66    67    1
    11    61    58    1
    12    65    63   ar
    13    60    59    2
    14     7     8    1
    15    63    64   ar
    16     8    11    1
    17    59    58    1
    18    58    57    1
    19    67    70    1
    20    67    68    1
    21    70    71    1
    22    11    12    1
    23    91    90    1
    24    91    92    2
    25    73    72   ar
    26    68    69    2
    27    57    52   am
    28    93    90    1
    29    93    94    1
    30    95    94   ar
    31    95    97   ar
    32    71    72    1
    33    90    89    1
    34    72    74   ar
    35    94    96   ar
    36    97    99   ar
    37    53    52    2
    38    52    51    1
    39    49    47    1
    40    96    98   ar
    41    99    98   ar
    42    99   100    1
    43    47    48    1
    44    47    44    1
    45    46    45    2
    46    51    54    1
    47    51    50    1
    48    54    55    1
    49    13    14    1
    50    50    45   am
    51    50    56    1
    52    45    44    1
    53    56    55    1
    54    14    17    1
    55    14    15    1
    56    44    43    1
    57    17    18    1
    58    15    19   am
    59    15    16    2
    60    19    20    1
    61    43    37   am
    62    38    37    2
    63    37    36    1
    64    23    20    1
    65    23    24    1
    66    20    21    1
    67    75    76    1
    68    24    25   ar
    69    24    26   ar
    70    25    27   ar
    71    35    36    1
    72    36    39    1
    73    86    88   ar
    74    86    84   ar
    75    21    29   am
    76    21    22    2
    77    88    87   ar
    78    29    30    1
    79    83    84   ar
    80    83    81   ar
    81    34    33    1
    82    84    82   ar
    83    76    77    1
    84    76    79    1
    85    87    85   ar
    86    81    80   ar
    87    82    85   ar
    88    82    80   ar
    89    80    79    1
    90    26    28   ar
    91    39    40    1
    92    27    28   ar
    93    77    78    2
    94    33    30    1
    95    31    30    1
    96    31    32    2
    97    40    41    2
    98    40    42   am
