@<TRIPOS>MOLECULE
tmp/3eubL01.pdb
 102 94 0 0 0
SMALL
GASTEIGER

@<TRIPOS>ATOM
      1  N        -41.7370   64.7120  -49.6930 N.3   232  GLU232     -0.1245
      2  CA       -43.0140   64.1400  -49.2380 C.3   232  GLU232      0.1567
      3  C        -43.9170   63.7510  -50.4180 C.2   232  GLU232      0.2260
      4  O        -44.6040   62.7220  -50.3350 O.2   232  GLU232     -0.2867
      5  CB       -43.7420   65.0190  -48.2040 C.3   232  GLU232      0.0388
      6  CG       -45.1450   64.5160  -47.7400 C.3   232  GLU232      0.1160
      7  CD       -45.7950   65.3770  -46.6440 C.2   232  GLU232      0.3649
      8  OE1      -47.0310   65.3010  -46.4800 O.co2 232  GLU232     -0.2457
      9  OE2      -45.0770   66.1260  -45.9440 O.co2 232  GLU232     -0.2457
     10  N        -49.9710   69.6940  -51.6970 N.3   303  LEU303     -0.1245
     11  CA       -50.1890   69.7850  -50.2950 C.3   303  LEU303      0.1561
     12  C        -50.6750   71.2000  -49.8690 C.2   303  LEU303      0.2260
     13  O        -50.7380   71.4850  -48.6760 O.2   303  LEU303     -0.2867
     14  CB       -48.9020   69.3380  -49.5610 C.3   303  LEU303      0.0270
     15  CG       -48.6920   67.8020  -49.5620 C.3   303  LEU303      0.0019
     16  CD1      -47.2530   67.3710  -49.1740 C.3   303  LEU303      0.0001
     17  CD2      -49.7200   67.1150  -48.6960 C.3   303  LEU303      0.0001
     18  N        -53.5360   71.8020  -47.1250 N.3   306  SER306     -0.1217
     19  CA       -53.0660   71.3710  -45.8190 C.3   306  SER306      0.1889
     20  C        -52.0360   72.3080  -45.2440 C.2   306  SER306      0.2288
     21  O        -51.9420   72.4170  -44.0260 O.2   306  SER306     -0.2866
     22  CB       -52.4950   69.9540  -45.8880 C.3   306  SER306      0.2089
     23  OG       -53.5120   68.9800  -45.7090 O.3   306  SER306     -0.2183
     24  N        -52.5870   74.4590  -41.5870 N.3   310  ARG310     -0.1245
     25  CA       -51.5640   74.5900  -40.5690 C.3   310  ARG310      0.1563
     26  C        -51.1730   76.0610  -40.3340 C.2   310  ARG310      0.2260
     27  O        -50.9920   76.4840  -39.1740 O.2   310  ARG310     -0.2867
     28  CB       -50.3260   73.7520  -40.8950 C.3   310  ARG310      0.0307
     29  CG       -49.2460   73.8880  -39.8010 C.3   310  ARG310      0.0489
     30  CD       -48.1670   72.8480  -39.8550 C.3   310  ARG310      0.2205
     31  NE       -48.7120   71.5130  -39.6590 N.pl3 310  ARG310     -0.0865
     32  CZ       -48.9600   70.9590  -38.4830 C.cat 310  ARG310      0.5346
     33  NH1      -48.7360   71.6040  -37.3420 N.pl3 310  ARG310      0.1354
     34  NH2      -49.4460   69.7390  -38.4640 N.pl3 310  ARG310      0.1354
     35  N        -44.5770   70.6440  -49.4170 N.3   340  ALA340     -0.1245
     36  CA       -44.1920   70.6860  -48.0090 C.3   340  ALA340      0.1562
     37  C        -42.7350   71.0850  -47.7840 C.2   340  ALA340      0.2260
     38  O        -41.8320   70.6700  -48.5200 O.2   340  ALA340     -0.2867
     39  CB       -44.4730   69.3600  -47.3410 C.3   340  ALA340      0.0290
     40  N        -44.3240   73.5910  -42.8710 N.3   344  PHE344     -0.1241
     41  CA       -45.6240   73.2670  -43.4600 C.3   344  PHE344      0.1605
     42  C        -46.6580   74.3960  -43.2220 C.2   344  PHE344      0.2264
     43  O        -47.7160   74.1600  -42.6610 O.2   344  PHE344     -0.2867
     44  CB       -46.0950   71.9040  -42.8940 C.3   344  PHE344      0.0534
     45  CG       -47.1110   71.1760  -43.7520 C.ar  344  PHE344     -0.0203
     46  CD1      -46.7180   70.4860  -44.8960 C.ar  344  PHE344     -0.0042
     47  CD2      -48.4580   71.1340  -43.4000 C.ar  344  PHE344     -0.0042
     48  CE1      -47.6580   69.8080  -45.6790 C.ar  344  PHE344     -0.0003
     49  CE2      -49.3960   70.4480  -44.2070 C.ar  344  PHE344     -0.0003
     50  CZ       -48.9910   69.8020  -45.3340 C.ar  344  PHE344     -0.0000
     51  N        -50.5580   65.3270  -38.0230 N.3   439  PHE439     -0.1227
     52  CA       -50.9970   65.6730  -39.3920 C.3   439  PHE439      0.1736
     53  C        -52.3690   66.3550  -39.3220 C.2   439  PHE439      0.2596
     54  O        -53.2860   65.8240  -38.6960 O.2   439  PHE439     -0.2718
     55  CB       -51.1880   64.4020  -40.2470 C.3   439  PHE439      0.0547
     56  CG       -49.9160   63.7060  -40.6830 C.ar  439  PHE439     -0.0202
     57  CD1      -49.3980   62.6470  -39.9360 C.ar  439  PHE439     -0.0042
     58  CD2      -49.3060   64.0420  -41.9030 C.ar  439  PHE439     -0.0042
     59  CE1      -48.2720   61.9680  -40.3490 C.ar  439  PHE439     -0.0003
     60  CE2      -48.1610   63.3670  -42.3360 C.ar  439  PHE439     -0.0003
     61  CZ       -47.6430   62.3210  -41.5390 C.ar  439  PHE439     -0.0000
     62  N        -52.5440   67.4850  -39.9850 N.am  440  THR440     -0.1939
     63  CA       -53.8530   68.0990  -39.9970 C.3   440  THR440      0.2028
     64  C        -54.8940   67.1740  -40.6030 C.2   440  THR440      0.2642
     65  O        -56.0770   67.2710  -40.3020 O.2   440  THR440     -0.2714
     66  CB       -53.8930   69.4590  -40.7530 C.3   440  THR440      0.1808
     67  OG1      -53.9950   69.2500  -42.1840 O.3   440  THR440     -0.2208
     68  CG2      -52.7000   70.3400  -40.3630 C.3   440  THR440      0.0379
     69  N        -54.4740   66.3030  -41.5070 N.am  441  VAL441     -0.1977
     70  CA       -55.4080   65.2590  -41.9660 C.3   441  VAL441      0.1596
     71  C        -55.4600   64.0680  -40.9720 C.2   441  VAL441      0.2287
     72  O        -54.4980   63.2990  -40.8800 O.2   441  VAL441     -0.2864
     73  CB       -55.1380   64.7660  -43.4190 C.3   441  VAL441      0.0276
     74  CG1      -55.9720   63.5260  -43.7080 C.3   441  VAL441      0.0022
     75  CG2      -55.4800   65.8500  -44.4240 C.3   441  VAL441      0.0022
     76  N        -53.7800   60.3430  -41.5940 N.3   444  LEU444     -0.1245
     77  CA       -52.3770   60.0770  -41.7490 C.3   444  LEU444      0.1561
     78  C        -51.7590   59.7280  -40.4010 C.2   444  LEU444      0.2260
     79  O        -50.6350   59.2180  -40.3370 O.2   444  LEU444     -0.2867
     80  CB       -51.6540   61.2610  -42.4050 C.3   444  LEU444      0.0270
     81  CG       -52.0580   61.5590  -43.8630 C.3   444  LEU444      0.0019
     82  CD1      -51.7090   63.0100  -44.2850 C.3   444  LEU444      0.0001
     83  CD2      -51.4980   60.5050  -44.8760 C.3   444  LEU444      0.0001
     84  N        -42.9440   62.4990  -42.0040 N.3   508  ALA508     -0.1231
     85  CA       -43.3310   63.8810  -42.0490 C.3   508  ALA508      0.1694
     86  C        -44.2140   64.2580  -40.8830 C.2   508  ALA508      0.2591
     87  O        -44.6910   63.3870  -40.1280 O.2   508  ALA508     -0.2718
     88  CB       -44.0550   64.1770  -43.3670 C.3   508  ALA508      0.0304
     89  N        -44.4430   65.5670  -40.7790 N.am  509  ALA509     -0.1980
     90  CA       -45.2570   66.1930  -39.7480 C.3   509  ALA509      0.1597
     91  C        -44.5880   66.1170  -38.3870 C.2   509  ALA509      0.2287
     92  O        -45.2290   66.3210  -37.3590 O.2   509  ALA509     -0.2864
     93  CB       -46.6440   65.5940  -39.7190 C.3   509  ALA509      0.0319
     94  N        -39.8780   69.9470  -37.0650 N.3   691  GLU691     -0.1245
     95  CA       -40.2740   71.2630  -37.5430 C.3   691  GLU691      0.1567
     96  C        -40.2710   72.3910  -36.4790 C.2   691  GLU691      0.2260
     97  O        -39.8700   73.5360  -36.8250 O.2   691  GLU691     -0.2867
     98  CB       -41.6530   71.2110  -38.1810 C.3   691  GLU691      0.0388
     99  CG       -41.7540   70.4280  -39.4580 C.3   691  GLU691      0.1160
    100  CD       -43.1940   70.0080  -39.7840 C.2   691  GLU691      0.3649
    101  OE1      -43.7540   69.1880  -39.0240 O.co2 691  GLU691     -0.2457
    102  OE2      -43.7700   70.4880  -40.7970 O.co2 691  GLU691     -0.2457
@<TRIPOS>BOND
     1    10    11    1
     2     3     4    2
     3     3     2    1
     4    11    12    1
     5    11    14    1
     6    12    13    2
     7     1     2    1
     8    15    14    1
     9    15    16    1
    10    15    17    1
    11    35    36    1
    12     2     5    1
    13    38    37    2
    14     5     6    1
    15    36    37    1
    16    36    39    1
    17     6     7    1
    18    18    19    1
    19     7     8   ar
    20     7     9   ar
    21    22    19    1
    22    22    23    1
    23    19    20    1
    24    48    50   ar
    25    48    46   ar
    26    50    49   ar
    27    20    21    2
    28    46    45   ar
    29    83    81    1
    30    75    73    1
    31    82    81    1
    32    49    47   ar
    33    81    80    1
    34    45    47   ar
    35    45    44    1
    36    74    73    1
    37    41    42    1
    38    41    44    1
    39    41    40    1
    40    73    70    1
    41    88    85    1
    42    42    43    2
    43    80    77    1
    44    60    58   ar
    45    60    61   ar
    46    67    66    1
    47    85    84    1
    48    85    86    1
    49    70    69    1
    50    70    71    1
    51    58    56   ar
    52    77    76    1
    53    77    78    1
    54    24    25    1
    55    61    59   ar
    56    69    64   am
    57    71    72    2
    58    28    25    1
    59    28    29    1
    60    86    89   am
    61    86    87    2
    62   102   100   ar
    63    89    90    1
    64    66    68    1
    65    66    63    1
    66    56    55    1
    67    56    57   ar
    68    64    65    2
    69    64    63    1
    70    25    26    1
    71    78    79    2
    72    59    57   ar
    73    26    27    2
    74    55    52    1
    75    63    62    1
    76    62    53   am
    77    30    29    1
    78    30    31    1
    79   100    99    1
    80   100   101   ar
    81    90    93    1
    82    90    91    1
    83    31    32    2
    84    99    98    1
    85    52    53    1
    86    52    51    1
    87    53    54    2
    88    32    34    1
    89    32    33    1
    90    91    92    2
    91    98    95    1
    92    95    94    1
    93    95    96    1
    94    97    96    2
