@<TRIPOS>MOLECULE
tmp/3eufD00.pdb
 153 144 0 0 0
SMALL
GASTEIGER

@<TRIPOS>ATOM
      1  N         21.0690   36.0310  -49.7410 N.3    95  MET95      -0.1245
      2  CA        19.7790   35.5530  -50.2340 C.3    95  MET95       0.1570
      3  C         18.6270   36.3640  -49.6840 C.2    95  MET95       0.2261
      4  O         18.5080   36.5290  -48.4510 O.2    95  MET95      -0.2867
      5  CB        19.5660   34.0700  -49.8780 C.3    95  MET95       0.0387
      6  CG        20.4940   33.1030  -50.7150 C.3    95  MET95       0.0595
      7  SD        20.3810   31.3980  -50.1350 S.3    95  MET95      -0.1393
      8  CE        21.0910   31.6140  -48.5720 C.3    95  MET95       0.0692
      9  N         22.1070   41.7430  -62.2990 N.3   123  ARG123     -0.1245
     10  CA        22.0640   40.6460  -61.3340 C.3   123  ARG123      0.1563
     11  C         22.1840   39.3140  -62.1100 C.2   123  ARG123      0.2260
     12  O         21.3860   39.0450  -63.0200 O.2   123  ARG123     -0.2867
     13  CB        20.7720   40.7070  -60.4810 C.3   123  ARG123      0.0307
     14  CG        20.4950   39.3810  -59.7820 C.3   123  ARG123      0.0489
     15  CD        19.3470   39.4110  -58.7030 C.3   123  ARG123      0.2205
     16  NE        18.7370   38.0800  -58.6250 N.pl3 123  ARG123     -0.0865
     17  CZ        19.3260   36.9820  -58.1800 C.cat 123  ARG123      0.5346
     18  NH1       20.5940   37.0220  -57.7370 N.pl3 123  ARG123      0.1354
     19  NH2       18.6600   35.8090  -58.2340 N.pl3 123  ARG123      0.1354
     20  N         20.2930   32.2830  -59.8500 N.3   126  THR126     -0.1203
     21  CA        19.6600   30.9970  -60.1120 C.3   126  THR126      0.1994
     22  C         18.1520   31.1570  -59.8270 C.2   126  THR126      0.2619
     23  O         17.7390   32.1060  -59.1560 O.2   126  THR126     -0.2717
     24  CB        20.2310   29.9090  -59.1980 C.3   126  THR126      0.1784
     25  OG1       19.9790   30.2560  -57.8030 O.3   126  THR126     -0.2211
     26  CG2       21.7780   29.7530  -59.4660 C.3   126  THR126      0.0376
     27  N         17.3550   30.2060  -60.2740 N.am  127  SER127     -0.1937
     28  CA        15.9140   30.3630  -60.1500 C.3   127  SER127      0.2055
     29  C         15.2360   29.0180  -60.3640 C.2   127  SER127      0.2643
     30  O         15.8890   28.0200  -60.7730 O.2   127  SER127     -0.2714
     31  CB        15.4380   31.4200  -61.1560 C.3   127  SER127      0.2130
     32  OG        15.6160   30.9450  -62.5080 O.3   127  SER127     -0.2179
     33  N         13.9370   28.9830  -60.0740 N.am  128  GLY128     -0.1954
     34  CA        13.1040   27.8110  -60.3460 C.3   128  GLY128      0.1869
     35  C         12.3880   28.1370  -61.6470 C.2   128  GLY128      0.2309
     36  O         11.8210   29.2080  -61.7850 O.2   128  GLY128     -0.2863
     37  N         11.5140   30.7450  -49.7640 N.3   198  PHE198     -0.1241
     38  CA        11.8760   29.7350  -50.7440 C.3   198  PHE198      0.1605
     39  C         10.9340   28.5100  -50.7110 C.2   198  PHE198      0.2264
     40  O         10.6790   27.8970  -51.7510 O.2   198  PHE198     -0.2867
     41  CB        13.2940   29.2680  -50.3740 C.3   198  PHE198      0.0534
     42  CG        13.9160   28.2950  -51.3380 C.ar  198  PHE198     -0.0203
     43  CD1       14.6480   28.7720  -52.4450 C.ar  198  PHE198     -0.0042
     44  CD2       13.8550   26.9200  -51.1080 C.ar  198  PHE198     -0.0042
     45  CE1       15.2640   27.8980  -53.3130 C.ar  198  PHE198     -0.0003
     46  CE2       14.4720   26.0150  -51.9870 C.ar  198  PHE198     -0.0003
     47  CZ        15.1890   26.5150  -53.0980 C.ar  198  PHE198     -0.0000
     48  N          7.2470   29.6810  -52.3080 N.3   202  GLN202     -0.1245
     49  CA         7.2920   29.2410  -53.7070 C.3   202  GLN202      0.1566
     50  C          6.4550   27.9800  -54.0100 C.2   202  GLN202      0.2260
     51  O          6.6470   27.3590  -55.0640 O.2   202  GLN202     -0.2867
     52  CB         8.7570   29.0790  -54.1870 C.3   202  GLN202      0.0367
     53  CG         9.5410   30.4360  -54.1180 C.3   202  GLN202      0.0905
     54  CD        10.9900   30.3710  -54.5950 C.2   202  GLN202      0.2608
     55  OE1       11.4320   29.3960  -55.1970 O.2   202  GLN202     -0.2717
     56  NE2       11.7110   31.4600  -54.3860 N.am  202  GLN202     -0.0878
     57  N          6.5300   25.0220  -52.6650 N.3   204  ARG204     -0.1245
     58  CA         7.2250   23.7570  -52.5420 C.3   204  ARG204      0.1563
     59  C          6.4860   22.8200  -51.5850 C.2   204  ARG204      0.2260
     60  O          5.7310   23.2750  -50.7120 O.2   204  ARG204     -0.2867
     61  CB         8.6210   23.9600  -52.0220 C.3   204  ARG204      0.0307
     62  CG         9.5480   24.7310  -53.0020 C.3   204  ARG204      0.0489
     63  CD        11.0000   24.6230  -52.4970 C.3   204  ARG204      0.2205
     64  NE        11.8790   24.2990  -53.6220 N.pl3 204  ARG204     -0.0865
     65  CZ        12.2220   25.1680  -54.5800 C.cat 204  ARG204      0.5346
     66  NH1       11.8140   26.4420  -54.5390 N.pl3 204  ARG204      0.1354
     67  NH2       13.0030   24.7650  -55.5760 N.pl3 204  ARG204      0.1354
     68  N         11.2660   31.8790  -61.0110 N.3   232  ILE232     -0.1231
     69  CA        11.0050   32.3120  -59.6440 C.3   232  ILE232      0.1692
     70  C         12.3160   32.4260  -58.8840 C.2   232  ILE232      0.2592
     71  O         13.1400   31.4920  -58.8820 O.2   232  ILE232     -0.2718
     72  CB        10.1310   31.3020  -58.8650 C.3   232  ILE232      0.0266
     73  CG1        8.8280   30.9670  -59.6270 C.3   232  ILE232      0.0019
     74  CG2        9.7740   31.8570  -57.4470 C.3   232  ILE232      0.0020
     75  CD1        8.1700   29.6580  -59.1240 C.3   232  ILE232      0.0001
     76  N         12.5110   33.5720  -58.2190 N.am  233  GLU233     -0.1966
     77  CA        13.7030   33.7550  -57.3840 C.3   233  GLU233      0.1733
     78  C         13.3960   34.7240  -56.2280 C.2   233  GLU233      0.2616
     79  O         12.2200   34.9660  -55.9430 O.2   233  GLU233     -0.2715
     80  CB        14.9400   34.1800  -58.2030 C.3   233  GLU233      0.0429
     81  CG        14.7390   35.3330  -59.1580 C.3   233  GLU233      0.1163
     82  CD        14.8030   36.6800  -58.4790 C.2   233  GLU233      0.3649
     83  OE1       15.9290   37.1730  -58.1960 O.co2 233  GLU233     -0.2457
     84  OE2       13.7250   37.2560  -58.2280 O.co2 233  GLU233     -0.2457
     85  N         14.4330   35.2840  -55.5850 N.am  234  MET234     -0.1963
     86  CA        14.1950   36.0400  -54.3470 C.3   234  MET234      0.1736
     87  C         14.7960   37.4650  -54.2590 C.2   234  MET234      0.2616
     88  O         14.7980   38.0440  -53.1680 O.2   234  MET234     -0.2715
     89  CB        14.6270   35.1910  -53.1550 C.3   234  MET234      0.0427
     90  CG        13.8820   33.8510  -53.0500 C.3   234  MET234      0.0599
     91  SD        14.6140   32.7500  -51.8510 S.3   234  MET234     -0.1393
     92  CE        14.1920   33.6740  -50.3650 C.3   234  MET234      0.0692
     93  N         15.2890   38.0510  -55.3600 N.am  235  GLU235     -0.1977
     94  CA        15.8570   39.4220  -55.2760 C.3   235  GLU235      0.1602
     95  C         15.4010   40.4850  -56.2740 C.2   235  GLU235      0.2287
     96  O         15.6730   41.6760  -56.0700 O.2   235  GLU235     -0.2864
     97  CB        17.3790   39.3680  -55.2780 C.3   235  GLU235      0.0415
     98  CG        17.9480   38.7130  -54.0010 C.3   235  GLU235      0.1163
     99  CD        18.1220   37.1890  -54.2000 C.2   235  GLU235      0.3649
    100  OE1       18.1290   36.6960  -55.3590 O.co2 235  GLU235     -0.2457
    101  OE2       18.2370   36.4770  -53.2120 O.co2 235  GLU235     -0.2457
    102  N         17.2910   25.9980  -62.5330 N.3   257  LEU257     -0.1231
    103  CA        17.9850   24.7700  -62.0910 C.3   257  LEU257      0.1693
    104  C         17.0550   23.5590  -62.1830 C.2   257  LEU257      0.2591
    105  O         17.5000   22.4250  -62.0500 O.2   257  LEU257     -0.2718
    106  CB        18.5490   24.9510  -60.6630 C.3   257  LEU257      0.0284
    107  CG        19.5730   26.0800  -60.4340 C.3   257  LEU257      0.0019
    108  CD1       20.2280   26.0170  -59.0100 C.3   257  LEU257      0.0001
    109  CD2       20.6570   26.1230  -61.5540 C.3   257  LEU257      0.0001
    110  N         15.7710   23.8130  -62.4270 N.am  258  LEU258     -0.1980
    111  CA        14.7380   22.7510  -62.4870 C.3   258  LEU258      0.1596
    112  C         13.4420   23.3590  -63.0180 C.2   258  LEU258      0.2287
    113  O         13.3160   24.5720  -63.0640 O.2   258  LEU258     -0.2864
    114  CB        14.5110   22.0730  -61.1050 C.3   258  LEU258      0.0297
    115  CG        13.6100   22.7390  -60.0440 C.3   258  LEU258      0.0022
    116  CD1       13.4230   21.8740  -58.7750 C.3   258  LEU258      0.0001
    117  CD2       14.1120   24.0850  -59.6790 C.3   258  LEU258      0.0001
    118  N          9.6940   23.6310  -62.1370 N.3   260  ARG260     -0.1245
    119  CA         8.8920   23.4890  -60.9290 C.3   260  ARG260      0.1563
    120  C          7.5650   22.7610  -61.1630 C.2   260  ARG260      0.2260
    121  O          6.9990   22.1900  -60.2320 O.2   260  ARG260     -0.2867
    122  CB         8.6800   24.8460  -60.2380 C.3   260  ARG260      0.0307
    123  CG         9.9370   25.3770  -59.4840 C.3   260  ARG260      0.0489
    124  CD        10.3310   24.5090  -58.2380 C.3   260  ARG260      0.2205
    125  NE         9.1590   24.1700  -57.4240 N.pl3 260  ARG260     -0.0865
    126  CZ         8.4040   25.0540  -56.7530 C.cat 260  ARG260      0.5346
    127  NH1        8.7040   26.3370  -56.7180 N.pl3 260  ARG260      0.1354
    128  NH2        7.3280   24.6320  -56.0830 N.pl3 260  ARG260      0.1354
    129  N         10.4050   19.8330  -56.9420 N.3   264  ASP264     -0.1225
    130  CA        10.9540   20.8600  -56.0510 C.3   264  ASP264      0.1805
    131  C         12.4570   20.7460  -55.8720 C.2   264  ASP264      0.2598
    132  O         13.1100   21.6990  -55.4260 O.2   264  ASP264     -0.2718
    133  CB        10.2640   20.8110  -54.6660 C.3   264  ASP264      0.1424
    134  CG         8.7760   21.0660  -54.7590 C.2   264  ASP264      0.3668
    135  OD1        8.3870   21.8730  -55.6340 O.co2 264  ASP264     -0.2456
    136  OD2        7.9960   20.4770  -53.9700 O.co2 264  ASP264     -0.2456
    137  N         12.9930   19.5850  -56.2160 N.am  265  GLN265     -0.1965
    138  CA        14.4170   19.3110  -56.0280 C.3   265  GLN265      0.1733
    139  C         15.1330   18.9990  -57.3590 C.2   265  GLN265      0.2616
    140  O         14.5480   18.4860  -58.3180 O.2   265  GLN265     -0.2715
    141  CB        14.6540   18.2130  -54.9500 C.3   265  GLN265      0.0408
    142  CG        13.8750   18.4360  -53.5880 C.3   265  GLN265      0.0908
    143  CD        14.5610   17.8460  -52.3240 C.2   265  GLN265      0.2608
    144  OE1       15.5400   17.0870  -52.4050 O.2   265  GLN265     -0.2717
    145  NE2       14.0390   18.2080  -51.1470 N.am  265  GLN265     -0.0878
    146  N         16.4160   19.3380  -57.3990 N.am  266  ILE266     -0.1977
    147  CA        17.1910   19.3250  -58.6390 C.3   266  ILE266      0.1596
    148  C         17.5980   17.8920  -58.9470 C.2   266  ILE266      0.2287
    149  O         18.2920   17.2770  -58.1410 O.2   266  ILE266     -0.2864
    150  CB        18.4470   20.2480  -58.5050 C.3   266  ILE266      0.0276
    151  CG1       18.0320   21.7050  -58.3020 C.3   266  ILE266      0.0022
    152  CG2       19.3700   20.1280  -59.7250 C.3   266  ILE266      0.0022
    153  CD1       19.1350   22.5590  -57.8150 C.3   266  ILE266      0.0001
@<TRIPOS>BOND
     1   113   112    2
     2    12    11    2
     3   112   111    1
     4   102   103    1
     5    32    31    1
     6   111   110    1
     7   111   114    1
     8   110   104   am
     9     9    10    1
    10   104   103    1
    11   104   105    2
    12   118   119    1
    13    11    10    1
    14   103   106    1
    15    36    35    2
    16    35    34    1
    17   109   107    1
    18    10    13    1
    19   120   119    1
    20   120   121    2
    21    31    28    1
    22   114   115    1
    23    68    69    1
    24   119   122    1
    25    30    29    2
    26   106   107    1
    27    13    14    1
    28   107   108    1
    29    29    28    1
    30    29    33   am
    31    34    33    1
    32    27    28    1
    33    27    22   am
    34   122   123    1
    35    21    20    1
    36    21    22    1
    37    21    24    1
    38   115   117    1
    39   115   116    1
    40    22    23    2
    41    14    15    1
    42   152   150    1
    43    69    70    1
    44    69    72    1
    45    73    75    1
    46    73    72    1
    47   123   124    1
    48    26    24    1
    49    24    25    1
    50    81    82    1
    51    81    80    1
    52   148   147    1
    53   148   149    2
    54    70    71    2
    55    70    76   am
    56    72    74    1
    57    15    16    1
    58   147   150    1
    59   147   146    1
    60    16    17    2
    61   150   151    1
    62    82    84   ar
    63    82    83   ar
    64   140   139    2
    65   151   153    1
    66   124   125    1
    67    19    17    1
    68    76    77    1
    69    80    77    1
    70    17    18    1
    71   125   126    2
    72   146   139   am
    73    77    78    1
    74   139   138    1
    75   129   130    1
    76   126   127    1
    77   126   128    1
    78    95    96    2
    79    95    94    1
    80    78    79    2
    81    78    85   am
    82   137   138    1
    83   137   131   am
    84   130   131    1
    85   130   133    1
    86   138   141    1
    87   131   132    2
    88   135   134   ar
    89    85    86    1
    90    67    65    1
    91    93    94    1
    92    93    87   am
    93   100    99   ar
    94    97    94    1
    95    97    98    1
    96    55    54    2
    97    51    50    2
    98   141   142    1
    99   134   133    1
   100   134   136   ar
   101    54    56   am
   102    54    53    1
   103    65    66    1
   104    65    64    2
   105    86    87    1
   106    86    89    1
   107    87    88    2
   108    99    98    1
   109    99   101   ar
   110    52    53    1
   111    52    49    1
   112    50    49    1
   113    49    48    1
   114    64    63    1
   115   142   143    1
   116    45    47   ar
   117    45    43   ar
   118    89    90    1
   119    47    46   ar
   120    90    91    1
   121    62    63    1
   122    62    61    1
   123    57    58    1
   124    58    61    1
   125    58    59    1
   126    43    42   ar
   127   144   143    2
   128   143   145   am
   129    46    44   ar
   130    91    92    1
   131    40    39    2
   132    59    60    2
   133    42    44   ar
   134    42    41    1
   135    38    39    1
   136    38    41    1
   137    38    37    1
   138     6     7    1
   139     6     5    1
   140     2     5    1
   141     2     1    1
   142     2     3    1
   143     7     8    1
   144     3     4    2
