@<TRIPOS>MOLECULE
tmp/3eufA00.pdb
 153 144 0 0 0
SMALL
GASTEIGER

@<TRIPOS>ATOM
      1  N         51.4890   70.4490  -15.8310 N.3    95  MET95      -0.1245
      2  CA        52.0270   71.7130  -15.3910 C.3    95  MET95       0.1570
      3  C         51.3050   72.9400  -15.9800 C.2    95  MET95       0.2261
      4  O         51.1470   73.0370  -17.2140 O.2    95  MET95      -0.2867
      5  CB        53.5220   71.7900  -15.7180 C.3    95  MET95       0.0387
      6  CG        54.3260   70.6760  -14.9490 C.3    95  MET95       0.0595
      7  SD        56.0940   70.7030  -15.3880 S.3    95  MET95      -0.1393
      8  CE        56.0820   70.1780  -17.0030 C.3    95  MET95       0.0692
      9  N         45.7630   70.0820   -3.2390 N.3   123  ARG123     -0.1245
     10  CA        46.8600   70.0350   -4.1790 C.3   123  ARG123      0.1563
     11  C         48.1330   69.7520   -3.4430 C.2   123  ARG123      0.2260
     12  O         48.4920   70.4860   -2.5090 O.2   123  ARG123     -0.2867
     13  CB        46.9690   71.3370   -4.9760 C.3   123  ARG123      0.0307
     14  CG        48.1340   71.3090   -5.9850 C.3   123  ARG123      0.0489
     15  CD        48.2360   72.5590   -6.8720 C.3   123  ARG123      0.2205
     16  NE        49.6470   72.9790   -7.0040 N.pl3 123  ARG123     -0.0865
     17  CZ        50.6640   72.2090   -7.4100 C.cat 123  ARG123      0.5346
     18  NH1       50.4870   70.9590   -7.7940 N.pl3 123  ARG123      0.1354
     19  NH2       51.8970   72.7210   -7.4590 N.pl3 123  ARG123      0.1354
     20  N         55.2760   70.9540   -5.8590 N.3   126  THR126     -0.1203
     21  CA        56.6510   71.3760   -5.6190 C.3   126  THR126      0.1994
     22  C         56.6800   72.8590   -5.8830 C.2   126  THR126      0.2619
     23  O         55.7580   73.4040   -6.5260 O.2   126  THR126     -0.2717
     24  CB        57.6620   70.6900   -6.5680 C.3   126  THR126      0.1784
     25  OG1       57.2850   70.9380   -7.9580 O.3   126  THR126     -0.2211
     26  CG2       57.7550   69.1760   -6.2900 C.3   126  THR126      0.0376
     27  N         57.7430   73.5450   -5.4390 N.am  127  SER127     -0.1937
     28  CA        57.7510   74.9930   -5.5540 C.3   127  SER127      0.2055
     29  C         59.1390   75.5200   -5.3430 C.2   127  SER127      0.2643
     30  O         59.9860   74.8110   -4.8360 O.2   127  SER127     -0.2714
     31  CB        56.7850   75.6290   -4.5310 C.3   127  SER127      0.2130
     32  OG        57.1950   75.3510   -3.1820 O.3   127  SER127     -0.2179
     33  N         59.3740   76.7590   -5.7600 N.am  128  GLY128     -0.1954
     34  CA        60.6010   77.4950   -5.3900 C.3   128  GLY128      0.1869
     35  C         60.3120   78.2330   -4.0840 C.2   128  GLY128      0.2309
     36  O         59.3200   78.9420   -3.9920 O.2   128  GLY128     -0.2863
     37  N         57.8800   79.4120  -16.0220 N.3   198  PHE198     -0.1241
     38  CA        58.7600   78.9060  -14.9550 C.3   198  PHE198      0.1605
     39  C         60.0880   79.6800  -14.9620 C.2   198  PHE198      0.2264
     40  O         60.7480   79.8180  -13.9270 O.2   198  PHE198     -0.2867
     41  CB        58.9530   77.3910  -15.2520 C.3   198  PHE198      0.0534
     42  CG        59.9040   76.6500  -14.3320 C.ar  198  PHE198     -0.0203
     43  CD1       59.4080   75.9530  -13.2330 C.ar  198  PHE198     -0.0042
     44  CD2       61.2740   76.5980  -14.6060 C.ar  198  PHE198     -0.0042
     45  CE1       60.2660   75.2110  -12.3950 C.ar  198  PHE198     -0.0003
     46  CE2       62.1570   75.8790  -13.7900 C.ar  198  PHE198     -0.0003
     47  CZ        61.6400   75.1690  -12.6670 C.ar  198  PHE198     -0.0000
     48  N         59.4030   83.4800  -13.3910 N.3   202  GLN202     -0.1245
     49  CA        59.7960   83.3630  -11.9570 C.3   202  GLN202      0.1566
     50  C         61.1720   83.9910  -11.6610 C.2   202  GLN202      0.2260
     51  O         61.7610   83.7590  -10.6100 O.2   202  GLN202     -0.2867
     52  CB        59.7410   81.9070  -11.4840 C.3   202  GLN202      0.0367
     53  CG        58.3950   81.2590  -11.7630 C.3   202  GLN202      0.0905
     54  CD        58.2930   79.8630  -11.2480 C.2   202  GLN202      0.2608
     55  OE1       59.2500   79.3050  -10.6980 O.2   202  GLN202     -0.2717
     56  NE2       57.1060   79.2730  -11.4070 N.am  202  GLN202     -0.0878
     57  N         64.1100   83.5710  -13.1180 N.3   204  ARG204     -0.1245
     58  CA        65.3030   82.7340  -13.3020 C.3   204  ARG204      0.1563
     59  C         66.2920   83.3600  -14.2930 C.2   204  ARG204      0.2260
     60  O         65.8880   84.0860  -15.2180 O.2   204  ARG204     -0.2867
     61  CB        64.9290   81.3300  -13.8270 C.3   204  ARG204      0.0307
     62  CG        64.0750   80.4780  -12.9120 C.3   204  ARG204      0.0489
     63  CD        64.1420   78.9970  -13.3740 C.3   204  ARG204      0.2205
     64  NE        64.3080   78.0940  -12.2450 N.pl3 204  ARG204     -0.0865
     65  CZ        63.4050   77.9450  -11.2660 C.cat 204  ARG204      0.5346
     66  NH1       62.2470   78.6120  -11.2880 N.pl3 204  ARG204      0.1354
     67  NH2       63.6530   77.1110  -10.2720 N.pl3 204  ARG204      0.1354
     68  N         56.7970   79.7190   -4.7760 N.3   232  ILE232     -0.1231
     69  CA        56.3950   80.0510   -6.1470 C.3   232  ILE232      0.1692
     70  C         56.1200   78.7850   -6.9210 C.2   232  ILE232      0.2592
     71  O         56.9740   77.8890   -6.9630 O.2   232  ILE232     -0.2718
     72  CB        57.5240   80.8030   -6.9130 C.3   232  ILE232      0.0266
     73  CG1       58.1530   81.9140   -6.0710 C.3   232  ILE232      0.0019
     74  CG2       57.0280   81.3480   -8.2910 C.3   232  ILE232      0.0020
     75  CD1       59.4040   82.6680   -6.7950 C.3   232  ILE232      0.0001
     76  N         54.9590   78.7320   -7.5910 N.am  233  GLU233     -0.1966
     77  CA        54.5830   77.5240   -8.3240 C.3   233  GLU233      0.1733
     78  C         53.6870   77.9310   -9.5020 C.2   233  GLU233      0.2616
     79  O         53.7050   79.1090   -9.8480 O.2   233  GLU233     -0.2715
     80  CB        54.0180   76.4000   -7.4070 C.3   233  GLU233      0.0429
     81  CG        52.8630   76.7510   -6.4890 C.3   233  GLU233      0.1163
     82  CD        51.5200   76.7870   -7.2110 C.2   233  GLU233      0.3649
     83  OE1       51.0200   75.7100   -7.6210 O.co2 233  GLU233     -0.2457
     84  OE2       50.9840   77.9120   -7.3780 O.co2 233  GLU233     -0.2457
     85  N         52.9670   76.9850  -10.1220 N.am  234  MET234     -0.1963
     86  CA        52.2480   77.2830  -11.3750 C.3   234  MET234      0.1736
     87  C         50.7700   76.8190  -11.4890 C.2   234  MET234      0.2616
     88  O         50.2020   76.8450  -12.5910 O.2   234  MET234     -0.2715
     89  CB        53.0850   76.7860  -12.5450 C.3   234  MET234      0.0427
     90  CG        54.4790   77.4280  -12.5990 C.3   234  MET234      0.0599
     91  SD        55.4730   76.6440  -13.8850 S.3   234  MET234     -0.1393
     92  CE        54.6710   77.4440  -15.3070 C.3   234  MET234      0.0692
     93  N         50.1300   76.4270  -10.3840 N.am  235  GLU235     -0.1977
     94  CA        48.7200   75.9750  -10.4520 C.3   235  GLU235      0.1602
     95  C         47.7880   76.6080   -9.4190 C.2   235  GLU235      0.2287
     96  O         46.5650   76.4950   -9.5320 O.2   235  GLU235     -0.2864
     97  CB        48.6330   74.4490  -10.3030 C.3   235  GLU235      0.0415
     98  CG        49.1760   73.6660  -11.4780 C.3   235  GLU235      0.1163
     99  CD        50.6650   73.4410  -11.3560 C.2   235  GLU235      0.3649
    100  OE1       51.1950   73.2740  -10.2200 O.co2 235  GLU235     -0.2457
    101  OE2       51.3190   73.4010  -12.3810 O.co2 235  GLU235     -0.2457
    102  N         61.9360   73.1380   -3.2060 N.3   257  LEU257     -0.1231
    103  CA        63.0970   72.3090   -3.6540 C.3   257  LEU257      0.1693
    104  C         64.4170   73.0720   -3.6500 C.2   257  LEU257      0.2591
    105  O         65.4860   72.4680   -3.7570 O.2   257  LEU257     -0.2718
    106  CB        62.8770   71.7550   -5.0550 C.3   257  LEU257      0.0284
    107  CG        61.6170   70.8610   -5.2150 C.3   257  LEU257      0.0019
    108  CD1       61.5380   70.2910   -6.6730 C.3   257  LEU257      0.0001
    109  CD2       61.5790   69.7150   -4.1600 C.3   257  LEU257      0.0001
    110  N         64.3340   74.3750   -3.5130 N.am  258  LEU258     -0.1980
    111  CA        65.5050   75.2480   -3.3710 C.3   258  LEU258      0.1596
    112  C         65.0940   76.5930   -2.8050 C.2   258  LEU258      0.2287
    113  O         63.8950   76.9240   -2.7420 O.2   258  LEU258     -0.2864
    114  CB        66.2110   75.4080   -4.7400 C.3   258  LEU258      0.0297
    115  CG        65.6640   76.4490   -5.7310 C.3   258  LEU258      0.0022
    116  CD1       66.3320   76.2920   -7.0760 C.3   258  LEU258      0.0001
    117  CD2       64.1700   76.3860   -5.8890 C.3   258  LEU258      0.0001
    118  N         65.1610   80.3510   -3.6690 N.3   260  ARG260     -0.1245
    119  CA        65.3780   81.1540   -4.8960 C.3   260  ARG260      0.1563
    120  C         66.2180   82.4150   -4.6760 C.2   260  ARG260      0.2260
    121  O         66.8030   82.9640   -5.6150 O.2   260  ARG260     -0.2867
    122  CB        64.0570   81.4870   -5.5950 C.3   260  ARG260      0.0307
    123  CG        63.3920   80.2850   -6.2850 C.3   260  ARG260      0.0489
    124  CD        64.1310   79.7310   -7.5810 C.3   260  ARG260      0.2205
    125  NE        64.6750   80.8010   -8.4250 N.pl3 260  ARG260     -0.0865
    126  CZ        63.9630   81.7240   -9.0690 C.cat 260  ARG260      0.5346
    127  NH1       62.6260   81.7630   -9.0510 N.pl3 260  ARG260      0.1354
    128  NH2       64.6140   82.6530   -9.7410 N.pl3 260  ARG260      0.1354
    129  N         68.8500   79.1680   -8.8660 N.3   264  ASP264     -0.1225
    130  CA        67.7840   78.7000   -9.7740 C.3   264  ASP264      0.1805
    131  C         67.7040   77.1890   -9.9970 C.2   264  ASP264      0.2598
    132  O         66.6390   76.6660  -10.3720 O.2   264  ASP264     -0.2718
    133  CB        67.9730   79.3750  -11.1480 C.3   264  ASP264      0.1424
    134  CG        67.8410   80.8930  -11.0860 C.2   264  ASP264      0.3668
    135  OD1       67.0410   81.3940  -10.2620 O.co2 264  ASP264     -0.2456
    136  OD2       68.5310   81.5900  -11.8630 O.co2 264  ASP264     -0.2456
    137  N         68.8190   76.4930   -9.8230 N.am  265  GLN265     -0.1965
    138  CA        68.8490   75.0240  -10.0310 C.3   265  GLN265      0.1733
    139  C         69.0340   74.2950   -8.6890 C.2   265  GLN265      0.2616
    140  O         69.6080   74.8580   -7.7400 O.2   265  GLN265     -0.2715
    141  CB        69.8900   74.5880  -11.1010 C.3   265  GLN265      0.0408
    142  CG        69.8490   75.4350  -12.3870 C.3   265  GLN265      0.0908
    143  CD        70.2190   74.6880  -13.6780 C.2   265  GLN265      0.2608
    144  OE1       70.9870   73.7100  -13.6820 O.2   265  GLN265     -0.2717
    145  NE2       69.6640   75.1610  -14.7870 N.am  265  GLN265     -0.0878
    146  N         68.5140   73.0650   -8.6140 N.am  266  ILE266     -0.1977
    147  CA        68.5720   72.2660   -7.3870 C.3   266  ILE266      0.1596
    148  C         69.9850   71.7340   -7.1480 C.2   266  ILE266      0.2287
    149  O         70.5820   71.1210   -8.0430 O.2   266  ILE266     -0.2864
    150  CB        67.5340   71.1110   -7.4250 C.3   266  ILE266      0.0276
    151  CG1       66.1240   71.6940   -7.3020 C.3   266  ILE266      0.0022
    152  CG2       67.8020   70.1020   -6.2910 C.3   266  ILE266      0.0022
    153  CD1       65.0300   70.8630   -7.9520 C.3   266  ILE266      0.0001
@<TRIPOS>BOND
     1     4     3    2
     2     8     7    1
     3    37    38    1
     4     3     2    1
     5     1     2    1
     6     5     2    1
     7     5     6    1
     8     7     6    1
     9    92    91    1
    10    41    38    1
    11    41    42    1
    12    60    59    2
    13    39    38    1
    14    39    40    2
    15   145   143   am
    16    44    42   ar
    17    44    46   ar
    18    42    43   ar
    19    59    58    1
    20    91    90    1
    21    61    58    1
    22    61    62    1
    23    46    47   ar
    24   144   143    2
    25   143   142    1
    26    48    49    1
    27    63    62    1
    28    63    64    1
    29    58    57    1
    30    43    45   ar
    31    47    45   ar
    32    90    89    1
    33    88    87    2
    34    89    86    1
    35   142   141    1
    36   101    99   ar
    37    64    65    2
    38    49    50    1
    39    49    52    1
    40   136   134   ar
    41    53    52    1
    42    53    54    1
    43    50    51    2
    44    87    86    1
    45    87    93   am
    46    98    99    1
    47    98    97    1
    48    56    54   am
    49    86    85    1
    50    99   100   ar
    51    66    65    1
    52    65    67    1
    53    54    55    2
    54   133   134    1
    55   133   130    1
    56   141   138    1
    57   134   135   ar
    58    94    93    1
    59    94    97    1
    60    94    95    1
    61   132   131    2
    62    85    78   am
    63   138   137    1
    64   138   139    1
    65   131   137   am
    66   131   130    1
    67    79    78    2
    68   130   129    1
    69   128   126    1
    70    96    95    2
    71    78    77    1
    72   126   127    1
    73   126   125    2
    74   139   146   am
    75   139   140    2
    76   146   147    1
    77   125   124    1
    78    77    76    1
    79    77    80    1
    80    74    72    1
    81   149   148    2
    82    25    24    1
    83   153   151    1
    84    18    17    1
    85    83    82   ar
    86    76    70   am
    87   124   123    1
    88    19    17    1
    89   150   147    1
    90   150   151    1
    91   150   152    1
    92    17    16    2
    93    80    81    1
    94   147   148    1
    95    84    82   ar
    96    82    81    1
    97   116   115    1
    98    16    15    1
    99    71    70    2
   100    70    69    1
   101    72    69    1
   102    72    73    1
   103    15    14    1
   104    75    73    1
   105   108   107    1
   106    24    26    1
   107    24    21    1
   108    23    22    2
   109   123   122    1
   110    69    68    1
   111    14    13    1
   112   117   115    1
   113    22    21    1
   114    22    27   am
   115    20    21    1
   116    33    34    1
   117    33    29   am
   118   115   114    1
   119   121   120    2
   120   122   119    1
   121    28    27    1
   122    28    29    1
   123    28    31    1
   124    34    35    1
   125    29    30    2
   126   107   106    1
   127   107   109    1
   128   106   103    1
   129    13    10    1
   130   119   120    1
   131   119   118    1
   132   114   111    1
   133    31    32    1
   134    10    11    1
   135    10     9    1
   136    35    36    2
   137   105   104    2
   138   103   104    1
   139   103   102    1
   140   104   110   am
   141   110   111    1
   142    11    12    2
   143   111   112    1
   144   112   113    2
