@<TRIPOS>MOLECULE
tmp/3eujA00.pdb
 120 112 0 0 0
SMALL
GASTEIGER

@<TRIPOS>ATOM
      1  N         10.1390   74.6850   20.1210 N.3    16  ASN16      -0.1240
      2  CA         9.5310   75.1710   21.3490 C.3    16  ASN16       0.1653
      3  C          9.9250   76.6100   21.6680 C.2    16  ASN16       0.2266
      4  O         11.1110   76.9210   21.8100 O.2    16  ASN16      -0.2867
      5  CB         9.9110   74.2720   22.5160 C.3    16  ASN16       0.1155
      6  CG         9.6670   74.9370   23.8460 C.2    16  ASN16       0.2627
      7  OD1        8.5310   75.3270   24.1710 O.2    16  ASN16      -0.2716
      8  ND2       10.7350   75.0850   24.6290 N.am   16  ASN16      -0.0877
      9  N         18.5760   82.5330   32.7440 N.3    36  ASN36      -0.1225
     10  CA        18.3950   81.0980   32.9240 C.3    36  ASN36       0.1785
     11  C         17.1100   80.6790   32.2220 C.2    36  ASN36       0.2598
     12  O         16.1020   81.3690   32.3130 O.2    36  ASN36      -0.2718
     13  CB        18.2740   80.7740   34.4090 C.3    36  ASN36       0.1169
     14  CG        19.5730   80.9570   35.1570 C.2    36  ASN36       0.2627
     15  OD1       19.6080   80.8540   36.3810 O.2    36  ASN36      -0.2716
     16  ND2       20.6550   81.2220   34.4290 N.am   36  ASN36      -0.0877
     17  N         17.1370   79.5610   31.5080 N.am   37  GLY37      -0.1942
     18  CA        15.9300   79.0990   30.8430 C.3    37  GLY37       0.2014
     19  C         15.4890   79.8620   29.6000 C.2    37  GLY37       0.2639
     20  O         14.4550   79.5230   29.0060 O.2    37  GLY37      -0.2714
     21  N         16.2730   80.8670   29.1970 N.am   38  ALA38      -0.1963
     22  CA        15.9760   81.7040   28.0290 C.3    38  ALA38       0.1728
     23  C         15.8070   80.9610   26.6960 C.2    38  ALA38       0.2617
     24  O         14.9900   81.3600   25.8620 O.2    38  ALA38      -0.2715
     25  CB        17.0460   82.7510   27.8910 C.3    38  ALA38       0.0334
     26  N         16.5840   79.8950   26.4930 N.am   39  GLY39      -0.1940
     27  CA        16.4970   79.1310   25.2550 C.3    39  GLY39       0.2014
     28  C         17.7840   79.1370   24.4440 C.2    39  GLY39       0.2639
     29  O         17.8120   78.7100   23.2930 O.2    39  GLY39      -0.2714
     30  N         18.8640   79.6010   25.0530 N.am   40  LYS40      -0.1963
     31  CA        20.1340   79.6790   24.3600 C.3    40  LYS40       0.1728
     32  C         20.7030   78.3230   23.9990 C.2    40  LYS40       0.2617
     33  O         21.3140   78.1740   22.9520 O.2    40  LYS40      -0.2715
     34  CB        21.1380   80.4790   25.1960 C.3    40  LYS40       0.0311
     35  CG        20.6800   81.9210   25.4970 C.3    40  LYS40       0.0038
     36  CD        21.6630   82.6690   26.3890 C.3    40  LYS40       0.0206
     37  CE        21.8400   81.9660   27.7180 C.3    40  LYS40       0.1093
     38  NZ        20.5240   81.7040   28.3900 N.3    40  LYS40      -0.1314
     39  N         20.5070   77.3330   24.8620 N.am   41  SER41      -0.1936
     40  CA        21.0030   75.9770   24.6130 C.3    41  SER41       0.2055
     41  C         20.1480   75.1910   23.6410 C.2    41  SER41       0.2643
     42  O         20.6640   74.3840   22.8700 O.2    41  SER41      -0.2714
     43  CB        21.1080   75.1990   25.9100 C.3    41  SER41       0.2130
     44  OG        22.2010   75.6910   26.6490 O.3    41  SER41      -0.2179
     45  N         18.8390   75.3920   23.6850 N.am   42  THR42      -0.1950
     46  CA        18.0050   74.6830   22.7440 C.3    42  THR42       0.1897
     47  C         18.3140   75.2450   21.3480 C.2    42  THR42       0.2313
     48  O         17.9280   74.6600   20.3440 O.2    42  THR42      -0.2863
     49  CB        16.5210   74.8560   23.0590 C.3    42  THR42       0.1794
     50  OG1       16.1730   76.2350   22.9730 O.3    42  THR42      -0.2208
     51  CG2       16.2260   74.3840   24.4420 C.3    42  THR42       0.0378
     52  N         16.2760   60.0280   29.2980 N.3    74  ASP74      -0.1239
     53  CA        15.7390   60.7730   28.1570 C.3    74  ASP74       0.1674
     54  C         16.7870   61.5820   27.3890 C.2    74  ASP74       0.2266
     55  O         17.6120   62.2800   27.9830 O.2    74  ASP74      -0.2867
     56  CB        14.6180   61.6920   28.6460 C.3    74  ASP74       0.1410
     57  CG        14.3460   62.8360   27.7010 C.2    74  ASP74       0.3668
     58  OD1       14.2550   62.5860   26.4790 O.co2  74  ASP74      -0.2456
     59  OD2       14.2150   63.9830   28.1880 O.co2  74  ASP74      -0.2456
     60  N         16.3770   64.1730   25.6480 N.3    76  GLY76      -0.1225
     61  CA        16.1620   65.6070   25.7920 C.3    76  GLY76       0.1811
     62  C         15.8510   66.5740   24.6600 C.2    76  GLY76       0.2280
     63  O         15.7740   67.7820   24.9090 O.2    76  GLY76      -0.2866
     64  N         11.4340   67.4600   23.8040 N.3    79  GLY79      -0.1210
     65  CA        10.7840   68.5520   24.4930 C.3    79  GLY79       0.1956
     66  C         11.0910   69.9490   24.0180 C.2    79  GLY79       0.2611
     67  O         10.3960   70.8970   24.3920 O.2    79  GLY79      -0.2717
     68  N         12.1250   70.0960   23.2040 N.am   80  LYS80      -0.1979
     69  CA        12.4850   71.4170   22.7150 C.3    80  LYS80       0.1596
     70  C         11.6450   71.6940   21.4830 C.2    80  LYS80       0.2287
     71  O         11.6180   72.8130   20.9650 O.2    80  LYS80      -0.2864
     72  CB        13.9760   71.4650   22.3760 C.3    80  LYS80       0.0298
     73  CG        14.8770   71.0980   23.5530 C.3    80  LYS80       0.0038
     74  CD        16.3530   71.1220   23.1820 C.3    80  LYS80       0.0206
     75  CE        17.2020   70.6280   24.3450 C.3    80  LYS80       0.1093
     76  NZ        16.9290   71.3860   25.6000 N.3    80  LYS80      -0.1314
     77  N         29.1820   76.7730   25.7400 N.3   375  ASP375     -0.1225
     78  CA        27.9930   76.9390   26.5680 C.3   375  ASP375      0.1805
     79  C         28.4510   77.3050   27.9870 C.2   375  ASP375      0.2597
     80  O         29.4750   76.8100   28.4620 O.2   375  ASP375     -0.2718
     81  CB        27.2090   75.6270   26.5720 C.3   375  ASP375      0.1424
     82  CG        25.7400   75.8110   26.9130 C.2   375  ASP375      0.3668
     83  OD1       24.9510   74.8740   26.6160 O.co2 375  ASP375     -0.2456
     84  OD2       25.3760   76.8740   27.4790 O.co2 375  ASP375     -0.2456
     85  N         27.7010   78.1660   28.6700 N.am  376  GLN376     -0.1979
     86  CA        28.0930   78.5940   30.0120 C.3   376  GLN376      0.1601
     87  C         29.5060   79.1600   29.9330 C.2   376  GLN376      0.2287
     88  O         30.4420   78.6290   30.5330 O.2   376  GLN376     -0.2864
     89  CB        28.0490   77.4200   30.9930 C.3   376  GLN376      0.0394
     90  CG        26.6430   76.8970   31.2680 C.3   376  GLN376      0.0908
     91  CD        25.6550   77.9870   31.7050 C.2   376  GLN376      0.2608
     92  OE1       24.5280   77.6930   32.1200 O.2   376  GLN376     -0.2717
     93  NE2       26.0710   79.2460   31.6010 N.am  376  GLN376     -0.0878
     94  N         25.2750   82.9250   30.1560 N.3   404  PRO404     -0.2116
     95  CA        24.1170   82.9320   31.0550 C.3   404  PRO404      0.1372
     96  C         24.0350   84.3700   31.5470 C.2   404  PRO404      0.2244
     97  O         23.0390   84.7900   32.1400 O.2   404  PRO404     -0.2868
     98  CB        24.5230   81.9500   32.1540 C.3   404  PRO404      0.0268
     99  CG        26.0350   82.1350   32.2250 C.3   404  PRO404      0.0207
    100  CD        26.4160   82.1950   30.7550 C.3   404  PRO404      0.0892
    101  N         12.4240   84.8470   27.1750 N.3   419  ARG419     -0.1245
    102  CA        11.2560   83.9800   27.1010 C.3   419  ARG419      0.1563
    103  C         10.0330   84.5760   27.7730 C.2   419  ARG419      0.2260
    104  O         10.0210   84.7460   28.9810 O.2   419  ARG419     -0.2867
    105  CB        11.6060   82.6050   27.6900 C.3   419  ARG419      0.0307
    106  CG        10.4780   81.6220   27.7370 C.3   419  ARG419      0.0489
    107  CD        11.0290   80.2280   27.7860 C.3   419  ARG419      0.2205
    108  NE        11.1260   79.6420   26.4480 N.pl3 419  ARG419     -0.0865
    109  CZ        11.9530   78.6510   26.1140 C.cat 419  ARG419      0.5346
    110  NH1       12.7670   78.1370   27.0360 N.pl3 419  ARG419      0.1354
    111  NH2       11.9730   78.1730   24.8660 N.pl3 419  ARG419      0.1354
    112  N          4.8700   79.3680   25.2440 N.3   426  GLU426     -0.1245
    113  CA         6.2280   79.8810   25.3620 C.3   426  GLU426      0.1567
    114  C          6.5490   80.6840   24.0940 C.2   426  GLU426      0.2260
    115  O          6.4000   80.1810   22.9730 O.2   426  GLU426     -0.2867
    116  CB         7.2130   78.7140   25.5000 C.3   426  GLU426      0.0388
    117  CG         7.0050   77.8000   26.7170 C.3   426  GLU426      0.1160
    118  CD         7.7450   78.2780   27.9710 C.2   426  GLU426      0.3649
    119  OE1        7.4380   79.3990   28.4540 O.co2 426  GLU426     -0.2457
    120  OE2        8.6310   77.5300   28.4720 O.co2 426  GLU426     -0.2457
@<TRIPOS>BOND
     1     1     2    1
     2    48    47    2
     3    71    70    2
     4    47    46    1
     5     2     3    1
     6     2     5    1
     7    70    69    1
     8     3     4    2
     9    72    69    1
    10    72    73    1
    11     5     6    1
    12    69    68    1
    13    46    49    1
    14    46    45    1
    15    42    41    2
    16    33    32    2
    17    50    49    1
    18   115   114    2
    19    49    51    1
    20    74    73    1
    21    74    75    1
    22    68    66   am
    23    29    28    2
    24    41    45   am
    25    41    40    1
    26    64    65    1
    27     6     7    2
    28     6     8   am
    29    32    31    1
    30    32    39   am
    31    66    67    2
    32    66    65    1
    33   114   113    1
    34    75    76    1
    35    31    30    1
    36    31    34    1
    37    28    30   am
    38    28    27    1
    39    40    39    1
    40    40    43    1
    41    62    63    2
    42    62    61    1
    43   111   109    1
    44    34    35    1
    45   112   113    1
    46    27    26    1
    47   113   116    1
    48    35    36    1
    49   116   117    1
    50    60    61    1
    51    77    78    1
    52    24    23    2
    53    43    44    1
    54   109   108    2
    55   109   110    1
    56    36    37    1
    57   108   107    1
    58    58    57   ar
    59    26    23   am
    60    78    81    1
    61    78    79    1
    62    81    82    1
    63    83    82   ar
    64    23    22    1
    65   117   118    1
    66    82    84   ar
    67   102   101    1
    68   102   105    1
    69   102   103    1
    70    54    55    2
    71    54    53    1
    72   105   106    1
    73    57    59   ar
    74    57    56    1
    75    37    38    1
    76   106   107    1
    77   103   104    2
    78    25    22    1
    79   118   119   ar
    80   118   120   ar
    81    79    80    2
    82    79    85   am
    83    22    21    1
    84    53    56    1
    85    53    52    1
    86    85    86    1
    87    20    19    2
    88    21    19   am
    89    19    18    1
    90    87    86    1
    91    87    88    2
    92    86    89    1
    93    94   100    1
    94    94    95    1
    95   100    99    1
    96    18    17    1
    97    89    90    1
    98    95    96    1
    99    95    98    1
   100    90    91    1
   101    17    11   am
   102    96    97    2
   103    93    91   am
   104    91    92    2
   105    98    99    1
   106    11    12    2
   107    11    10    1
   108     9    10    1
   109    10    13    1
   110    13    14    1
   111    16    14   am
   112    14    15    2
