@<TRIPOS>MOLECULE
tmp/3eukE01.pdb
 131 122 0 0 0
SMALL
GASTEIGER

@<TRIPOS>ATOM
      1  N        -64.8930   22.2210  -17.6350 N.3    16  ASN16      -0.1240
      2  CA       -64.4810   20.9140  -17.1280 C.3    16  ASN16       0.1653
      3  C        -64.3980   20.9270  -15.6050 C.2    16  ASN16       0.2266
      4  O        -63.4800   21.5020  -15.0170 O.2    16  ASN16      -0.2867
      5  CB       -63.1410   20.4830  -17.7260 C.3    16  ASN16       0.1155
      6  CG       -63.1220   19.0110  -18.0930 C.2    16  ASN16       0.2627
      7  OD1      -63.7650   18.5920  -19.0530 O.2    16  ASN16      -0.2716
      8  ND2      -62.3970   18.2180  -17.3230 N.am   16  ASN16      -0.0877
      9  N        -54.2100   21.4620   -6.0300 N.3    35  GLY35      -0.1210
     10  CA       -53.3880   20.3600   -6.5120 C.3    35  GLY35       0.1956
     11  C        -52.8790   20.4980   -7.9350 C.2    35  GLY35       0.2612
     12  O        -53.1000   21.5190   -8.5840 O.2    35  GLY35      -0.2717
     13  N        -52.1830   19.4740   -8.4240 N.am   36  ASN36      -0.1960
     14  CA       -51.6670   19.5070   -9.7850 C.3    36  ASN36       0.1819
     15  C        -52.7390   19.1180  -10.7770 C.2    36  ASN36       0.2622
     16  O        -53.2930   18.0200  -10.7190 O.2    36  ASN36      -0.2715
     17  CB       -50.4650   18.5820   -9.9440 C.3    36  ASN36       0.1195
     18  CG       -49.1650   19.2660   -9.5980 C.2    36  ASN36       0.2630
     19  OD1      -48.0840   18.7460   -9.8650 O.2    36  ASN36      -0.2716
     20  ND2      -49.2630   20.4440   -8.9970 N.am   36  ASN36      -0.0877
     21  N        -53.0260   20.0350  -11.6900 N.am   37  GLY37      -0.1940
     22  CA       -54.0440   19.7860  -12.6880 C.3    37  GLY37       0.2014
     23  C        -55.4560   19.8170  -12.1310 C.2    37  GLY37       0.2639
     24  O        -56.4070   19.4460  -12.8170 O.2    37  GLY37      -0.2714
     25  N        -55.6000   20.2710  -10.8910 N.am   38  ALA38      -0.1963
     26  CA       -56.9070   20.3260  -10.2430 C.3    38  ALA38       0.1728
     27  C        -57.8880   21.2460  -10.9520 C.2    38  ALA38       0.2617
     28  O        -59.1000   21.1210  -10.7850 O.2    38  ALA38      -0.2715
     29  CB       -56.7490   20.7560   -8.7920 C.3    38  ALA38       0.0334
     30  N        -57.3660   22.1750  -11.7380 N.am   39  GLY39      -0.1940
     31  CA       -58.2460   23.0770  -12.4480 C.3    39  GLY39       0.2014
     32  C        -58.0360   24.5380  -12.1110 C.2    39  GLY39       0.2639
     33  O        -58.9130   25.1770  -11.5370 O.2    39  GLY39      -0.2714
     34  N        -56.8750   25.0710  -12.4720 N.am   40  LYS40      -0.1963
     35  CA       -56.5710   26.4720  -12.2120 C.3    40  LYS40       0.1728
     36  C        -56.3800   27.2350  -13.5160 C.2    40  LYS40       0.2617
     37  O        -57.1290   28.1640  -13.8220 O.2    40  LYS40      -0.2715
     38  CB       -55.3050   26.5910  -11.3670 C.3    40  LYS40       0.0311
     39  CG       -55.4320   26.0130   -9.9720 C.3    40  LYS40       0.0038
     40  CD       -54.1260   26.1360   -9.1960 C.3    40  LYS40       0.0206
     41  CE       -53.0390   25.2530   -9.7910 C.3    40  LYS40       0.1093
     42  NZ       -53.4310   23.8190   -9.7840 N.3    40  LYS40      -0.1314
     43  N        -55.3700   26.8290  -14.2810 N.am   41  SER41      -0.1936
     44  CA       -55.0520   27.4610  -15.5560 C.3    41  SER41       0.2055
     45  C        -56.2710   27.5830  -16.4740 C.2    41  SER41       0.2643
     46  O        -56.3180   28.4700  -17.3270 O.2    41  SER41      -0.2714
     47  CB       -53.9350   26.6800  -16.2580 C.3    41  SER41       0.2130
     48  OG       -52.7720   26.6250  -15.4460 O.3    41  SER41      -0.2179
     49  N        -57.2530   26.6970  -16.2960 N.am   42  THR42      -0.1950
     50  CA       -58.4780   26.7220  -17.1030 C.3    42  THR42       0.1897
     51  C        -59.2720   27.9560  -16.7300 C.2    42  THR42       0.2313
     52  O        -59.7300   28.7010  -17.5940 O.2    42  THR42      -0.2863
     53  CB       -59.3870   25.4980  -16.8380 C.3    42  THR42       0.1794
     54  OG1      -59.6390   25.3820  -15.4330 O.3    42  THR42      -0.2208
     55  CG2      -58.7460   24.2250  -17.3500 C.3    42  THR42       0.0378
     56  N        -47.8650   25.0850  -20.5690 N.3    63  THR63      -0.1218
     57  CA       -46.8090   25.7540  -19.8170 C.3    63  THR63       0.1862
     58  C        -45.3760   25.3570  -20.1660 C.2    63  THR63       0.2287
     59  O        -44.5560   26.2190  -20.4710 O.2    63  THR63      -0.2866
     60  CB       -47.0170   25.5450  -18.3220 C.3    63  THR63       0.1770
     61  OG1      -47.1160   24.1430  -18.0530 O.3    63  THR63      -0.2211
     62  CG2      -48.2950   26.2310  -17.8690 C.3    63  THR63       0.0375
     63  N        -53.9070   21.0070  -31.7600 N.3    74  ASP74      -0.1239
     64  CA       -55.1920   21.5300  -31.2870 C.3    74  ASP74       0.1674
     65  C        -55.0580   22.7450  -30.3700 C.2    74  ASP74       0.2266
     66  O        -54.2560   22.7460  -29.4330 O.2    74  ASP74      -0.2867
     67  CB       -55.9790   20.4560  -30.5390 C.3    74  ASP74       0.1410
     68  CG       -57.0410   21.0530  -29.6320 C.2    74  ASP74       0.3668
     69  OD1      -57.9650   21.7190  -30.1480 O.co2  74  ASP74      -0.2456
     70  OD2      -56.9440   20.8690  -28.4000 O.co2  74  ASP74      -0.2456
     71  N        -56.6100   23.5530  -28.0470 N.3    76  GLY76      -0.1225
     72  CA       -56.7410   23.1450  -26.6610 C.3    76  GLY76       0.1811
     73  C        -57.7050   23.9500  -25.8180 C.2    76  GLY76       0.2280
     74  O        -57.3310   24.4760  -24.7740 O.2    76  GLY76      -0.2866
     75  N        -61.9300   20.6310  -24.9730 N.3    79  GLY79      -0.1210
     76  CA       -62.0550   19.8970  -23.7290 C.3    79  GLY79       0.1956
     77  C        -62.2390   20.6910  -22.4480 C.2    79  GLY79       0.2611
     78  O        -62.9640   20.2490  -21.5530 O.2    79  GLY79      -0.2717
     79  N        -61.5930   21.8510  -22.3440 N.am   80  LYS80      -0.1979
     80  CA       -61.6980   22.6710  -21.1360 C.3    80  LYS80       0.1596
     81  C        -63.1360   23.1370  -20.8520 C.2    80  LYS80       0.2287
     82  O        -63.3900   23.8620  -19.8880 O.2    80  LYS80      -0.2864
     83  CB       -60.7430   23.8680  -21.2380 C.3    80  LYS80       0.0298
     84  CG       -59.2720   23.4730  -21.4010 C.3    80  LYS80       0.0038
     85  CD       -58.3710   24.6950  -21.4830 C.3    80  LYS80       0.0206
     86  CE       -56.9240   24.3200  -21.7640 C.3    80  LYS80       0.1093
     87  NZ       -56.3170   23.5510  -20.6540 N.3    80  LYS80      -0.1314
     88  N        -49.1340   32.2260  -14.5630 N.3   397  ASP397     -0.1225
     89  CA       -49.3550   30.8210  -14.2360 C.3   397  ASP397      0.1805
     90  C        -48.0450   30.2430  -13.7170 C.2   397  ASP397      0.2597
     91  O        -46.9690   30.7520  -14.0240 O.2   397  ASP397     -0.2718
     92  CB       -49.8170   30.0590  -15.4930 C.3   397  ASP397      0.1424
     93  CG       -50.2220   28.6050  -15.2080 C.2   397  ASP397      0.3668
     94  OD1      -50.7560   27.9440  -16.1280 O.co2 397  ASP397     -0.2456
     95  OD2      -50.0110   28.1130  -14.0810 O.co2 397  ASP397     -0.2456
     96  N        -48.1440   29.1900  -12.9170 N.am  398  GLN398     -0.1979
     97  CA       -46.9710   28.5360  -12.3610 C.3   398  GLN398      0.1601
     98  C        -46.1130   29.5300  -11.5960 C.2   398  GLN398      0.2287
     99  O        -44.8900   29.5360  -11.7150 O.2   398  GLN398     -0.2864
    100  CB       -46.1530   27.8970  -13.4810 C.3   398  GLN398      0.0394
    101  CG       -45.5750   26.5630  -13.0960 C.3   398  GLN398      0.0908
    102  CD       -46.6430   25.6260  -12.5780 C.2   398  GLN398      0.2608
    103  OE1      -47.6150   25.3350  -13.2760 O.2   398  GLN398     -0.2717
    104  NE2      -46.4780   25.1570  -11.3430 N.am  398  GLN398     -0.0878
    105  N        -49.7520   26.4740   -7.7620 N.3   426  PRO426     -0.2116
    106  CA       -50.2080   25.0940   -7.5560 C.3   426  PRO426      0.1372
    107  C        -49.8090   24.6860   -6.1460 C.2   426  PRO426      0.2244
    108  O        -50.4110   23.8060   -5.5290 O.2   426  PRO426     -0.2868
    109  CB       -49.4560   24.3180   -8.6360 C.3   426  PRO426      0.0268
    110  CG       -48.1990   25.1200   -8.8220 C.3   426  PRO426      0.0207
    111  CD       -48.7260   26.5320   -8.8200 C.3   426  PRO426      0.0892
    112  N        -60.0440   18.6270   -6.9870 N.3   441  ARG441     -0.1245
    113  CA       -60.7670   17.8460   -7.9710 C.3   441  ARG441      0.1563
    114  C        -61.3310   16.5710   -7.3430 C.2   441  ARG441      0.2260
    115  O        -60.5870   15.7030   -6.8920 O.2   441  ARG441     -0.2867
    116  CB       -59.8260   17.5200   -9.1310 C.3   441  ARG441      0.0307
    117  CG       -60.5090   16.9200  -10.3400 C.3   441  ARG441      0.0489
    118  CD       -60.0990   17.6190  -11.6380 C.3   441  ARG441      0.2205
    119  NE       -60.5710   19.0010  -11.7010 N.pl3 441  ARG441     -0.0865
    120  CZ       -60.4530   19.7840  -12.7690 C.cat 441  ARG441      0.5346
    121  NH1      -59.8750   19.3250  -13.8690 N.pl3 441  ARG441      0.1354
    122  NH2      -60.9140   21.0270  -12.7390 N.pl3 441  ARG441      0.1354
    123  N        -66.0560   14.5400  -13.4340 N.3   448  GLU448     -0.1245
    124  CA       -65.3550   15.7130  -12.9260 C.3   448  GLU448      0.1567
    125  C        -66.1630   16.3860  -11.8230 C.2   448  GLU448      0.2260
    126  O        -67.3460   16.1050  -11.6520 O.2   448  GLU448     -0.2867
    127  CB       -65.1050   16.7170  -14.0610 C.3   448  GLU448      0.0388
    128  CG       -63.9990   16.3310  -15.0420 C.3   448  GLU448      0.1160
    129  CD       -62.6010   16.4920  -14.4560 C.2   448  GLU448      0.3649
    130  OE1      -62.2910   15.8360  -13.4390 O.co2 448  GLU448     -0.2457
    131  OE2      -61.8070   17.2760  -15.0150 O.co2 448  GLU448     -0.2457
@<TRIPOS>BOND
     1    63    64    1
     2    64    67    1
     3    64    65    1
     4    67    68    1
     5    65    66    2
     6    69    68   ar
     7    68    70   ar
     8    71    72    1
     9    72    73    1
    10    73    74    2
    11    75    76    1
    12    76    77    1
    13    77    79   am
    14    77    78    2
    15    79    80    1
    16    86    85    1
    17    86    87    1
    18    85    84    1
    19    84    83    1
    20    83    80    1
    21    80    81    1
    22    81    82    2
    23    56    57    1
    24    59    58    2
    25    58    57    1
    26    57    60    1
    27     7     6    2
    28    60    61    1
    29    60    62    1
    30     6     5    1
    31     6     8   am
    32     5     2    1
    33     1     2    1
    34    52    51    2
    35    55    53    1
    36    46    45    2
    37     2     3    1
    38    50    53    1
    39    50    51    1
    40    50    49    1
    41    53    54    1
    42    45    49   am
    43    45    44    1
    44    47    44    1
    45    47    48    1
    46    94    93   ar
    47     3     4    2
    48    44    43    1
    49    92    93    1
    50    92    89    1
    51    93    95   ar
    52   128   129    1
    53   128   127    1
    54   131   129   ar
    55    88    89    1
    56   129   130   ar
    57    43    36   am
    58    89    90    1
    59   127   124    1
    60    91    90    2
    61   121   120    1
    62    37    36    2
    63    90    96   am
    64    36    35    1
    65   100   101    1
    66   100    97    1
    67   123   124    1
    68   103   102    2
    69   101   102    1
    70   124   125    1
    71    96    97    1
    72    24    23    2
    73   120   122    1
    74   120   119    2
    75    22    23    1
    76    22    21    1
    77   102   104   am
    78    34    35    1
    79    34    32   am
    80    31    32    1
    81    31    30    1
    82    97    98    1
    83    35    38    1
    84    23    25   am
    85    32    33    2
    86   125   126    2
    87    30    27   am
    88    99    98    2
    89   119   118    1
    90    21    15   am
    91   118   117    1
    92    38    39    1
    93    27    28    2
    94    27    26    1
    95    25    26    1
    96    15    16    2
    97    15    14    1
    98   117   116    1
    99    26    29    1
   100    39    40    1
   101    17    14    1
   102    17    18    1
   103    19    18    2
   104    41    42    1
   105    41    40    1
   106    14    13    1
   107    18    20   am
   108   116   113    1
   109   110   111    1
   110   110   109    1
   111   111   105    1
   112   109   106    1
   113    12    11    2
   114    13    11   am
   115   113   114    1
   116   113   112    1
   117    11    10    1
   118   105   106    1
   119   106   107    1
   120   114   115    2
   121    10     9    1
   122   107   108    2
