@<TRIPOS>MOLECULE
tmp/3eukE00.pdb
 97 90 0 0 0
SMALL
GASTEIGER

@<TRIPOS>ATOM
      1  N        -31.3920   38.6920   -8.9140 N.3   272  GLN272     -0.1245
      2  CA       -30.2650   39.6150   -8.9760 C.3   272  GLN272      0.1566
      3  C        -30.7490   40.8690   -9.6950 C.2   272  GLN272      0.2260
      4  O        -30.1050   41.9200   -9.6690 O.2   272  GLN272     -0.2867
      5  CB       -29.1130   38.9820   -9.7580 C.3   272  GLN272      0.0367
      6  CG       -28.5280   37.7480   -9.1060 C.3   272  GLN272      0.0905
      7  CD       -27.7840   38.0750   -7.8310 C.2   272  GLN272      0.2608
      8  OE1      -26.7640   38.7670   -7.8540 O.2   272  GLN272     -0.2717
      9  NE2      -28.2920   37.5840   -6.7060 N.am  272  GLN272     -0.0878
     10  N        -27.9320   43.9870  -12.4240 N.3   343  ARG343     -0.1245
     11  CA       -27.4720   42.9830  -11.4490 C.3   343  ARG343      0.1563
     12  C        -26.2210   43.4610  -10.7090 C.2   343  ARG343      0.2260
     13  O        -25.5460   44.3930  -11.1510 O.2   343  ARG343     -0.2867
     14  CB       -27.0990   41.6700  -12.1260 C.3   343  ARG343      0.0307
     15  CG       -27.8470   41.3360  -13.3720 C.3   343  ARG343      0.0489
     16  CD       -27.1070   40.2210  -14.0560 C.3   343  ARG343      0.2205
     17  NE       -27.7260   39.8360  -15.3130 N.pl3 343  ARG343     -0.0865
     18  CZ       -27.2010   38.9440  -16.1400 C.cat 343  ARG343      0.5346
     19  NH1      -26.0500   38.3630  -15.8250 N.pl3 343  ARG343      0.1354
     20  NH2      -27.8240   38.6330  -17.2710 N.pl3 343  ARG343      0.1354
     21  N        -23.5010   42.3590  -10.7810 N.3   345  ALA345     -0.1245
     22  CA       -22.3860   42.2400  -11.7270 C.3   345  ALA345      0.1562
     23  C        -22.2060   43.4980  -12.5670 C.2   345  ALA345      0.2260
     24  O        -22.2080   44.6090  -12.0370 O.2   345  ALA345     -0.2867
     25  CB       -22.6030   41.0330  -12.6520 C.3   345  ALA345      0.0290
     26  N        -26.7340   45.5270  -18.1160 N.3   349  MET349     -0.1245
     27  CA       -26.5200   44.6230  -19.2440 C.3   349  MET349      0.1570
     28  C        -27.8400   44.5740  -19.9990 C.2   349  MET349      0.2261
     29  O        -28.9000   44.6790  -19.3830 O.2   349  MET349     -0.2867
     30  CB       -26.1800   43.2080  -18.7500 C.3   349  MET349      0.0387
     31  CG       -24.7410   42.9800  -18.3060 C.3   349  MET349      0.0595
     32  SD       -23.6000   42.6870  -19.6730 S.3   349  MET349     -0.1393
     33  CE       -23.7180   40.8970  -19.8550 C.3   349  MET349      0.0692
     34  N        -30.7240   33.8870  -22.0020 N.3   354  SER354     -0.1202
     35  CA       -29.6170   32.9790  -21.7430 C.3   354  SER354      0.2020
     36  C        -28.6390   33.6480  -20.7820 C.2   354  SER354      0.2619
     37  O        -27.4460   33.3540  -20.7900 O.2   354  SER354     -0.2717
     38  CB       -28.9060   32.6390  -23.0560 C.3   354  SER354      0.2103
     39  OG       -29.8210   32.1500  -24.0200 O.3   354  SER354     -0.2182
     40  N        -29.1530   34.5540  -19.9570 N.am  355  ALA355     -0.1965
     41  CA       -28.3280   35.2750  -18.9950 C.3   355  ALA355      0.1728
     42  C        -29.1130   35.5360  -17.7120 C.2   355  ALA355      0.2616
     43  O        -28.5920   36.1100  -16.7570 O.2   355  ALA355     -0.2715
     44  CB       -27.8590   36.5960  -19.6020 C.3   355  ALA355      0.0334
     45  N        -30.3670   35.0980  -17.6960 N.am  356  LEU356     -0.1963
     46  CA       -31.2290   35.3000  -16.5400 C.3   356  LEU356      0.1728
     47  C        -31.9810   34.0280  -16.1660 C.2   356  LEU356      0.2617
     48  O        -32.6050   33.3930  -17.0170 O.2   356  LEU356     -0.2715
     49  CB       -32.2320   36.4150  -16.8370 C.3   356  LEU356      0.0311
     50  CG       -31.6480   37.7790  -17.2140 C.3   356  LEU356      0.0022
     51  CD1      -32.7710   38.7210  -17.6240 C.3   356  LEU356      0.0001
     52  CD2      -30.8730   38.3440  -16.0370 C.3   356  LEU356      0.0001
     53  N        -31.9230   33.6680  -14.8870 N.am  357  SER357     -0.1936
     54  CA       -32.6010   32.4740  -14.4050 C.3   357  SER357      0.2055
     55  C        -34.0930   32.6620  -14.5200 C.2   357  SER357      0.2644
     56  O        -34.5920   33.7850  -14.4910 O.2   357  SER357     -0.2714
     57  CB       -32.2670   32.2010  -12.9440 C.3   357  SER357      0.2130
     58  OG       -33.3710   32.5210  -12.1170 O.3   357  SER357     -0.2179
     59  N        -34.7940   31.5410  -14.6270 N.am  358  THR358     -0.1936
     60  CA       -36.2460   31.5210  -14.7530 C.3   358  THR358      0.2028
     61  C        -36.8930   32.6910  -14.0150 C.2   358  THR358      0.2643
     62  O        -37.5380   33.5450  -14.6210 O.2   358  THR358     -0.2714
     63  CB       -36.8280   30.1950  -14.1980 C.3   358  THR358      0.1808
     64  OG1      -36.0260   29.0890  -14.6400 O.3   358  THR358     -0.2208
     65  CG2      -38.2570   29.9990  -14.6830 C.3   358  THR358      0.0379
     66  N        -36.7120   32.7330  -12.7030 N.am  359  GLY359     -0.1939
     67  CA       -37.3000   33.8090  -11.9370 C.3   359  GLY359      0.2014
     68  C        -36.9550   35.1640  -12.5200 C.2   359  GLY359      0.2638
     69  O        -37.8370   35.9070  -12.9490 O.2   359  GLY359     -0.2714
     70  N        -35.6630   35.4760  -12.5420 N.am  360  GLU360     -0.1977
     71  CA       -35.1860   36.7530  -13.0490 C.3   360  GLU360      0.1602
     72  C        -35.9610   37.1270  -14.2890 C.2   360  GLU360      0.2287
     73  O        -36.4640   38.2360  -14.4130 O.2   360  GLU360     -0.2864
     74  CB       -33.7000   36.6680  -13.3920 C.3   360  GLU360      0.0415
     75  CG       -32.8530   36.0190  -12.3120 C.3   360  GLU360      0.1163
     76  CD       -31.3590   36.0700  -12.6100 C.2   360  GLU360      0.3649
     77  OE1      -30.9490   35.6690  -13.7220 O.co2 360  GLU360     -0.2457
     78  OE2      -30.5900   36.5050  -11.7230 O.co2 360  GLU360     -0.2457
     79  N        -42.2610   29.0650   -9.5950 N.3   401  ARG401     -0.1245
     80  CA       -40.8840   29.3700   -9.9590 C.3   401  ARG401      0.1563
     81  C        -40.3010   30.5060   -9.1390 C.2   401  ARG401      0.2260
     82  O        -39.1550   30.4390   -8.7060 O.2   401  ARG401     -0.2867
     83  CB       -40.8120   29.7220  -11.4350 C.3   401  ARG401      0.0307
     84  CG       -40.9120   28.5200  -12.3340 C.3   401  ARG401      0.0489
     85  CD       -41.2870   28.9180  -13.7450 C.3   401  ARG401      0.2205
     86  NE       -42.6860   29.3200  -13.8330 N.pl3 401  ARG401     -0.0865
     87  CZ       -43.3170   29.5530  -14.9760 C.cat 401  ARG401      0.5346
     88  NH1      -42.6720   29.4260  -16.1240 N.pl3 401  ARG401      0.1354
     89  NH2      -44.5940   29.8980  -14.9740 N.pl3 401  ARG401      0.1354
     90  N        -39.6510   33.2360   -6.0130 N.3   403  ASP403     -0.1239
     91  CA       -39.3540   33.0890   -4.5890 C.3   403  ASP403      0.1674
     92  C        -40.1780   34.0890   -3.7950 C.2   403  ASP403      0.2266
     93  O        -40.8070   34.9780   -4.3650 O.2   403  ASP403     -0.2867
     94  CB       -37.8580   33.3130   -4.3020 C.3   403  ASP403      0.1410
     95  CG       -37.3650   34.6760   -4.7520 C.2   403  ASP403      0.3668
     96  OD1      -38.0040   35.6850   -4.4060 O.co2 403  ASP403     -0.2456
     97  OD2      -36.3270   34.7400   -5.4440 O.co2 403  ASP403     -0.2456
@<TRIPOS>BOND
     1    39    38    1
     2    38    35    1
     3    34    35    1
     4    35    36    1
     5    37    36    2
     6    36    40   am
     7    28    29    2
     8    28    27    1
     9    40    41    1
    10    33    32    1
    11    32    31    1
    12    44    41    1
    13    27    30    1
    14    27    26    1
    15    41    42    1
    16    30    31    1
    17    42    45   am
    18    42    43    2
    19    45    46    1
    20    51    50    1
    21    20    18    1
    22    50    49    1
    23    50    52    1
    24    48    47    2
    25    49    46    1
    26    46    47    1
    27    47    53   am
    28    18    19    1
    29    18    17    2
    30    88    87    1
    31    17    16    1
    32    87    89    1
    33    87    86    2
    34    53    54    1
    35    60    59    1
    36    60    63    1
    37    60    61    1
    38    65    63    1
    39    64    63    1
    40    59    55   am
    41    62    61    2
    42    55    56    2
    43    55    54    1
    44    73    72    2
    45    54    57    1
    46    72    71    1
    47    16    15    1
    48    61    66   am
    49    86    85    1
    50    85    84    1
    51    77    76   ar
    52    74    71    1
    53    74    75    1
    54    15    14    1
    55    71    70    1
    56    69    68    2
    57    57    58    1
    58    66    67    1
    59    25    22    1
    60    76    75    1
    61    76    78   ar
    62    23    24    2
    63    23    22    1
    64    70    68   am
    65    68    67    1
    66    10    11    1
    67    84    83    1
    68    14    11    1
    69    22    21    1
    70    11    12    1
    71    83    80    1
    72    13    12    2
    73    80    79    1
    74    80    81    1
    75     5     6    1
    76     5     2    1
    77     3     4    2
    78     3     2    1
    79    81    82    2
    80     6     7    1
    81     2     1    1
    82     8     7    2
    83     7     9   am
    84    90    91    1
    85    97    95   ar
    86    95    96   ar
    87    95    94    1
    88    91    94    1
    89    91    92    1
    90    93    92    2
