@<TRIPOS>MOLECULE
tmp/3euqC00.pdb
 197 187 0 0 0
SMALL
GASTEIGER

@<TRIPOS>ATOM
      1  N         29.9850    7.3980   76.8880 N.3    17  LEU17      -0.1245
      2  CA        30.9510    6.5700   76.1650 C.3    17  LEU17       0.1561
      3  C         30.7580    6.5950   74.6460 C.2    17  LEU17       0.2260
      4  O         29.6440    6.4360   74.1470 O.2    17  LEU17      -0.2867
      5  CB        30.9130    5.1300   76.6830 C.3    17  LEU17       0.0270
      6  CG        30.9950    4.9180   78.2040 C.3    17  LEU17       0.0019
      7  CD1       30.8780    3.4340   78.5430 C.3    17  LEU17       0.0001
      8  CD2       32.2720    5.4980   78.8010 C.3    17  LEU17       0.0001
      9  N         34.3330    2.3300   73.3070 N.3    21  ALA21      -0.1231
     10  CA        34.1680    1.6710   74.6050 C.3    21  ALA21       0.1694
     11  C         33.9470    0.1530   74.4820 C.2    21  ALA21       0.2591
     12  O         34.5330   -0.6270   75.2420 O.2    21  ALA21      -0.2718
     13  CB        33.0480    2.3250   75.3990 C.3    21  ALA21       0.0304
     14  N         33.1300   -0.2680   73.5160 N.am   22  ILE22      -0.1980
     15  CA        32.9110   -1.7020   73.2960 C.3    22  ILE22       0.1595
     16  C         34.0760   -2.3400   72.5240 C.2    22  ILE22       0.2287
     17  O         34.3400   -3.5240   72.7120 O.2    22  ILE22      -0.2864
     18  CB        31.5510   -2.0520   72.6000 C.3    22  ILE22       0.0276
     19  CG1       31.6750   -1.9660   71.0830 C.3    22  ILE22       0.0022
     20  CG2       30.3790   -1.2000   73.1420 C.3    22  ILE22       0.0022
     21  CD1       30.7210   -2.8930   70.3470 C.3    22  ILE22       0.0001
     22  N         36.5670   -3.3130   75.2200 N.3    25  LEU25      -0.1245
     23  CA        36.1730   -4.4390   76.0530 C.3    25  LEU25       0.1561
     24  C         36.1590   -5.7210   75.2600 C.2    25  LEU25       0.2260
     25  O         36.5210   -6.7700   75.7810 O.2    25  LEU25      -0.2867
     26  CB        34.7950   -4.2080   76.6860 C.3    25  LEU25       0.0270
     27  CG        34.7810   -3.3370   77.9440 C.3    25  LEU25       0.0019
     28  CD1       33.3570   -2.9150   78.2920 C.3    25  LEU25       0.0001
     29  CD2       35.4890   -4.0070   79.1440 C.3    25  LEU25       0.0001
     30  N         26.8660    7.1050   74.5740 N.3    51  ARG51      -0.1245
     31  CA        25.9370    6.4080   75.4660 C.3    51  ARG51       0.1563
     32  C         26.2610    6.6530   76.9340 C.2    51  ARG51       0.2260
     33  O         27.4240    6.6570   77.3450 O.2    51  ARG51      -0.2867
     34  CB        25.9010    4.9070   75.1830 C.3    51  ARG51       0.0307
     35  CG        25.1140    4.5490   73.9220 C.3    51  ARG51       0.0489
     36  CD        24.8320    3.0540   73.8270 C.3    51  ARG51       0.2205
     37  NE        25.7530    2.3220   72.9520 N.pl3  51  ARG51      -0.0865
     38  CZ        26.7930    1.6010   73.3660 C.cat  51  ARG51       0.5346
     39  NH1       27.0800    1.5260   74.6630 N.pl3  51  ARG51       0.1354
     40  NH2       27.5650    0.9620   72.4850 N.pl3  51  ARG51       0.1354
     41  N         26.4210    5.7150   80.8430 N.3    53  SER53      -0.1202
     42  CA        26.8030    4.5130   81.5940 C.3    53  SER53       0.2020
     43  C         27.1440    4.8940   83.0350 C.2    53  SER53       0.2619
     44  O         27.5700    6.0140   83.3030 O.2    53  SER53      -0.2717
     45  CB        28.0240    3.8460   80.9360 C.3    53  SER53       0.2103
     46  OG        28.5130    2.7500   81.7040 O.3    53  SER53      -0.2182
     47  N         26.9540    3.9540   83.9560 N.am   54  ILE54      -0.1965
     48  CA        27.3410    4.1340   85.3610 C.3    54  ILE54       0.1727
     49  C         28.8610    4.0100   85.5300 C.2    54  ILE54       0.2617
     50  O         29.3980    4.2500   86.6210 O.2    54  ILE54      -0.2715
     51  CB        26.6190    3.1060   86.2790 C.3    54  ILE54       0.0290
     52  CG1       26.9380    1.6610   85.8560 C.3    54  ILE54       0.0022
     53  CG2       25.0900    3.2950   86.2200 C.3    54  ILE54       0.0023
     54  CD1       28.2030    1.0610   86.5220 C.3    54  ILE54       0.0001
     55  N         29.5440    3.6280   84.4520 N.am   55  GLY55      -0.1940
     56  CA        30.9880    3.4390   84.4910 C.3    55  GLY55       0.2014
     57  C         31.7000    3.6030   83.1690 C.2    55  GLY55       0.2639
     58  O         31.0800    3.8650   82.1320 O.2    55  GLY55      -0.2714
     59  N         33.0230    3.4480   83.2150 N.am   56  ASN56      -0.1958
     60  CA        33.8220    3.3510   82.0060 C.3    56  ASN56       0.1804
     61  C         34.2590    1.8850   81.7940 C.2    56  ASN56       0.2463
     62  O         33.9290    1.0230   82.6240 O.2    56  ASN56      -0.2730
     63  CB        34.9860    4.3700   82.0240 C.3    56  ASN56       0.1195
     64  CG        35.9820    4.1260   83.1470 C.2    56  ASN56       0.2630
     65  OD1       36.2050    2.9920   83.5690 O.2    56  ASN56      -0.2716
     66  ND2       36.6080    5.1980   83.6180 N.am   56  ASN56      -0.0877
     67  N         34.9500    1.5790   80.6710 N.am   57  PRO57      -0.2727
     68  CA        35.4510    0.2150   80.4790 C.3    57  PRO57       0.1402
     69  C         36.4920   -0.2770   81.5080 C.2    57  PRO57       0.2269
     70  O         36.9140   -1.4230   81.4320 O.2    57  PRO57      -0.2865
     71  CB        36.0800    0.2730   79.0780 C.3    57  PRO57       0.0296
     72  CG        35.4180    1.4370   78.4150 C.3    57  PRO57       0.0237
     73  CD        35.2490    2.4280   79.5030 C.3    57  PRO57       0.0939
     74  N         35.7730   -0.3060   84.7760 N.3    59  HIS59      -0.1241
     75  CA        34.9870   -0.7100   85.9350 C.3    59  HIS59       0.1621
     76  C         35.2820   -2.1660   86.3050 C.2    59  HIS59       0.2264
     77  O         35.3180   -3.0210   85.4320 O.2    59  HIS59      -0.2867
     78  CB        33.4880   -0.5280   85.6590 C.3    59  HIS59       0.0745
     79  CG        32.6640   -0.3870   86.8990 C.ar   59  HIS59       0.0817
     80  ND1       32.3690   -1.4530   87.7220 N.ar   59  HIS59      -0.2268
     81  CD2       32.0780    0.6980   87.4620 C.ar   59  HIS59       0.1154
     82  CE1       31.6350   -1.0310   88.7370 C.ar   59  HIS59       0.1986
     83  NE2       31.4420    0.2700   88.6020 N.ar   59  HIS59      -0.2212
     84  N         32.9710   -5.3230   85.1240 N.3    62  VAL62      -0.1245
     85  CA        33.0410   -5.8930   83.7780 C.3    62  VAL62       0.1561
     86  C         34.4570   -6.3650   83.4470 C.2    62  VAL62       0.2260
     87  O         34.7730   -6.6920   82.3060 O.2    62  VAL62      -0.2867
     88  CB        32.4700   -4.9400   82.7120 C.3    62  VAL62       0.0252
     89  CG1       30.9920   -4.5860   83.0510 C.3    62  VAL62       0.0019
     90  CG2       33.3210   -3.6680   82.5860 C.3    62  VAL62       0.0019
     91  N         13.7410   -3.5750   83.4390 N.3   111  CYS111     -0.1221
     92  CA        13.8790   -4.9210   82.8990 C.3   111  CYS111      0.1808
     93  C         15.3000   -5.3920   83.1290 C.2   111  CYS111      0.2601
     94  O         15.6850   -6.4780   82.6920 O.2   111  CYS111     -0.2717
     95  CB        13.5140   -4.9670   81.4020 C.3   111  CYS111      0.0970
     96  SG        14.5170   -3.8970   80.3210 S.3   111  CYS111     -0.0800
     97  N         16.0690   -4.5830   83.8510 N.am  112  THR112     -0.1953
     98  CA        17.4670   -4.8940   84.0970 C.3   112  THR112      0.1897
     99  C         17.7560   -5.1660   85.5830 C.2   112  THR112      0.2313
    100  O         18.8890   -5.0150   86.0370 O.2   112  THR112     -0.2863
    101  CB        18.3730   -3.7830   83.5490 C.3   112  THR112      0.1794
    102  OG1       18.0460   -2.5410   84.1880 O.3   112  THR112     -0.2208
    103  CG2       18.2020   -3.6430   82.0380 C.3   112  THR112      0.0378
    104  N         21.7780   -1.0950   81.7250 N.3   176  SER176     -0.1202
    105  CA        22.0230   -2.1390   80.7410 C.3   176  SER176      0.2020
    106  C         23.5110   -2.3470   80.4480 C.2   176  SER176      0.2619
    107  O         23.9110   -3.4330   80.0630 O.2   176  SER176     -0.2717
    108  CB        21.2970   -1.8100   79.4460 C.3   176  SER176      0.2103
    109  OG        21.6940   -0.5410   78.9880 O.3   176  SER176     -0.2182
    110  N         24.3170   -1.3050   80.6300 N.am  177  THR177     -0.1938
    111  CA        25.7060   -1.3340   80.1760 C.3   177  THR177      0.2028
    112  C         26.5160   -2.3850   80.9190 C.2   177  THR177      0.2643
    113  O         27.5240   -2.8810   80.4120 O.2   177  THR177     -0.2714
    114  CB        26.4150    0.0270   80.3610 C.3   177  THR177      0.1808
    115  OG1       26.4160    0.3840   81.7490 O.3   177  THR177     -0.2208
    116  CG2       25.7460    1.1060   79.5130 C.3   177  THR177      0.0379
    117  N         26.0720   -2.6960   82.1320 N.am  178  THR178     -0.1936
    118  CA        26.7020   -3.7060   82.9570 C.3   178  THR178      0.2028
    119  C         26.6050   -5.0950   82.3260 C.2   178  THR178      0.2642
    120  O         27.3820   -5.9870   82.6640 O.2   178  THR178     -0.2714
    121  CB        26.1380   -3.7160   84.3940 C.3   178  THR178      0.1808
    122  OG1       24.7100   -3.8620   84.3600 O.3   178  THR178     -0.2208
    123  CG2       26.5160   -2.4260   85.1360 C.3   178  THR178      0.0379
    124  N         25.6870   -5.2570   81.3810 N.am  179  MET179     -0.1962
    125  CA        25.5400   -6.5320   80.6590 C.3   179  MET179      0.1736
    126  C         26.4450   -6.6300   79.4270 C.2   179  MET179      0.2616
    127  O         26.3590   -7.5730   78.6500 O.2   179  MET179     -0.2715
    128  CB        24.0710   -6.8030   80.3200 C.3   179  MET179      0.0427
    129  CG        23.2840   -7.2720   81.5540 C.3   179  MET179      0.0599
    130  SD        21.5200   -7.4010   81.2780 S.3   179  MET179     -0.1393
    131  CE        20.9140   -6.5360   82.7210 C.3   179  MET179      0.0692
    132  N         27.3470   -5.6660   79.2810 N.am  180  VAL180     -0.1977
    133  CA        28.3110   -5.6970   78.1830 C.3   180  VAL180      0.1596
    134  C         29.0650   -7.0580   78.0690 C.2   180  VAL180      0.2287
    135  O         29.1990   -7.6100   76.9750 O.2   180  VAL180     -0.2864
    136  CB        29.2960   -4.5030   78.2680 C.3   180  VAL180      0.0276
    137  CG1       30.1890   -4.6250   79.5240 C.3   180  VAL180      0.0022
    138  CG2       30.1260   -4.3780   76.9670 C.3   180  VAL180      0.0022
    139  N         26.6960  -10.0600   76.7890 N.3   183  GLU183     -0.1245
    140  CA        26.4310   -9.9510   75.3620 C.3   183  GLU183      0.1567
    141  C         27.6770  -10.3040   74.5370 C.2   183  GLU183      0.2260
    142  O         27.5830  -11.0160   73.5360 O.2   183  GLU183     -0.2867
    143  CB        25.8980   -8.5600   75.0080 C.3   183  GLU183      0.0388
    144  CG        24.4090   -8.3170   75.3690 C.3   183  GLU183      0.1160
    145  CD        23.4540   -9.3620   74.7700 C.2   183  GLU183      0.3649
    146  OE1       23.4800   -9.5900   73.5420 O.co2 183  GLU183     -0.2457
    147  OE2       22.6560   -9.9480   75.5350 O.co2 183  GLU183     -0.2457
    148  N         22.3250   -5.6000   70.6830 N.3   196  GLY196     -0.1210
    149  CA        21.9770   -4.9800   71.9520 C.3   196  GLY196      0.1956
    150  C         23.0820   -4.1080   72.4900 C.2   196  GLY196      0.2611
    151  O         22.8280   -2.9780   72.9170 O.2   196  GLY196     -0.2717
    152  N         24.3150   -4.6170   72.4570 N.am  197  ILE197     -0.1979
    153  CA        25.4480   -3.8510   72.9550 C.3   197  ILE197      0.1595
    154  C         25.7030   -2.5750   72.1730 C.2   197  ILE197      0.2287
    155  O         26.3790   -1.6880   72.6690 O.2   197  ILE197     -0.2864
    156  CB        26.7740   -4.6560   73.0090 C.3   197  ILE197      0.0276
    157  CG1       27.1570   -5.2180   71.6390 C.3   197  ILE197      0.0022
    158  CG2       26.6950   -5.7130   74.0800 C.3   197  ILE197      0.0022
    159  CD1       28.6630   -5.6590   71.5780 C.3   197  ILE197      0.0001
    160  N         21.9040   -0.0070   73.7530 N.3   200  PHE200     -0.1241
    161  CA        21.3650    0.3180   75.0660 C.3   200  PHE200      0.1605
    162  C         22.2930    1.1120   75.9480 C.2   200  PHE200      0.2264
    163  O         23.5310    0.9950   75.8530 O.2   200  PHE200     -0.2867
    164  CB        20.8990   -0.9630   75.7790 C.3   200  PHE200      0.0534
    165  CG        19.7300   -1.6160   75.1150 C.ar  200  PHE200     -0.0203
    166  CD1       18.4760   -1.0130   75.1430 C.ar  200  PHE200     -0.0042
    167  CD2       19.8800   -2.8320   74.4470 C.ar  200  PHE200     -0.0042
    168  CE1       17.3810   -1.6140   74.5120 C.ar  200  PHE200     -0.0003
    169  CE2       18.7950   -3.4460   73.8140 C.ar  200  PHE200     -0.0003
    170  CZ        17.5440   -2.8330   73.8410 C.ar  200  PHE200     -0.0000
    171  N         20.1210  -10.8310   81.7560 N.3   249  TRP249     -0.1241
    172  CA        19.0740  -11.0130   80.7480 C.3   249  TRP249      0.1605
    173  C         19.6710  -11.0280   79.3270 C.2   249  TRP249      0.2264
    174  O         20.2550  -10.0390   78.8640 O.2   249  TRP249     -0.2867
    175  CB        17.9750   -9.9410   80.8710 C.3   249  TRP249      0.0550
    176  CG        17.1380  -10.1150   82.0980 C.ar  249  TRP249      0.0003
    177  CD1       15.9080  -10.7340   82.1860 C.ar  249  TRP249      0.0946
    178  CD2       17.4590   -9.6760   83.4220 C.ar  249  TRP249      0.0152
    179  NE1       15.4550  -10.7020   83.4850 N.ar  249  TRP249     -0.2442
    180  CE2       16.3870  -10.0680   84.2650 C.ar  249  TRP249      0.0810
    181  CE3       18.5500   -8.9910   83.9830 C.ar  249  TRP249      0.0012
    182  CZ2       16.3760   -9.7940   85.6370 C.ar  249  TRP249      0.0191
    183  CZ3       18.5480   -8.7330   85.3490 C.ar  249  TRP249      0.0001
    184  CH2       17.4600   -9.1400   86.1610 C.ar  249  TRP249      0.0015
    185  N         19.3160  -10.6250   75.6030 N.3   251  VAL251     -0.1245
    186  CA        18.4620   -9.8880   74.6590 C.3   251  VAL251      0.1561
    187  C         18.0190  -10.7660   73.4910 C.2   251  VAL251      0.2260
    188  O         18.8220  -11.5210   72.9340 O.2   251  VAL251     -0.2867
    189  CB        19.2120   -8.6650   74.0920 C.3   251  VAL251      0.0252
    190  CG1       18.4230   -7.9920   72.9620 C.3   251  VAL251      0.0019
    191  CG2       19.5310   -7.6710   75.2140 C.3   251  VAL251      0.0019
    192  N         16.2120    2.0310   77.2220 N.3   330  SER330     -0.1217
    193  CA        15.0400    1.1400   77.4020 C.3   330  SER330      0.1889
    194  C         13.8100    1.9240   77.9230 C.2   330  SER330      0.2288
    195  O         13.4940    2.9800   77.3840 O.2   330  SER330     -0.2866
    196  CB        15.3920   -0.0720   78.2810 C.3   330  SER330      0.2089
    197  OG        14.3490   -1.0480   78.2520 O.3   330  SER330     -0.2183
@<TRIPOS>BOND
     1    21    19    1
     2   148   149    1
     3    19    18    1
     4   159   157    1
     5   157   156    1
     6   149   150    1
     7   154   155    2
     8   154   153    1
     9   152   150   am
    10   152   153    1
    11    40    38    1
    12   150   151    2
    13    16    17    2
    14    16    15    1
    15    18    20    1
    16    18    15    1
    17   188   187    2
    18    37    38    2
    19    37    36    1
    20   153   156    1
    21   190   189    1
    22   156   158    1
    23    15    14    1
    24     9    10    1
    25    38    39    1
    26   187   186    1
    27    14    11   am
    28   142   141    2
    29   146   145   ar
    30   160   161    1
    31   169   170   ar
    32   169   167   ar
    33    36    35    1
    34   170   168   ar
    35    35    34    1
    36   189   186    1
    37   189   191    1
    38     4     3    2
    39   167   165   ar
    40    11    10    1
    41    11    12    2
    42   168   166   ar
    43   141   140    1
    44    30    31    1
    45    10    13    1
    46     3     2    1
    47   186   185    1
    48   145   144    1
    49   145   147   ar
    50   143   140    1
    51   143   144    1
    52   161   164    1
    53   161   162    1
    54   165   166   ar
    55   165   164    1
    56    34    31    1
    57    22    23    1
    58    24    25    2
    59    24    23    1
    60   140   139    1
    61    31    32    1
    62   163   162    2
    63    23    26    1
    64     2     5    1
    65     2     1    1
    66     5     6    1
    67    26    27    1
    68    32    33    2
    69   138   136    1
    70   135   134    2
    71   192   193    1
    72   195   194    2
    73   193   194    1
    74   193   196    1
    75    27    28    1
    76    27    29    1
    77   134   133    1
    78   133   136    1
    79   133   132    1
    80     6     7    1
    81     6     8    1
    82   197   196    1
    83   136   137    1
    84    72    71    1
    85    72    73    1
    86   127   126    2
    87   174   173    2
    88   109   108    1
    89    71    68    1
    90   132   126   am
    91   173   172    1
    92   126   125    1
    93   108   105    1
    94    73    67    1
    95   116   114    1
    96   107   106    2
    97   111   114    1
    98   111   110    1
    99   111   112    1
   100   128   125    1
   101   128   129    1
   102    96    95    1
   103   114   115    1
   104   113   112    2
   105   106   110   am
   106   106   105    1
   107    68    67    1
   108    68    69    1
   109   125   124    1
   110    67    61   am
   111   105   104    1
   112   172   175    1
   113   172   171    1
   114    41    42    1
   115   175   176    1
   116   112   117   am
   117    45    42    1
   118    45    46    1
   119   130   129    1
   120   130   131    1
   121   124   119   am
   122    95    92    1
   123    70    69    2
   124    42    43    1
   125    61    60    1
   126    61    62    2
   127    60    63    1
   128    60    59    1
   129    63    64    1
   130   103   101    1
   131   176   177   ar
   132   176   178   ar
   133    58    57    2
   134   117   118    1
   135   177   179   ar
   136    87    86    2
   137   119   120    2
   138   119   118    1
   139    90    88    1
   140    94    93    2
   141    88    89    1
   142    88    85    1
   143    92    93    1
   144    92    91    1
   145   118   121    1
   146    43    44    2
   147    43    47   am
   148    93    97   am
   149    64    65    2
   150    64    66   am
   151    57    59   am
   152    57    56    1
   153   178   181   ar
   154   178   180   ar
   155    86    85    1
   156   179   180   ar
   157   101    98    1
   158   101   102    1
   159    85    84    1
   160    97    98    1
   161    47    48    1
   162   181   183   ar
   163    98    99    1
   164   180   182   ar
   165   122   121    1
   166   121   123    1
   167    55    56    1
   168    55    49   am
   169    74    75    1
   170   183   184   ar
   171    48    49    1
   172    48    51    1
   173    77    76    2
   174    49    50    2
   175    99   100    2
   176   182   184   ar
   177    78    75    1
   178    78    79    1
   179    52    51    1
   180    52    54    1
   181    75    76    1
   182    53    51    1
   183    79    81   ar
   184    79    80   ar
   185    81    83   ar
   186    80    82   ar
   187    83    82   ar
