@<TRIPOS>MOLECULE
tmp/3euvB00.pdb
 223 216 0 0 0
SMALL
GASTEIGER

@<TRIPOS>ATOM
      1  N         58.7540  -62.0530   -4.0040 N.3    80  THR80      -0.1218
      2  CA        58.7400  -60.9010   -3.1110 C.3    80  THR80       0.1862
      3  C         58.0660  -61.2450   -1.7720 C.2    80  THR80       0.2287
      4  O         58.5690  -60.8430   -0.7220 O.2    80  THR80      -0.2866
      5  CB        58.0240  -59.7300   -3.7400 C.3    80  THR80       0.1770
      6  OG1       58.4470  -59.5850   -5.0860 O.3    80  THR80      -0.2211
      7  CG2       58.3240  -58.4790   -2.9810 C.3    80  THR80       0.0375
      8  N         60.5190  -63.3390    0.2880 N.3    83  TYR83      -0.1227
      9  CA        61.5430  -62.4900    0.8660 C.3    83  TYR83       0.1736
     10  C         60.9520  -61.7490    2.0670 C.2    83  TYR83       0.2595
     11  O         61.5240  -61.8080    3.1610 O.2    83  TYR83      -0.2718
     12  CB        62.2330  -61.5250   -0.1380 C.3    83  TYR83       0.0548
     13  CG        62.9760  -60.3620    0.5730 C.ar   83  TYR83      -0.0200
     14  CD1       64.1690  -60.5670    1.2620 C.ar   83  TYR83      -0.0009
     15  CD2       62.4720  -59.0810    0.5700 C.ar   83  TYR83      -0.0009
     16  CE1       64.8030  -59.5240    1.9230 C.ar   83  TYR83       0.0417
     17  CE2       63.1270  -58.0510    1.2180 C.ar   83  TYR83       0.0417
     18  CZ        64.2740  -58.2840    1.8900 C.ar   83  TYR83       0.1957
     19  OH        64.9010  -57.2560    2.5460 O.3    83  TYR83      -0.2866
     20  N         59.7850  -61.1250    1.9230 N.am   84  TRP84      -0.1976
     21  CA        59.2570  -60.4120    3.0950 C.3    84  TRP84       0.1640
     22  C         59.1490  -61.3360    4.3410 C.2    84  TRP84       0.2290
     23  O         59.5530  -60.9480    5.4520 O.2    84  TRP84      -0.2864
     24  CB        57.9130  -59.7430    2.8240 C.3    84  TRP84       0.0576
     25  CG        57.9480  -58.6790    1.7980 C.ar   84  TRP84       0.0006
     26  CD1       58.9670  -57.9010    1.5220 C.ar   84  TRP84       0.0946
     27  CD2       56.8880  -58.3070    0.9010 C.ar   84  TRP84       0.0152
     28  NE1       58.6550  -57.0600    0.5020 N.ar   84  TRP84      -0.2442
     29  CE2       57.3730  -57.2710    0.1110 C.ar   84  TRP84       0.0810
     30  CE3       55.5780  -58.7540    0.6970 C.ar   84  TRP84       0.0012
     31  CZ2       56.5990  -56.6360   -0.8810 C.ar   84  TRP84       0.0191
     32  CZ3       54.7930  -58.1200   -0.2850 C.ar   84  TRP84       0.0001
     33  CH2       55.3110  -57.0810   -1.0600 C.ar   84  TRP84       0.0015
     34  N         62.1510  -56.8650   -9.8300 N.3   129  ALA129     -0.1245
     35  CA        61.6860  -56.8750   -8.4330 C.3   129  ALA129      0.1562
     36  C         61.6470  -58.2820   -7.8100 C.2   129  ALA129      0.2260
     37  O         62.2950  -58.5190   -6.7990 O.2   129  ALA129     -0.2867
     38  CB        60.3370  -56.1250   -8.2790 C.3   129  ALA129      0.0290
     39  N         65.4600  -59.7130   -7.4950 N.3   132  THR132     -0.1203
     40  CA        66.2220  -59.3660   -6.2780 C.3   132  THR132      0.1994
     41  C         65.6920  -60.0750   -5.0810 C.2   132  THR132      0.2617
     42  O         66.4260  -60.3460   -4.1410 O.2   132  THR132     -0.2717
     43  CB        65.9820  -57.9180   -5.7680 C.3   132  THR132      0.1784
     44  OG1       65.4570  -57.0990   -6.8050 O.3   132  THR132     -0.2211
     45  CG2       67.2490  -57.2950   -5.1820 C.3   132  THR132      0.0376
     46  N         64.3700  -60.2170   -5.0330 N.am  133  ALA133     -0.1979
     47  CA        63.7300  -60.8300   -3.8880 C.3   133  ALA133      0.1597
     48  C         64.0820  -62.2970   -3.8230 C.2   133  ALA133      0.2287
     49  O         64.2980  -62.8120   -2.7550 O.2   133  ALA133     -0.2864
     50  CB        62.2240  -60.6560   -3.9580 C.3   133  ALA133      0.0319
     51  N         67.8650  -62.5140   -2.7910 N.3   136  ASN136     -0.1240
     52  CA        67.8830  -62.2320   -1.3460 C.3   136  ASN136      0.1653
     53  C         67.3810  -63.4300   -0.4990 C.2   136  ASN136      0.2266
     54  O         67.9800  -63.8400    0.5150 O.2   136  ASN136     -0.2867
     55  CB        66.9940  -61.0250   -1.0240 C.3   136  ASN136      0.1155
     56  CG        67.6780  -59.6790   -1.2610 C.2   136  ASN136      0.2627
     57  OD1       68.8040  -59.6020   -1.6850 O.2   136  ASN136     -0.2716
     58  ND2       66.9620  -58.6030   -0.9780 N.am  136  ASN136     -0.0877
     59  N         62.7930  -52.2310  -15.7670 N.3   171  MET171     -0.1245
     60  CA        62.3460  -53.1710  -14.7080 C.3   171  MET171      0.1570
     61  C         62.1620  -54.5930  -15.2870 C.2   171  MET171      0.2261
     62  O         62.4610  -55.6110  -14.6350 O.2   171  MET171     -0.2867
     63  CB        61.0390  -52.7000  -14.0430 C.3   171  MET171      0.0387
     64  CG        61.1770  -51.7060  -12.9000 C.3   171  MET171      0.0595
     65  SD        62.3000  -52.0580  -11.4600 S.3   171  MET171     -0.1393
     66  CE        61.7230  -53.5460  -10.6790 C.3   171  MET171      0.0692
     67  N         64.7590  -47.6750   -8.9040 N.3   180  ARG180     -0.1245
     68  CA        64.6300  -49.0080   -8.2950 C.3   180  ARG180      0.1563
     69  C         65.3250  -50.0470   -9.1380 C.2   180  ARG180      0.2260
     70  O         65.8540  -50.9940   -8.6090 O.2   180  ARG180     -0.2867
     71  CB        63.1800  -49.4660   -8.1920 C.3   180  ARG180      0.0307
     72  CG        62.3320  -48.9700   -6.9990 C.3   180  ARG180      0.0489
     73  CD        60.9030  -49.6420   -7.1130 C.3   180  ARG180      0.2205
     74  NE        60.3250  -49.2410   -8.3980 N.pl3 180  ARG180     -0.0865
     75  CZ        59.5500  -49.9810   -9.1940 C.cat 180  ARG180      0.5346
     76  NH1       59.1640  -51.2090   -8.8560 N.pl3 180  ARG180      0.1354
     77  NH2       59.1200  -49.4730  -10.3430 N.pl3 180  ARG180      0.1354
     78  N         69.1800  -50.1520   -8.5480 N.3   183  TYR183     -0.1227
     79  CA        69.4130  -50.8180   -7.2480 C.3   183  TYR183      0.1736
     80  C         69.3120  -52.3230   -7.3500 C.2   183  TYR183      0.2595
     81  O         70.1320  -53.0660   -6.8250 O.2   183  TYR183     -0.2718
     82  CB        68.4480  -50.3080   -6.1660 C.3   183  TYR183      0.0548
     83  CG        68.5530  -51.1080   -4.9010 C.ar  183  TYR183     -0.0200
     84  CD1       69.6160  -50.9450   -4.0390 C.ar  183  TYR183     -0.0009
     85  CD2       67.6170  -52.0770   -4.5850 C.ar  183  TYR183     -0.0009
     86  CE1       69.7220  -51.7080   -2.8910 C.ar  183  TYR183      0.0417
     87  CE2       67.7280  -52.8400   -3.4480 C.ar  183  TYR183      0.0417
     88  CZ        68.7600  -52.6500   -2.6140 C.ar  183  TYR183      0.1957
     89  OH        68.8600  -53.4150   -1.4910 O.3   183  TYR183     -0.2866
     90  N         68.2940  -52.7700   -8.0390 N.am  184  CYS184     -0.1970
     91  CA        68.0530  -54.1770   -8.1850 C.3   184  CYS184      0.1712
     92  C         69.1680  -54.8070   -8.9480 C.2   184  CYS184      0.2296
     93  O         69.7540  -55.7520   -8.4630 O.2   184  CYS184     -0.2864
     94  CB        66.7330  -54.4170   -8.9190 C.3   184  CYS184      0.0983
     95  SG        65.3190  -54.1390   -7.8550 S.3   184  CYS184     -0.0798
     96  N         61.6820  -38.9790   -2.8380 N.3   226  HIS226     -0.1241
     97  CA        60.9470  -39.9750   -2.1210 C.3   226  HIS226      0.1621
     98  C         61.8410  -40.9700   -1.4750 C.2   226  HIS226      0.2264
     99  O         62.7990  -41.4660   -2.0810 O.2   226  HIS226     -0.2867
    100  CB        60.0180  -40.7210   -3.0830 C.3   226  HIS226      0.0745
    101  CG        58.8720  -41.3720   -2.3890 C.ar  226  HIS226      0.0817
    102  ND1       59.0030  -42.5680   -1.7310 N.ar  226  HIS226     -0.2268
    103  CD2       57.5850  -40.9660   -2.2060 C.ar  226  HIS226      0.1154
    104  CE1       57.8360  -42.8850   -1.1860 C.ar  226  HIS226      0.1986
    105  NE2       56.9580  -41.9350   -1.4630 N.ar  226  HIS226     -0.2212
    106  N         61.6190  -44.1590   -0.8970 N.3   228  GLY228     -0.1210
    107  CA        61.9220  -45.4470   -1.4990 C.3   228  GLY228      0.1956
    108  C         62.9730  -45.3440   -2.5980 C.2   228  GLY228      0.2611
    109  O         63.9170  -46.1380   -2.6720 O.2   228  GLY228     -0.2717
    110  N         62.8270  -44.3410   -3.4560 N.am  229  TYR229     -0.1976
    111  CA        63.8070  -44.1180   -4.5190 C.3   229  TYR229      0.1639
    112  C         65.1280  -43.6050   -3.9610 C.2   229  TYR229      0.2290
    113  O         66.1990  -43.9400   -4.4820 O.2   229  TYR229     -0.2864
    114  CB        63.2310  -43.1530   -5.5360 C.3   229  TYR229      0.0560
    115  CG        62.0190  -43.7130   -6.2570 C.ar  229  TYR229     -0.0198
    116  CD1       60.7750  -43.0750   -6.2030 C.ar  229  TYR229     -0.0009
    117  CD2       62.1350  -44.8810   -7.0040 C.ar  229  TYR229     -0.0009
    118  CE1       59.6650  -43.6080   -6.9120 C.ar  229  TYR229      0.0417
    119  CE2       61.0690  -45.4120   -7.6860 C.ar  229  TYR229      0.0417
    120  CZ        59.8250  -44.7920   -7.6430 C.ar  229  TYR229      0.1957
    121  OH        58.7820  -45.3950   -8.3580 O.3   229  TYR229     -0.2866
    122  N         67.2310  -46.6030   -2.5910 N.3   232  CYS232     -0.1235
    123  CA        67.7460  -47.3690   -3.7340 C.3   232  CYS232      0.1677
    124  C         68.8580  -46.6310   -4.4140 C.2   232  CYS232      0.2270
    125  O         69.8610  -47.2600   -4.8170 O.2   232  CYS232     -0.2867
    126  CB        66.6820  -47.5280   -4.8110 C.3   232  CYS232      0.0956
    127  SG        65.2960  -48.5810   -4.3250 S.3   232  CYS232     -0.0801
    128  N         57.5820  -40.3010    3.7700 N.3   268  GLY268     -0.1210
    129  CA        58.3030  -40.7620    2.5740 C.3   268  GLY268      0.1956
    130  C         58.6550  -39.6120    1.6430 C.2   268  GLY268      0.2611
    131  O         59.6230  -39.6610    0.8110 O.2   268  GLY268     -0.2717
    132  N         57.8540  -38.5750    1.7660 N.am  269  ARG269     -0.1979
    133  CA        58.1990  -37.3330    1.1660 C.3   269  ARG269      0.1597
    134  C         57.6420  -36.2350    2.0150 C.2   269  ARG269      0.2287
    135  O         56.8070  -36.4570    2.9020 O.2   269  ARG269     -0.2864
    136  CB        57.7000  -37.2590   -0.2520 C.3   269  ARG269      0.0334
    137  CG        56.3540  -37.8320   -0.4310 C.3   269  ARG269      0.0492
    138  CD        55.8870  -37.7200   -1.8780 C.3   269  ARG269      0.2205
    139  NE        54.7870  -38.6340   -2.0960 N.pl3 269  ARG269     -0.0865
    140  CZ        53.9120  -38.5750   -3.0920 C.cat 269  ARG269      0.5346
    141  NH1       53.9800  -37.6370   -4.0000 N.pl3 269  ARG269      0.1354
    142  NH2       52.9590  -39.4870   -3.1610 N.pl3 269  ARG269      0.1354
    143  N         53.8210  -35.1070    3.6910 N.3   272  LYS272     -0.1231
    144  CA        52.8810  -36.2370    3.6040 C.3   272  LYS272      0.1693
    145  C         52.7520  -36.8730    5.0100 C.2   272  LYS272      0.2591
    146  O         52.8600  -36.1420    6.0120 O.2   272  LYS272     -0.2718
    147  CB        53.2280  -37.2190    2.4750 C.3   272  LYS272      0.0285
    148  CG        53.0150  -36.5970    1.1040 C.3   272  LYS272      0.0035
    149  CD        52.5080  -37.5860    0.0440 C.3   272  LYS272      0.0206
    150  CE        51.0650  -37.9740    0.3070 C.3   272  LYS272      0.1093
    151  NZ        50.5900  -38.9720   -0.6650 N.3   272  LYS272     -0.1314
    152  N         52.4730  -38.1740    5.0930 N.am  273  LEU273     -0.1980
    153  CA        52.0840  -38.7910    6.3540 C.3   273  LEU273      0.1596
    154  C         53.0500  -39.8250    6.8840 C.2   273  LEU273      0.2287
    155  O         53.7020  -40.5350    6.1530 O.2   273  LEU273     -0.2864
    156  CB        50.7090  -39.4440    6.2070 C.3   273  LEU273      0.0297
    157  CG        49.5880  -38.4460    5.8860 C.3   273  LEU273      0.0022
    158  CD1       48.3600  -39.2060    5.5130 C.3   273  LEU273      0.0001
    159  CD2       49.3370  -37.4790    7.0810 C.3   273  LEU273      0.0001
    160  N         54.4600  -43.2740    8.1040 N.3   275  ASP275     -0.1239
    161  CA        54.2270  -44.6390    7.6260 C.3   275  ASP275      0.1674
    162  C         55.3720  -45.5620    8.0400 C.2   275  ASP275      0.2266
    163  O         56.5260  -45.3770    7.6540 O.2   275  ASP275     -0.2867
    164  CB        54.0410  -44.6780    6.1090 C.3   275  ASP275      0.1410
    165  CG        53.8420  -46.1220    5.5930 C.2   275  ASP275      0.3668
    166  OD1       54.3630  -47.0840    6.2140 O.co2 275  ASP275     -0.2456
    167  OD2       53.1390  -46.3380    4.5930 O.co2 275  ASP275     -0.2456
    168  N         56.7570  -48.3500    7.1050 N.3   277  CYS277     -0.1221
    169  CA        57.8460  -48.9540    6.2740 C.3   277  CYS277      0.1808
    170  C         58.8990  -47.9550    5.9340 C.2   277  CYS277      0.2601
    171  O         60.0150  -48.3350    5.6160 O.2   277  CYS277     -0.2717
    172  CB        57.3320  -49.5720    4.9880 C.3   277  CYS277      0.0970
    173  SG        56.4370  -48.3570    3.9800 S.3   277  CYS277     -0.0800
    174  N         58.5780  -46.6650    6.0030 N.am  278  TYR278     -0.1976
    175  CA        59.6690  -45.6570    5.9860 C.3   278  TYR278      0.1639
    176  C         60.6050  -45.7450    7.1640 C.2   278  TYR278      0.2290
    177  O         61.5950  -45.1020    7.1850 O.2   278  TYR278     -0.2864
    178  CB        59.1430  -44.2310    5.7990 C.3   278  TYR278      0.0560
    179  CG        58.3590  -44.1500    4.5230 C.ar  278  TYR278     -0.0198
    180  CD1       58.8750  -44.6310    3.3220 C.ar  278  TYR278     -0.0009
    181  CD2       57.0710  -43.6460    4.5210 C.ar  278  TYR278     -0.0009
    182  CE1       58.1090  -44.5910    2.1450 C.ar  278  TYR278      0.0417
    183  CE2       56.3030  -43.6150    3.3530 C.ar  278  TYR278      0.0417
    184  CZ        56.8280  -44.0930    2.1960 C.ar  278  TYR278      0.1957
    185  OH        56.0370  -44.0690    1.1040 O.3   278  TYR278     -0.2866
    186  N         63.1350  -47.4140    4.8300 N.3   281  TRP281     -0.1241
    187  CA        63.6390  -46.7390    3.6190 C.3   281  TRP281      0.1605
    188  C         64.3030  -45.4170    3.9600 C.2   281  TRP281      0.2264
    189  O         65.2950  -45.0680    3.3270 O.2   281  TRP281     -0.2867
    190  CB        62.5500  -46.4640    2.5850 C.3   281  TRP281      0.0550
    191  CG        61.7810  -47.6990    2.1890 C.ar  281  TRP281      0.0003
    192  CD1       60.4830  -47.9590    2.4550 C.ar  281  TRP281      0.0946
    193  CD2       62.2840  -48.8270    1.4500 C.ar  281  TRP281      0.0152
    194  NE1       60.1370  -49.1520    1.9120 N.ar  281  TRP281     -0.2442
    195  CE2       61.2200  -49.7220    1.3080 C.ar  281  TRP281      0.0810
    196  CE3       63.5200  -49.1370    0.8650 C.ar  281  TRP281      0.0012
    197  CZ2       61.3410  -50.9380    0.6180 C.ar  281  TRP281      0.0191
    198  CZ3       63.6580  -50.3330    0.1840 C.ar  281  TRP281      0.0001
    199  CH2       62.5690  -51.2310    0.0610 C.ar  281  TRP281      0.0015
    200  N         54.3790  -56.8780    3.7810 N.3   339  TYR339     -0.1241
    201  CA        55.3370  -55.8320    3.4060 C.3   339  TYR339      0.1605
    202  C         55.6180  -54.9220    4.5950 C.2   339  TYR339      0.2264
    203  O         56.7940  -54.6480    4.9010 O.2   339  TYR339     -0.2867
    204  CB        54.8370  -55.0080    2.2100 C.3   339  TYR339      0.0534
    205  CG        55.5350  -53.6350    1.9740 C.ar  339  TYR339     -0.0201
    206  CD1       56.5970  -53.4800    1.0320 C.ar  339  TYR339     -0.0009
    207  CD2       55.1070  -52.5040    2.6570 C.ar  339  TYR339     -0.0009
    208  CE1       57.1800  -52.2760    0.8050 C.ar  339  TYR339      0.0417
    209  CE2       55.6830  -51.2930    2.4140 C.ar  339  TYR339      0.0417
    210  CZ        56.7270  -51.1770    1.4810 C.ar  339  TYR339      0.1957
    211  OH        57.2820  -49.9190    1.2780 O.3   339  TYR339     -0.2866
    212  N         59.2880  -54.4580    6.7260 N.3   343  TYR343     -0.1241
    213  CA        59.9940  -53.1580    6.8420 C.3   343  TYR343      0.1605
    214  C         59.8700  -52.3840    8.1540 C.2   343  TYR343      0.2264
    215  O         60.8130  -51.6860    8.5510 O.2   343  TYR343     -0.2867
    216  CB        59.6560  -52.2600    5.6760 C.3   343  TYR343      0.0534
    217  CG        60.2410  -52.8560    4.4390 C.ar  343  TYR343     -0.0201
    218  CD1       59.4830  -53.6490    3.5700 C.ar  343  TYR343     -0.0009
    219  CD2       61.5800  -52.6900    4.1650 C.ar  343  TYR343     -0.0009
    220  CE1       60.0590  -54.2180    2.4440 C.ar  343  TYR343      0.0417
    221  CE2       62.1470  -53.2370    3.0720 C.ar  343  TYR343      0.0417
    222  CZ        61.3800  -53.9940    2.2180 C.ar  343  TYR343      0.1957
    223  OH        62.0210  -54.5080    1.1350 O.3   343  TYR343     -0.2866
@<TRIPOS>BOND
     1    59    60    1
     2    61    60    1
     3    61    62    2
     4    60    63    1
     5    63    64    1
     6    64    65    1
     7    65    66    1
     8    77    75    1
     9    34    35    1
    10    75    76    1
    11    75    74    2
    12    69    70    2
    13    69    68    1
    14    92    93    2
    15    92    91    1
    16    94    91    1
    17    94    95    1
    18    67    68    1
    19    78    79    1
    20    35    38    1
    21    35    36    1
    22    74    73    1
    23   121   120    1
    24    68    71    1
    25    71    72    1
    26    91    90    1
    27    90    80   am
    28    36    37    2
    29   119   120   ar
    30   119   117   ar
    31   120   118   ar
    32    39    40    1
    33    80    79    1
    34    80    81    2
    35    79    82    1
    36    73    72    1
    37   117   115   ar
    38   118   116   ar
    39    44    43    1
    40    40    43    1
    41    40    41    1
    42   115   116   ar
    43   115   114    1
    44    82    83    1
    45    43    45    1
    46   114   111    1
    47     6     5    1
    48    41    46   am
    49    41    42    2
    50    46    47    1
    51    83    85   ar
    52    83    84   ar
    53   125   124    2
    54   126   127    1
    55   126   123    1
    56    85    87   ar
    57   111   112    1
    58   111   110    1
    59   113   112    2
    60   124   123    1
    61    84    86   ar
    62     1     2    1
    63   141   140    1
    64    50    47    1
    65    47    48    1
    66    48    49    2
    67     5     2    1
    68     5     7    1
    69   123   122    1
    70   110   108   am
    71    87    88   ar
    72   142   140    1
    73     2     3    1
    74   140   139    2
    75   100   101    1
    76   100    97    1
    77    86    88   ar
    78    96    97    1
    79    51    52    1
    80   109   108    2
    81    88    89    1
    82   108   107    1
    83   101   103   ar
    84   101   102   ar
    85   103   105   ar
    86    97    98    1
    87   139   138    1
    88    99    98    2
    89   138   137    1
    90     3     4    2
    91   102   104   ar
    92    57    56    2
    93   107   106    1
    94   105   104   ar
    95    52    55    1
    96    52    53    1
    97    56    55    1
    98    56    58   am
    99    33    31   ar
   100    33    32   ar
   101    31    29   ar
   102   151   150    1
   103    53    54    2
   104   137   136    1
   105    32    30   ar
   106   136   133    1
   107    12    13    1
   108    12     9    1
   109   149   150    1
   110   149   148    1
   111   199   198   ar
   112   199   197   ar
   113    29    28   ar
   114    29    27   ar
   115   198   196   ar
   116     8     9    1
   117    28    26   ar
   118    15    13   ar
   119    15    17   ar
   120    13    14   ar
   121   197   195   ar
   122    30    27   ar
   123   208   206   ar
   124   208   210   ar
   125   131   130    2
   126   196   193   ar
   127     9    10    1
   128    27    25   ar
   129   206   205   ar
   130   148   147    1
   131   185   184    1
   132   223   222    1
   133   133   132    1
   134   133   134    1
   135    17    18   ar
   136    14    16   ar
   137   211   210    1
   138   195   193   ar
   139   195   194   ar
   140   193   191   ar
   141   210   209   ar
   142    26    25   ar
   143   130   132   am
   144   130   129    1
   145    25    24    1
   146    18    16   ar
   147    18    19    1
   148   194   192   ar
   149    20    10   am
   150    20    21    1
   151   205   204    1
   152   205   207   ar
   153   134   135    2
   154    10    11    2
   155   182   184   ar
   156   182   180   ar
   157   191   192   ar
   158   191   190    1
   159   184   183   ar
   160   204   201    1
   161   222   220   ar
   162   222   221   ar
   163   209   207   ar
   164   220   218   ar
   165   147   144    1
   166   129   128    1
   167   190   187    1
   168    24    21    1
   169   221   219   ar
   170    21    22    1
   171   180   179   ar
   172   189   188    2
   173   183   181   ar
   174   201   200    1
   175   201   202    1
   176   218   217   ar
   177   144   143    1
   178   144   145    1
   179   187   188    1
   180   187   186    1
   181   173   172    1
   182   219   217   ar
   183    22    23    2
   184   217   216    1
   185   181   179   ar
   186   179   178    1
   187   167   165   ar
   188   202   203    2
   189   172   169    1
   190   145   152   am
   191   145   146    2
   192   152   153    1
   193   158   157    1
   194   165   164    1
   195   165   166   ar
   196   171   170    2
   197   216   213    1
   198   178   175    1
   199   157   156    1
   200   157   159    1
   201   170   174   am
   202   170   169    1
   203   175   174    1
   204   175   176    1
   205   164   161    1
   206   155   154    2
   207   156   153    1
   208   169   168    1
   209   153   154    1
   210   212   213    1
   211   213   214    1
   212   176   177    2
   213   161   162    1
   214   161   160    1
   215   163   162    2
   216   214   215    2
