@<TRIPOS>MOLECULE
tmp/3ev1B00.pdb
 79 73 0 0 0
SMALL
GASTEIGER

@<TRIPOS>ATOM
      1  N        -55.8270   -6.3760   -9.7880 N.3    65  CYS65      -0.1221
      2  CA       -55.6460   -6.6150   -8.3590 C.3    65  CYS65       0.1808
      3  C        -54.2290   -7.1550   -8.1650 C.2    65  CYS65       0.2601
      4  O        -53.5140   -7.3930   -9.1290 O.2    65  CYS65      -0.2717
      5  CB       -56.6240   -7.6730   -7.8390 C.3    65  CYS65       0.0970
      6  SG       -58.3960   -7.3220   -8.0360 S.3    65  CYS65      -0.0800
      7  N        -53.8550   -7.3920   -6.9130 N.am   66  LYS66      -0.1965
      8  CA       -52.5440   -7.9400   -6.5880 C.3    66  LYS66       0.1728
      9  C        -52.3530   -9.3350   -7.1670 C.2    66  LYS66       0.2616
     10  O        -51.3480   -9.6090   -7.8050 O.2    66  LYS66      -0.2715
     11  CB       -52.3660   -8.0260   -5.0760 C.3    66  LYS66       0.0311
     12  CG       -51.3380   -7.0870   -4.5150 C.3    66  LYS66       0.0038
     13  CD       -51.9280   -5.7180   -4.2140 C.3    66  LYS66       0.0206
     14  CE       -50.8970   -4.8490   -3.5280 C.3    66  LYS66       0.1093
     15  NZ       -50.3020   -5.5470   -2.3480 N.3    66  LYS66      -0.1314
     16  N        -53.3260  -10.2120   -6.9270 N.am   67  ASN67      -0.1972
     17  CA       -53.2720  -11.5980   -7.3900 C.3    67  ASN67       0.1688
     18  C        -53.5390  -11.8110   -8.8750 C.2    67  ASN67       0.2292
     19  O        -53.6920  -12.9470   -9.3210 O.2    67  ASN67      -0.2864
     20  CB       -54.2220  -12.4780   -6.5620 C.3    67  ASN67       0.1181
     21  CG       -55.7000  -12.1410   -6.7770 C.2    67  ASN67       0.2629
     22  OD1      -56.0510  -11.2220   -7.5030 O.2    67  ASN67      -0.2716
     23  ND2      -56.5690  -12.9100   -6.1400 N.am   67  ASN67      -0.0877
     24  N        -56.2550  -10.6930  -10.6100 N.3    69  GLN69      -0.1245
     25  CA       -57.6610  -10.5130  -10.9940 C.3    69  GLN69       0.1566
     26  C        -57.8830   -9.1510  -11.6560 C.2    69  GLN69       0.2260
     27  O        -57.1270   -8.2100  -11.4250 O.2    69  GLN69      -0.2867
     28  CB       -58.5950  -10.6930   -9.7890 C.3    69  GLN69       0.0367
     29  CG       -58.6330  -12.1210   -9.2740 C.3    69  GLN69       0.0905
     30  CD       -59.6280  -12.3390   -8.1520 C.2    69  GLN69       0.2608
     31  OE1      -59.4640  -13.2450   -7.3380 O.2    69  GLN69      -0.2717
     32  NE2      -60.6810  -11.5270   -8.1170 N.am   69  GLN69      -0.0878
     33  N        -60.9920   -7.5400  -11.5220 N.3    71  ASN71      -0.1240
     34  CA       -62.1670   -6.9160  -10.9100 C.3    71  ASN71       0.1653
     35  C        -61.8850   -5.9500   -9.7420 C.2    71  ASN71       0.2266
     36  O        -62.6780   -5.8790   -8.7880 O.2    71  ASN71      -0.2867
     37  CB       -63.1450   -7.9980  -10.4530 C.3    71  ASN71       0.1155
     38  CG       -62.5060   -8.9720   -9.4810 C.2    71  ASN71       0.2627
     39  OD1      -61.3810   -9.4130   -9.7020 O.2    71  ASN71      -0.2716
     40  ND2      -63.1950   -9.2710   -8.3770 N.am   71  ASN71      -0.0877
     41  N        -61.6600   -4.7570   -4.5080 N.3   109  ALA109     -0.1245
     42  CA       -62.1490   -5.7750   -5.4340 C.3   109  ALA109      0.1562
     43  C        -63.6770   -5.8370   -5.3000 C.2   109  ALA109      0.2260
     44  O        -64.2060   -5.8380   -4.1900 O.2   109  ALA109     -0.2867
     45  CB       -61.5310   -7.1130   -5.1150 C.3   109  ALA109      0.0290
     46  N        -67.5370   -7.6330   -6.2460 N.3   111  GLU111     -0.1245
     47  CA       -68.2430   -8.8600   -6.6170 C.3   111  GLU111      0.1567
     48  C        -69.7330   -8.8630   -6.3170 C.2   111  GLU111      0.2260
     49  O        -70.2330   -8.0390   -5.5540 O.2   111  GLU111     -0.2867
     50  CB       -67.6550  -10.0510   -5.8700 C.3   111  GLU111      0.0388
     51  CG       -66.4840  -10.7200   -6.5310 C.3   111  GLU111      0.1160
     52  CD       -66.0050  -11.9280   -5.7540 C.2   111  GLU111      0.3649
     53  OE1      -66.2360  -11.9770   -4.5260 O.co2 111  GLU111     -0.2457
     54  OE2      -65.3970  -12.8320   -6.3660 O.co2 111  GLU111     -0.2457
     55  N        -65.6250   -6.3510   -1.8950 N.3   118  VAL118     -0.1231
     56  CA       -65.5320   -7.5200   -1.0370 C.3   118  VAL118      0.1692
     57  C        -64.1060   -7.6660   -0.5410 C.2   118  VAL118      0.2592
     58  O        -63.8350   -8.4250    0.3890 O.2   118  VAL118     -0.2718
     59  CB       -65.9870   -8.8180   -1.7580 C.3   118  VAL118      0.0266
     60  CG1      -67.4570   -8.7020   -2.1690 C.3   118  VAL118      0.0020
     61  CG2      -65.1040   -9.1190   -2.9570 C.3   118  VAL118      0.0020
     62  N        -63.1980   -6.8950   -1.1300 N.am  119  HIS119     -0.1976
     63  CA       -61.7970   -6.9610   -0.7460 C.3   119  HIS119      0.1656
     64  C        -61.1020   -5.6050   -0.8320 C.2   119  HIS119      0.2291
     65  O        -61.3110   -4.8580   -1.7890 O.2   119  HIS119     -0.2864
     66  CB       -61.0760   -7.9910   -1.6310 C.3   119  HIS119      0.0771
     67  CG       -59.5830   -7.9320   -1.5400 C.ar  119  HIS119      0.0820
     68  ND1      -58.8620   -8.6750   -0.6290 N.ar  119  HIS119     -0.2267
     69  CD2      -58.6780   -7.1830   -2.2160 C.ar  119  HIS119      0.1154
     70  CE1      -57.5780   -8.3830   -0.7460 C.ar  119  HIS119      0.1986
     71  NE2      -57.4390   -7.4810   -1.7010 N.ar  119  HIS119     -0.2212
     72  N        -57.8570   -3.8840   -1.5340 N.3   121  ASP121     -0.1239
     73  CA       -56.5710   -4.1950   -2.1490 C.3   121  ASP121      0.1674
     74  C        -55.4080   -3.3160   -1.7100 C.2   121  ASP121      0.2266
     75  O        -54.3300   -3.8180   -1.4000 O.2   121  ASP121     -0.2867
     76  CB       -56.6910   -4.1790   -3.6690 C.3   121  ASP121      0.1410
     77  CG       -55.9330   -5.3220   -4.3180 C.2   121  ASP121      0.3668
     78  OD1      -56.1170   -6.4750   -3.9010 O.co2 121  ASP121     -0.2456
     79  OD2      -55.1440   -5.0780   -5.2350 O.co2 121  ASP121     -0.2456
@<TRIPOS>BOND
     1    26    27    2
     2    26    25    1
     3    33    34    1
     4    25    24    1
     5    25    28    1
     6    34    37    1
     7    34    35    1
     8    37    38    1
     9    28    29    1
    10     1     2    1
    11    35    36    2
    12    39    38    2
    13    38    40   am
    14    19    18    2
    15    29    30    1
    16     4     3    2
    17    18    17    1
    18     2     3    1
    19     2     5    1
    20     3     7   am
    21    30    32   am
    22    30    31    2
    23     6     5    1
    24    10     9    2
    25    22    21    2
    26    17    16    1
    27    17    20    1
    28     9    16   am
    29     9     8    1
    30     7     8    1
    31    21    20    1
    32    21    23   am
    33    47    48    1
    34    47    46    1
    35    47    50    1
    36     8    11    1
    37    51    50    1
    38    51    52    1
    39    54    52   ar
    40    48    49    2
    41    52    53   ar
    42    42    43    1
    43    42    45    1
    44    42    41    1
    45    43    44    2
    46    79    77   ar
    47    11    12    1
    48    12    13    1
    49    77    78   ar
    50    77    76    1
    51    13    14    1
    52    76    73    1
    53    14    15    1
    54    61    59    1
    55    69    71   ar
    56    69    67   ar
    57    60    59    1
    58    73    74    1
    59    73    72    1
    60    55    56    1
    61    65    64    2
    62    59    56    1
    63    74    75    2
    64    71    70   ar
    65    66    67    1
    66    66    63    1
    67    67    68   ar
    68    62    63    1
    69    62    57   am
    70    56    57    1
    71    64    63    1
    72    70    68   ar
    73    57    58    2
