@<TRIPOS>MOLECULE
tmp/3evaA00.pdb
 161 156 0 0 0
SMALL
GASTEIGER

@<TRIPOS>ATOM
      1  N         24.4090   38.3180  -28.1150 N.3    51  SER51      -0.1217
      2  CA        24.5410   37.5170  -29.3270 C.3    51  SER51       0.1889
      3  C         23.1670   37.1460  -29.8530 C.2    51  SER51       0.2288
      4  O         22.1590   37.3850  -29.1920 O.2    51  SER51      -0.2866
      5  CB        25.3090   36.2300  -29.0380 C.3    51  SER51       0.2089
      6  OG        24.4670   35.3160  -28.3540 O.3    51  SER51      -0.2183
      7  N         22.1670   34.3450  -30.0240 N.3    53  GLY53      -0.1225
      8  CA        21.7540   33.1820  -29.2570 C.3    53  GLY53       0.1811
      9  C         20.6160   33.4180  -28.2890 C.2    53  GLY53       0.2280
     10  O         19.8140   32.5200  -28.0360 O.2    53  GLY53      -0.2866
     11  N         25.4260   26.1360  -18.5620 N.3    74  ASP74      -0.1239
     12  CA        25.4890   26.3970  -19.9950 C.3    74  ASP74       0.1674
     13  C         26.8630   26.0040  -20.5170 C.2    74  ASP74       0.2266
     14  O         27.8580   26.6870  -20.2570 O.2    74  ASP74      -0.2867
     15  CB        25.2100   27.8850  -20.2460 C.3    74  ASP74       0.1410
     16  CG        25.1700   28.2420  -21.7170 C.2    74  ASP74       0.3668
     17  OD1       25.1180   27.3240  -22.5610 O.co2  74  ASP74      -0.2456
     18  OD2       25.1790   29.4570  -22.0270 O.co2  74  ASP74      -0.2456
     19  N         29.5380   25.6540  -23.3330 N.3    76  GLY76      -0.1210
     20  CA        29.8620   26.3310  -24.5760 C.3    76  GLY76       0.1956
     21  C         29.0820   27.6280  -24.6180 C.2    76  GLY76       0.2612
     22  O         28.4240   27.9370  -25.6090 O.2    76  GLY76      -0.2717
     23  N         29.1640   28.4020  -23.5410 N.am   77  CYS77      -0.1956
     24  CA        28.4090   29.6460  -23.4550 C.3    77  CYS77       0.1843
     25  C         28.8400   30.7760  -24.3850 C.2    77  CYS77       0.2626
     26  O         28.0440   31.6640  -24.6770 O.2    77  CYS77      -0.2714
     27  CB        28.3830   30.1540  -22.0070 C.3    77  CYS77       0.0997
     28  SG        29.9700   30.7380  -21.3550 S.3    77  CYS77      -0.0797
     29  N         30.0810   30.7380  -24.8600 N.am   78  GLY78      -0.1940
     30  CA        30.5530   31.7950  -25.7390 C.3    78  GLY78       0.2014
     31  C         30.3990   33.1650  -25.0940 C.2    78  GLY78       0.2639
     32  O         30.7760   33.3540  -23.9350 O.2    78  GLY78      -0.2714
     33  N         29.8470   34.1210  -25.8400 N.am   79  ARG79      -0.1963
     34  CA        29.6250   35.4750  -25.3310 C.3    79  ARG79       0.1729
     35  C         28.6650   35.4900  -24.1380 C.2    79  ARG79       0.2617
     36  O         28.6690   36.4330  -23.3440 O.2    79  ARG79      -0.2715
     37  CB        29.0740   36.3730  -26.4410 C.3    79  ARG79       0.0348
     38  CG        30.0370   36.5940  -27.6010 C.3    79  ARG79       0.0492
     39  CD        29.3460   37.3140  -28.7470 C.3    79  ARG79       0.2205
     40  NE        30.2470   37.5490  -29.8700 N.pl3  79  ARG79      -0.0865
     41  CZ        29.8610   38.0280  -31.0480 C.cat  79  ARG79       0.5346
     42  NH1       28.5840   38.3220  -31.2620 N.pl3  79  ARG79       0.1354
     43  NH2       30.7530   38.2150  -32.0130 N.pl3  79  ARG79       0.1354
     44  N         27.8230   34.4630  -24.0330 N.am   80  GLY80      -0.1940
     45  CA        26.8930   34.3660  -22.9160 C.3    80  GLY80       0.2014
     46  C         25.4230   34.6340  -23.1940 C.2    80  GLY80       0.2639
     47  O         24.6440   34.8370  -22.2600 O.2    80  GLY80      -0.2714
     48  N         25.0300   34.6180  -24.4670 N.am   81  GLY81      -0.1939
     49  CA        23.6460   34.8840  -24.8210 C.3    81  GLY81       0.2014
     50  C         22.6040   34.0540  -24.0880 C.2    81  GLY81       0.2638
     51  O         21.5500   34.5610  -23.7120 O.2    81  GLY81      -0.2714
     52  N         22.8940   32.7740  -23.8890 N.am   82  TRP82      -0.1973
     53  CA        21.9600   31.8980  -23.1930 C.3    82  TRP82       0.1640
     54  C         22.0190   32.1150  -21.6900 C.2    82  TRP82       0.2290
     55  O         21.0120   31.9860  -20.9950 O.2    82  TRP82      -0.2864
     56  CB        22.2690   30.4380  -23.5250 C.3    82  TRP82       0.0576
     57  CG        21.8130   30.0150  -24.8870 C.ar   82  TRP82       0.0006
     58  CD1       21.4850   30.8230  -25.9390 C.ar   82  TRP82       0.0946
     59  CD2       21.6300   28.6710  -25.3420 C.ar   82  TRP82       0.0152
     60  NE1       21.1040   30.0620  -27.0190 N.ar   82  TRP82      -0.2442
     61  CE2       21.1850   28.7380  -26.6790 C.ar   82  TRP82       0.0810
     62  CE3       21.7990   27.4150  -24.7470 C.ar   82  TRP82       0.0012
     63  CZ2       20.9050   27.5940  -27.4330 C.ar   82  TRP82       0.0191
     64  CZ3       21.5200   26.2800  -25.4950 C.ar   82  TRP82       0.0001
     65  CH2       21.0780   26.3790  -26.8250 C.ar   82  TRP82       0.0015
     66  N         33.1050   27.9590  -21.2140 N.3    99  THR99      -0.1203
     67  CA        33.4490   28.0680  -22.6240 C.3    99  THR99       0.1994
     68  C         34.9660   28.1170  -22.7960 C.2    99  THR99       0.2617
     69  O         35.6940   28.4140  -21.8460 O.2    99  THR99      -0.2717
     70  CB        32.7870   29.3330  -23.2510 C.3    99  THR99       0.1784
     71  OG1       32.6210   29.1470  -24.6630 O.3    99  THR99      -0.2211
     72  CG2       33.6390   30.5710  -22.9990 C.3    99  THR99       0.0376
     73  N         35.4390   27.8070  -24.0010 N.am  100  LEU100     -0.1979
     74  CA        36.8720   27.8230  -24.2880 C.3   100  LEU100      0.1596
     75  C         37.4200   29.2400  -24.1770 C.2   100  LEU100      0.2287
     76  O         38.4140   29.4800  -23.4890 O.2   100  LEU100     -0.2864
     77  CB        37.1370   27.2770  -25.6930 C.3   100  LEU100      0.0297
     78  CG        36.9480   25.7710  -25.8800 C.3   100  LEU100      0.0022
     79  CD1       37.0110   25.4200  -27.3610 C.3   100  LEU100      0.0001
     80  CD2       38.0210   25.0240  -25.0970 C.3   100  LEU100      0.0001
     81  N         38.2770   31.5060  -30.0460 N.3   105  HIS105     -0.1226
     82  CA        36.9650   31.2370  -29.4660 C.3   105  HIS105      0.1752
     83  C         36.4460   32.4330  -28.6650 C.2   105  HIS105      0.2595
     84  O         37.1680   33.0080  -27.8510 O.2   105  HIS105     -0.2718
     85  CB        37.0390   29.9920  -28.5780 C.3   105  HIS105      0.0759
     86  CG        37.3830   28.7410  -29.3240 C.ar  105  HIS105      0.0818
     87  ND1       36.5600   28.1990  -30.2890 N.ar  105  HIS105     -0.2268
     88  CD2       38.4700   27.9340  -29.2620 C.ar  105  HIS105      0.1154
     89  CE1       37.1250   27.1140  -30.7880 C.ar  105  HIS105      0.1986
     90  NE2       38.2840   26.9310  -30.1830 N.ar  105  HIS105     -0.2212
     91  N         35.1890   32.7970  -28.9050 N.am  106  GLU106     -0.1979
     92  CA        34.5570   33.9300  -28.2330 C.3   106  GLU106      0.1602
     93  C         34.6180   33.8230  -26.7130 C.2   106  GLU106      0.2287
     94  O         34.3940   32.7530  -26.1460 O.2   106  GLU106     -0.2864
     95  CB        33.0870   34.0510  -28.6530 C.3   106  GLU106      0.0415
     96  CG        32.8200   33.8550  -30.1380 C.3   106  GLU106      0.1163
     97  CD        32.8840   32.3970  -30.5600 C.2   106  GLU106      0.3649
     98  OE1       33.1470   31.5320  -29.6980 O.co2 106  GLU106     -0.2457
     99  OE2       32.6690   32.1130  -31.7560 O.co2 106  GLU106     -0.2457
    100  N         37.9190   26.7490  -20.6200 N.3   125  THR125     -0.1203
    101  CA        37.3900   25.4650  -20.1820 C.3   125  THR125      0.1994
    102  C         36.8680   24.5960  -21.3200 C.2   125  THR125      0.2618
    103  O         35.9800   25.0030  -22.0720 O.2   125  THR125     -0.2717
    104  CB        36.2450   25.6590  -19.1640 C.3   125  THR125      0.1784
    105  OG1       36.7350   26.3670  -18.0180 O.3   125  THR125     -0.2211
    106  CG2       35.6880   24.3130  -18.7220 C.3   125  THR125      0.0376
    107  N         37.4300   23.3990  -21.4430 N.am  126  ASP126     -0.1959
    108  CA        37.0040   22.4410  -22.4580 C.3   126  ASP126      0.1840
    109  C         35.9400   21.6190  -21.7450 C.2   126  ASP126      0.2622
    110  O         36.2600   20.8310  -20.8560 O.2   126  ASP126     -0.2715
    111  CB        38.1640   21.5290  -22.8540 C.3   126  ASP126      0.1450
    112  CG        37.8020   20.5770  -23.9750 C.2   126  ASP126      0.3671
    113  OD1       36.6060   20.2420  -24.1230 O.co2 126  ASP126     -0.2456
    114  OD2       38.7180   20.1490  -24.7060 O.co2 126  ASP126     -0.2456
    115  N         34.6800   21.7930  -22.1300 N.am  127  ILE127     -0.1963
    116  CA        33.6090   21.0730  -21.4580 C.3   127  ILE127      0.1727
    117  C         33.6210   19.5560  -21.6390 C.2   127  ILE127      0.2616
    118  O         32.9330   18.8420  -20.9110 O.2   127  ILE127     -0.2715
    119  CB        32.2120   21.6600  -21.8340 C.3   127  ILE127      0.0290
    120  CG1       31.9200   21.4900  -23.3270 C.3   127  ILE127      0.0022
    121  CG2       32.1580   23.1320  -21.4450 C.3   127  ILE127      0.0023
    122  CD1       31.3680   20.1250  -23.6950 C.3   127  ILE127      0.0001
    123  N         34.4120   19.0530  -22.5830 N.am  128  HIS128     -0.1973
    124  CA        34.4870   17.6090  -22.7870 C.3   128  HIS128      0.1656
    125  C         35.2970   16.9580  -21.6710 C.2   128  HIS128      0.2291
    126  O         35.1650   15.7610  -21.4170 O.2   128  HIS128     -0.2864
    127  CB        35.1140   17.2840  -24.1460 C.3   128  HIS128      0.0771
    128  CG        34.2580   17.6770  -25.3090 C.ar  128  HIS128      0.0820
    129  ND1       33.0060   17.1420  -25.5250 N.ar  128  HIS128     -0.2267
    130  CD2       34.4670   18.5630  -26.3110 C.ar  128  HIS128      0.1154
    131  CE1       32.4810   17.6820  -26.6110 C.ar  128  HIS128      0.1986
    132  NE2       33.3470   18.5480  -27.1060 N.ar  128  HIS128     -0.2212
    133  N         25.2510   24.5160  -26.4150 N.3   141  ASP141     -0.1225
    134  CA        25.0760   25.0260  -27.7700 C.3   141  ASP141      0.1805
    135  C         26.3820   24.9000  -28.5420 C.2   141  ASP141      0.2598
    136  O         26.9020   25.8840  -29.0680 O.2   141  ASP141     -0.2718
    137  CB        24.6350   26.4910  -27.6880 C.3   141  ASP141      0.1424
    138  CG        24.0510   27.0040  -28.9860 C.2   141  ASP141      0.3668
    139  OD1       23.6200   26.1850  -29.8240 O.co2 141  ASP141     -0.2456
    140  OD2       24.0020   28.2400  -29.1580 O.co2 141  ASP141     -0.2456
    141  N         26.8960   23.6760  -28.6050 N.am  142  ILE142     -0.1966
    142  CA        28.1610   23.3770  -29.2710 C.3   142  ILE142      0.1727
    143  C         27.9870   22.4990  -30.5060 C.2   142  ILE142      0.2616
    144  O         27.1950   21.5550  -30.5100 O.2   142  ILE142     -0.2715
    145  CB        29.1190   22.6600  -28.2940 C.3   142  ILE142      0.0290
    146  CG1       29.4890   23.6030  -27.1480 C.3   142  ILE142      0.0022
    147  CG2       30.3700   22.1920  -29.0230 C.3   142  ILE142      0.0023
    148  CD1       30.2560   22.9260  -26.0290 C.3   142  ILE142      0.0001
    149  N         28.7480   22.8100  -31.5500 N.am  143  GLY143     -0.1955
    150  CA        28.6760   22.0390  -32.7780 C.3   143  GLY143      0.1869
    151  C         29.2010   22.8600  -33.9370 C.2   143  GLY143      0.2309
    152  O         28.5200   23.7540  -34.4300 O.2   143  GLY143     -0.2863
    153  N         22.2750   21.4830  -28.5310 N.3   177  LYS177     -0.1245
    154  CA        22.4190   21.5640  -29.9710 C.3   177  LYS177      0.1561
    155  C         22.8930   20.2300  -30.5420 C.2   177  LYS177      0.2260
    156  O         23.8300   19.6100  -30.0200 O.2   177  LYS177     -0.2867
    157  CB        23.4210   22.6600  -30.3340 C.3   177  LYS177      0.0271
    158  CG        23.6800   22.8130  -31.8200 C.3   177  LYS177      0.0035
    159  CD        24.7580   23.8580  -32.0490 C.3   177  LYS177      0.0206
    160  CE        25.1410   23.9580  -33.5050 C.3   177  LYS177      0.1093
    161  NZ        26.1550   25.0280  -33.6930 N.3   177  LYS177     -0.1314
@<TRIPOS>BOND
     1   152   151    2
     2   151   150    1
     3   161   160    1
     4   160   159    1
     5   150   149    1
     6   159   158    1
     7    43    41    1
     8   158   157    1
     9    99    97   ar
    10   149   143   am
    11    42    41    1
    12    41    40    2
    13    89    87   ar
    14    89    90   ar
    15    97    96    1
    16    97    98   ar
    17   155   156    2
    18   155   154    1
    19   144   143    2
    20   143   142    1
    21   157   154    1
    22    87    86   ar
    23    90    88   ar
    24    96    95    1
    25    81    82    1
    26     7     8    1
    27   154   153    1
    28    40    39    1
    29     3     2    1
    30     3     4    2
    31   139   138   ar
    32    82    83    1
    33    82    85    1
    34     2     5    1
    35     2     1    1
    36    86    88   ar
    37    86    85    1
    38   142   141    1
    39   142   145    1
    40     8     9    1
    41   140   138   ar
    42   136   135    2
    43     5     6    1
    44   147   145    1
    45   138   137    1
    46    91    83   am
    47    91    92    1
    48    39    38    1
    49    83    84    2
    50    95    92    1
    51   141   135   am
    52   135   134    1
    53   145   146    1
    54     9    10    2
    55    92    93    1
    56   134   137    1
    57   134   133    1
    58    38    37    1
    59    63    65   ar
    60    63    61   ar
    61    79    78    1
    62   146   148    1
    63   132   131   ar
    64   132   130   ar
    65    60    61   ar
    66    60    58   ar
    67    65    64   ar
    68    93    94    2
    69    61    59   ar
    70   131   129   ar
    71    37    34    1
    72   130   128   ar
    73    58    57   ar
    74    78    77    1
    75    78    80    1
    76    33    34    1
    77    33    31   am
    78    30    31    1
    79    30    29    1
    80    77    74    1
    81    22    21    2
    82   129   128   ar
    83    64    62   ar
    84    59    57   ar
    85    59    62   ar
    86    34    35    1
    87   128   127    1
    88    31    32    2
    89    57    56    1
    90    29    25   am
    91    49    48    1
    92    49    50    1
    93   114   112   ar
    94    26    25    2
    95    71    70    1
    96    21    20    1
    97    21    23   am
    98    20    19    1
    99    48    46   am
   100    25    24    1
   101    74    75    1
   102    74    73    1
   103    75    76    2
   104   127   124    1
   105    35    44   am
   106    35    36    2
   107   113   112   ar
   108    50    52   am
   109    50    51    2
   110    44    45    1
   111    73    68   am
   112   112   111    1
   113    52    53    1
   114   122   120    1
   115    23    24    1
   116    56    53    1
   117    24    27    1
   118   120   119    1
   119    70    72    1
   120    70    67    1
   121    46    45    1
   122    46    47    2
   123    53    54    1
   124   111   108    1
   125    68    67    1
   126    68    69    2
   127   124   123    1
   128   124   125    1
   129    67    66    1
   130   123   117   am
   131    17    16   ar
   132   108   109    1
   133   108   107    1
   134   115   109   am
   135   115   116    1
   136   103   102    2
   137    18    16   ar
   138    27    28    1
   139   119   116    1
   140   119   121    1
   141   109   110    2
   142    16    15    1
   143    54    55    2
   144   125   126    2
   145   117   116    1
   146   117   118    2
   147   107   102   am
   148   102   101    1
   149   100   101    1
   150    13    14    2
   151    13    12    1
   152    15    12    1
   153   101   104    1
   154    12    11    1
   155   104   106    1
   156   104   105    1
