@<TRIPOS>MOLECULE
tmp/3evcA01.pdb
 121 114 0 0 0
SMALL
GASTEIGER

@<TRIPOS>ATOM
      1  N         23.1300   17.6950  -47.5270 N.3     8  LYS8       -0.1245
      2  CA        24.4780   18.1960  -47.2920 C.3     8  LYS8        0.1561
      3  C         25.3020   18.1760  -48.5720 C.2     8  LYS8        0.2260
      4  O         26.0250   19.1250  -48.8680 O.2     8  LYS8       -0.2867
      5  CB        25.1720   17.3550  -46.2140 C.3     8  LYS8        0.0271
      6  CG        26.5270   17.8960  -45.7680 C.3     8  LYS8        0.0035
      7  CD        26.3930   19.3010  -45.1870 C.3     8  LYS8        0.0206
      8  CE        27.6670   19.7340  -44.4810 C.3     8  LYS8        0.1093
      9  NZ        27.5710   21.1240  -43.9590 N.3     8  LYS8       -0.1314
     10  N         24.0300   20.8590  -50.9080 N.3    11  LEU11      -0.1231
     11  CA        24.3520   22.1720  -50.3640 C.3    11  LEU11       0.1693
     12  C         25.7360   22.5990  -50.8540 C.2    11  LEU11       0.2592
     13  O         25.9290   23.7250  -51.3100 O.2    11  LEU11      -0.2718
     14  CB        24.3560   22.1280  -48.8290 C.3    11  LEU11       0.0284
     15  CG        24.8130   23.4000  -48.1000 C.3    11  LEU11       0.0019
     16  CD1       23.8130   24.5230  -48.3410 C.3    11  LEU11       0.0001
     17  CD2       24.9420   23.1220  -46.6040 C.3    11  LEU11       0.0001
     18  N         26.6940   21.6860  -50.7680 N.am   12  ASN12      -0.1974
     19  CA        28.0590   21.9860  -51.1810 C.3    12  ASN12       0.1688
     20  C         28.2350   22.2460  -52.6740 C.2    12  ASN12       0.2292
     21  O         29.2660   22.7770  -53.0900 O.2    12  ASN12      -0.2864
     22  CB        29.0080   20.8660  -50.7470 C.3    12  ASN12       0.1181
     23  CG        29.1990   20.8140  -49.2430 C.2    12  ASN12       0.2629
     24  OD1       29.2040   21.8450  -48.5710 O.2    12  ASN12      -0.2716
     25  ND2       29.3770   19.6110  -48.7130 N.am   12  ASN12      -0.0877
     26  N         26.0680   24.1340  -54.5410 N.3    14  LEU14      -0.1231
     27  CA        25.4740   25.4190  -54.9010 C.3    14  LEU14       0.1693
     28  C         26.5200   26.4700  -55.2540 C.2    14  LEU14       0.2592
     29  O         27.6070   26.4860  -54.6770 O.2    14  LEU14      -0.2718
     30  CB        24.6310   25.9520  -53.7430 C.3    14  LEU14       0.0284
     31  CG        23.4400   25.1140  -53.2800 C.3    14  LEU14       0.0019
     32  CD1       22.7730   25.8070  -52.1010 C.3    14  LEU14       0.0001
     33  CD2       22.4560   24.9430  -54.4300 C.3    14  LEU14       0.0001
     34  N         26.1930   27.3530  -56.1960 N.am   15  ASP15      -0.1960
     35  CA        27.1290   28.4130  -56.5570 C.3    15  ASP15       0.1840
     36  C         27.0500   29.5040  -55.4880 C.2    15  ASP15       0.2621
     37  O         26.1770   29.4650  -54.6190 O.2    15  ASP15      -0.2715
     38  CB        26.8280   28.9910  -57.9550 C.3    15  ASP15       0.1450
     39  CG        25.4470   29.6190  -58.0610 C.2    15  ASP15       0.3671
     40  OD1       25.0080   30.2840  -57.1020 O.co2  15  ASP15      -0.2456
     41  OD2       24.8060   29.4670  -59.1260 O.co2  15  ASP15      -0.2456
     42  N         27.9600   30.4700  -55.5530 N.am   16  LYS16      -0.1977
     43  CA        28.0190   31.5520  -54.5750 C.3    16  LYS16       0.1596
     44  C         26.7130   32.3040  -54.3460 C.2    16  LYS16       0.2287
     45  O         26.2880   32.4760  -53.2020 O.2    16  LYS16      -0.2864
     46  CB        29.1140   32.5490  -54.9650 C.3    16  LYS16       0.0298
     47  CG        30.5160   31.9590  -54.9820 C.3    16  LYS16       0.0038
     48  CD        31.5420   33.0040  -55.4060 C.3    16  LYS16       0.0206
     49  CE        32.9480   32.4220  -55.4470 C.3    16  LYS16       0.1093
     50  NZ        33.9630   33.4460  -55.8270 N.3    16  LYS16      -0.1314
     51  N         24.0410   29.9520  -52.8370 N.3    19  PHE19      -0.1241
     52  CA        24.3220   29.6370  -51.4420 C.3    19  PHE19       0.1605
     53  C         23.9190   30.8090  -50.5520 C.2    19  PHE19       0.2264
     54  O         23.2970   30.6200  -49.5060 O.2    19  PHE19      -0.2867
     55  CB        25.8060   29.3340  -51.2320 C.3    19  PHE19       0.0534
     56  CG        26.1710   29.1320  -49.7900 C.ar   19  PHE19      -0.0203
     57  CD1       25.7650   27.9870  -49.1110 C.ar   19  PHE19      -0.0042
     58  CD2       26.8690   30.1120  -49.0940 C.ar   19  PHE19      -0.0042
     59  CE1       26.0460   27.8250  -47.7550 C.ar   19  PHE19      -0.0003
     60  CE2       27.1540   29.9610  -47.7410 C.ar   19  PHE19      -0.0003
     61  CZ        26.7400   28.8140  -47.0690 C.ar   19  PHE19      -0.0000
     62  N         20.8590   30.2680  -47.8450 N.3    23  LYS23      -0.1245
     63  CA        21.0060   30.3030  -46.3940 C.3    23  LYS23       0.1561
     64  C         19.9780   31.1570  -45.6550 C.2    23  LYS23       0.2260
     65  O         19.6660   30.8810  -44.5000 O.2    23  LYS23      -0.2867
     66  CB        22.4300   30.7290  -46.0040 C.3    23  LYS23       0.0271
     67  CG        22.8050   32.1590  -46.3280 C.3    23  LYS23       0.0035
     68  CD        24.2460   32.4290  -45.9060 C.3    23  LYS23       0.0206
     69  CE        24.6550   33.8690  -46.1700 C.3    23  LYS23       0.1093
     70  NZ        26.0650   34.1240  -45.7470 N.3    23  LYS23      -0.1314
     71  N         30.1950   22.9000  -34.2940 N.3   144  GLU144     -0.1231
     72  CA        30.8410   23.6350  -35.3740 C.3   144  GLU144      0.1699
     73  C         30.5630   22.9930  -36.7290 C.2   144  GLU144      0.2593
     74  O         30.8710   21.8240  -36.9430 O.2   144  GLU144     -0.2718
     75  CB        32.3500   23.6990  -35.1240 C.3   144  GLU144      0.0402
     76  CG        33.1580   24.2560  -36.2850 C.3   144  GLU144      0.1161
     77  CD        34.6390   24.3610  -35.9640 C.2   144  GLU144      0.3649
     78  OE1       35.1900   23.4150  -35.3620 O.co2 144  GLU144     -0.2457
     79  OE2       35.2540   25.3870  -36.3210 O.co2 144  GLU144     -0.2457
     80  N         29.9760   23.7680  -37.6380 N.am  145  SER145     -0.1938
     81  CA        29.6580   23.2740  -38.9750 C.3   145  SER145      0.2055
     82  C         30.9020   22.8060  -39.7230 C.2   145  SER145      0.2644
     83  O         32.0110   23.2950  -39.4900 O.2   145  SER145     -0.2714
     84  CB        28.9700   24.3630  -39.8070 C.3   145  SER145      0.2130
     85  OG        27.7390   24.7670  -39.2350 O.3   145  SER145     -0.2179
     86  N         30.7050   21.8470  -40.6180 N.am  146  SER146     -0.1935
     87  CA        31.7830   21.3190  -41.4400 C.3   146  SER146      0.2055
     88  C         31.2000   20.9520  -42.7880 C.2   146  SER146      0.2643
     89  O         30.0710   20.4710  -42.8670 O.2   146  SER146     -0.2714
     90  CB        32.3990   20.0670  -40.8160 C.3   146  SER146      0.2130
     91  OG        33.3200   19.4790  -41.7200 O.3   146  SER146     -0.2179
     92  N         31.9590   21.1850  -43.8520 N.am  147  SER147     -0.1949
     93  CA        31.4760   20.8370  -45.1790 C.3   147  SER147      0.1924
     94  C         31.3630   19.3160  -45.2980 C.2   147  SER147      0.2314
     95  O         30.7180   18.8090  -46.2100 O.2   147  SER147     -0.2863
     96  CB        32.4220   21.3800  -46.2530 C.3   147  SER147      0.2116
     97  OG        33.7140   20.8240  -46.1110 O.3   147  SER147     -0.2180
     98  N         19.6180   29.1620  -39.7790 N.3   208  ARG208     -0.1245
     99  CA        19.7840   29.3900  -41.2110 C.3   208  ARG208      0.1563
    100  C         19.6760   28.0680  -41.9680 C.2   208  ARG208      0.2260
    101  O         19.9140   26.9990  -41.4050 O.2   208  ARG208     -0.2867
    102  CB        21.1330   30.0550  -41.4920 C.3   208  ARG208      0.0307
    103  CG        21.2230   31.4810  -40.9630 C.3   208  ARG208      0.0489
    104  CD        22.4860   32.1730  -41.4380 C.3   208  ARG208      0.2205
    105  NE        22.6080   33.5260  -40.9000 N.pl3 208  ARG208     -0.0865
    106  CZ        22.7570   33.8100  -39.6080 C.cat 208  ARG208      0.5346
    107  NH1       22.8020   32.8340  -38.7110 N.pl3 208  ARG208      0.1354
    108  NH2       22.8620   35.0720  -39.2130 N.pl3 208  ARG208      0.1354
    109  N         21.5760   26.8930  -44.1450 N.3   210  SER210     -0.1202
    110  CA        22.8780   26.3070  -44.4080 C.3   210  SER210      0.2020
    111  C         23.3350   25.3000  -43.3470 C.2   210  SER210      0.2619
    112  O         24.4050   24.7070  -43.4750 O.2   210  SER210     -0.2717
    113  CB        23.9190   27.4140  -44.5610 C.3   210  SER210      0.2103
    114  OG        23.8660   28.3050  -43.4660 O.3   210  SER210     -0.2182
    115  N         22.5300   25.1170  -42.3020 N.am  211  THR211     -0.1952
    116  CA        22.8400   24.1490  -41.2510 C.3   211  THR211      0.1897
    117  C         21.5790   23.3340  -40.9770 C.2   211  THR211      0.2313
    118  O         20.4720   23.8600  -41.0720 O.2   211  THR211     -0.2863
    119  CB        23.3020   24.8310  -39.9350 C.3   211  THR211      0.1794
    120  OG1       23.4810   23.8330  -38.9210 O.3   211  THR211     -0.2208
    121  CG2       22.2760   25.8400  -39.4530 C.3   211  THR211      0.0378
@<TRIPOS>BOND
     1    41    39   ar
     2    39    38    1
     3    39    40   ar
     4    38    35    1
     5    35    34    1
     6    35    36    1
     7    34    28   am
     8    50    49    1
     9    42    36   am
    10    42    43    1
    11    36    37    2
    12    49    48    1
    13    48    47    1
    14    28    27    1
    15    28    29    2
    16    47    46    1
    17    46    43    1
    18    27    26    1
    19    27    30    1
    20    43    44    1
    21    33    31    1
    22    44    45    2
    23    30    31    1
    24    31    32    1
    25    21    20    2
    26    51    52    1
    27    20    19    1
    28    52    55    1
    29    52    53    1
    30    13    12    2
    31    55    56    1
    32    19    18    1
    33    19    22    1
    34    10    11    1
    35    12    18   am
    36    12    11    1
    37    22    23    1
    38    53    54    2
    39    11    14    1
    40    56    57   ar
    41    56    58   ar
    42    23    25   am
    43    23    24    2
    44    57    59   ar
    45    58    60   ar
    46     4     3    2
    47    14    15    1
    48     3     2    1
    49    16    15    1
    50    15    17    1
    51    62    63    1
    52    59    61   ar
    53    60    61   ar
    54     1     2    1
    55     2     5    1
    56    63    66    1
    57    63    64    1
    58    67    66    1
    59    67    68    1
    60    96    97    1
    61    96    93    1
    62     5     6    1
    63    95    94    2
    64    69    68    1
    65    69    70    1
    66     6     7    1
    67    64    65    2
    68    94    93    1
    69     7     8    1
    70    93    92    1
    71   113   110    1
    72   113   114    1
    73     8     9    1
    74   110   109    1
    75   110   111    1
    76    92    88   am
    77   112   111    2
    78   111   115   am
    79    89    88    2
    80    88    87    1
    81   115   116    1
    82   100   101    2
    83   100    99    1
    84    91    90    1
    85   102    99    1
    86   102   103    1
    87    87    90    1
    88    87    86    1
    89   104   103    1
    90   104   105    1
    91   116   117    1
    92   116   119    1
    93    99    98    1
    94   118   117    2
    95   105   106    2
    96    86    82   am
    97   119   121    1
    98   119   120    1
    99    84    85    1
   100    84    81    1
   101    82    83    2
   102    82    81    1
   103   106   108    1
   104   106   107    1
   105    81    80    1
   106    80    73   am
   107    74    73    2
   108    73    72    1
   109    79    77   ar
   110    76    77    1
   111    76    75    1
   112    77    78   ar
   113    72    75    1
   114    72    71    1
