@<TRIPOS>MOLECULE
tmp/3evdA00.pdb
 121 114 0 0 0
SMALL
GASTEIGER

@<TRIPOS>ATOM
      1  N         23.3300   17.3070  -47.4570 N.3     8  LYS8       -0.1245
      2  CA        24.6860   17.7780  -47.2120 C.3     8  LYS8        0.1561
      3  C         25.5380   17.7040  -48.4760 C.2     8  LYS8        0.2260
      4  O         26.2700   18.6380  -48.7810 O.2     8  LYS8       -0.2867
      5  CB        25.3350   16.9590  -46.0900 C.3     8  LYS8        0.0271
      6  CG        26.7220   17.4440  -45.6520 C.3     8  LYS8        0.0035
      7  CD        26.7120   18.8900  -45.1470 C.3     8  LYS8        0.0206
      8  CE        27.9680   19.1990  -44.3360 C.3     8  LYS8        0.1093
      9  NZ        28.0160   20.5880  -43.8280 N.3     8  LYS8       -0.1314
     10  N         24.4570   20.3380  -50.8650 N.3    11  LEU11      -0.1231
     11  CA        24.7920   21.6570  -50.3600 C.3    11  LEU11       0.1693
     12  C         26.2050   22.0150  -50.8130 C.2    11  LEU11       0.2592
     13  O         26.4550   23.1270  -51.2660 O.2    11  LEU11      -0.2718
     14  CB        24.7140   21.6800  -48.8290 C.3    11  LEU11       0.0284
     15  CG        25.1570   22.9660  -48.1150 C.3    11  LEU11       0.0019
     16  CD1       24.1580   24.0860  -48.3670 C.3    11  LEU11       0.0001
     17  CD2       25.2650   22.7170  -46.6170 C.3    11  LEU11       0.0001
     18  N         27.1250   21.0640  -50.6930 N.am   12  ASN12      -0.1974
     19  CA        28.5090   21.3080  -51.0690 C.3    12  ASN12       0.1688
     20  C         28.7440   21.4550  -52.5680 C.2    12  ASN12       0.2292
     21  O         29.7990   21.9250  -52.9830 O.2    12  ASN12      -0.2864
     22  CB        29.4140   20.2060  -50.5180 C.3    12  ASN12       0.1181
     23  CG        29.5030   20.2320  -49.0040 C.2    12  ASN12       0.2629
     24  OD1       29.5110   21.2990  -48.3900 O.2    12  ASN12      -0.2716
     25  ND2       29.5920   19.0550  -48.3970 N.am   12  ASN12      -0.0877
     26  N         26.7760   23.2880  -54.5240 N.3    14  LEU14      -0.1231
     27  CA        26.3150   24.6170  -54.9200 C.3    14  LEU14       0.1693
     28  C         27.4980   25.5340  -55.2070 C.2    14  LEU14       0.2592
     29  O         28.5270   25.4470  -54.5410 O.2    14  LEU14      -0.2718
     30  CB        25.4710   25.2510  -53.8110 C.3    14  LEU14       0.0284
     31  CG        24.1740   24.5650  -53.3770 C.3    14  LEU14       0.0019
     32  CD1       23.5650   25.3430  -52.2190 C.3    14  LEU14       0.0001
     33  CD2       23.1980   24.4990  -54.5410 C.3    14  LEU14       0.0001
     34  N         27.3600   26.4090  -56.2000 N.am   15  ASP15      -0.1960
     35  CA        28.4440   27.3360  -56.4930 C.3    15  ASP15       0.1840
     36  C         28.3370   28.4460  -55.4550 C.2    15  ASP15       0.2621
     37  O         27.3530   28.5140  -54.7170 O.2    15  ASP15      -0.2715
     38  CB        28.3300   27.9060  -57.9160 C.3    15  ASP15       0.1450
     39  CG        27.1170   28.7950  -58.1050 C.2    15  ASP15       0.3671
     40  OD1       26.9900   29.8100  -57.3900 O.co2  15  ASP15      -0.2456
     41  OD2       26.2910   28.4830  -58.9850 O.co2  15  ASP15      -0.2456
     42  N         29.3410   29.3130  -55.3940 N.am   16  LYS16      -0.1977
     43  CA        29.3420   30.3900  -54.4130 C.3    16  LYS16       0.1596
     44  C         28.0320   31.1650  -54.3080 C.2    16  LYS16       0.2287
     45  O         27.4780   31.3070  -53.2210 O.2    16  LYS16      -0.2864
     46  CB        30.4870   31.3680  -54.6920 C.3    16  LYS16       0.0298
     47  CG        30.5090   32.5510  -53.7370 C.3    16  LYS16       0.0038
     48  CD        30.4740   32.0630  -52.3010 C.3    16  LYS16       0.0206
     49  CE        30.5080   33.2030  -51.3070 C.3    16  LYS16       0.1093
     50  NZ        30.4630   32.6820  -49.9130 N.3    16  LYS16      -0.1314
     51  N         24.9640   29.0540  -53.1170 N.3    19  PHE19      -0.1241
     52  CA        25.0540   28.8550  -51.6800 C.3    19  PHE19       0.1605
     53  C         24.5800   30.0550  -50.8630 C.2    19  PHE19       0.2264
     54  O         23.7450   29.9090  -49.9600 O.2    19  PHE19      -0.2867
     55  CB        26.4950   28.5210  -51.3010 C.3    19  PHE19       0.0534
     56  CG        26.7060   28.3610  -49.8340 C.ar   19  PHE19      -0.0203
     57  CD1       26.2110   27.2470  -49.1660 C.ar   19  PHE19      -0.0042
     58  CD2       27.3620   29.3440  -49.1080 C.ar   19  PHE19      -0.0042
     59  CE1       26.3640   27.1180  -47.7930 C.ar   19  PHE19      -0.0003
     60  CE2       27.5200   29.2230  -47.7300 C.ar   19  PHE19      -0.0003
     61  CZ        27.0170   28.1050  -47.0740 C.ar   19  PHE19      -0.0000
     62  N         21.3650   29.8460  -48.2910 N.3    23  LYS23      -0.1245
     63  CA        21.5110   30.0170  -46.8420 C.3    23  LYS23       0.1561
     64  C         20.4440   30.8400  -46.0970 C.2    23  LYS23       0.2260
     65  O         20.1060   30.5340  -44.9490 O.2    23  LYS23      -0.2867
     66  CB        22.8930   30.6030  -46.5360 C.3    23  LYS23       0.0271
     67  CG        23.2660   30.5700  -45.0630 C.3    23  LYS23       0.0035
     68  CD        24.7250   30.9530  -44.8500 C.3    23  LYS23       0.0206
     69  CE        25.1100   30.8380  -43.3820 C.3    23  LYS23       0.1093
     70  NZ        26.5590   31.1110  -43.1660 N.3    23  LYS23      -0.1314
     71  N         30.5130   22.5440  -34.0910 N.3   144  GLU144     -0.1231
     72  CA        31.1750   23.2880  -35.1610 C.3   144  GLU144      0.1699
     73  C         30.9220   22.6450  -36.5180 C.2   144  GLU144      0.2593
     74  O         31.2250   21.4690  -36.7260 O.2   144  GLU144     -0.2718
     75  CB        32.6830   23.3590  -34.8910 C.3   144  GLU144      0.0402
     76  CG        33.4980   23.9530  -36.0310 C.3   144  GLU144      0.1161
     77  CD        34.9870   24.0030  -35.7290 C.2   144  GLU144      0.3649
     78  OE1       35.5460   22.9740  -35.2860 O.co2 144  GLU144     -0.2457
     79  OE2       35.6030   25.0680  -35.9480 O.co2 144  GLU144     -0.2457
     80  N         30.3690   23.4270  -37.4400 N.am  145  SER145     -0.1938
     81  CA        30.0670   22.9330  -38.7780 C.3   145  SER145      0.2055
     82  C         31.3150   22.4660  -39.5070 C.2   145  SER145      0.2644
     83  O         32.4160   22.9510  -39.2450 O.2   145  SER145     -0.2714
     84  CB        29.3870   24.0240  -39.6130 C.3   145  SER145      0.2130
     85  OG        28.1180   24.3690  -39.0880 O.3   145  SER145     -0.2179
     86  N         31.1250   21.5120  -40.4150 N.am  146  SER146     -0.1935
     87  CA        32.2010   20.9720  -41.2360 C.3   146  SER146      0.2055
     88  C         31.6160   20.5950  -42.5890 C.2   146  SER146      0.2643
     89  O         30.4790   20.1330  -42.6710 O.2   146  SER146     -0.2714
     90  CB        32.8170   19.7280  -40.5950 C.3   146  SER146      0.2130
     91  OG        33.7260   19.1030  -41.4940 O.3   146  SER146     -0.2179
     92  N         32.3820   20.7920  -43.6540 N.am  147  SER147     -0.1949
     93  CA        31.8860   20.4390  -44.9740 C.3   147  SER147      0.1924
     94  C         31.7370   18.9220  -45.0790 C.2   147  SER147      0.2314
     95  O         31.0240   18.4220  -45.9450 O.2   147  SER147     -0.2863
     96  CB        32.8310   20.9620  -46.0640 C.3   147  SER147      0.2116
     97  OG        34.1110   20.3630  -45.9690 O.3   147  SER147     -0.2180
     98  N         19.9990   28.8730  -39.6660 N.3   208  ARG208     -0.1245
     99  CA        20.1570   29.1260  -41.0960 C.3   208  ARG208      0.1563
    100  C         20.1000   27.8240  -41.8980 C.2   208  ARG208      0.2260
    101  O         20.3460   26.7400  -41.3590 O.2   208  ARG208     -0.2867
    102  CB        21.4730   29.8660  -41.3610 C.3   208  ARG208      0.0307
    103  CG        21.5450   31.2180  -40.6620 C.3   208  ARG208      0.0489
    104  CD        22.7210   32.0510  -41.1500 C.3   208  ARG208      0.2205
    105  NE        22.7970   33.3410  -40.4650 N.pl3 208  ARG208     -0.0865
    106  CZ        23.2650   33.5130  -39.2330 C.cat 208  ARG208      0.5346
    107  NH1       23.7110   32.4770  -38.5350 N.pl3 208  ARG208      0.1354
    108  NH2       23.2830   34.7250  -38.6940 N.pl3 208  ARG208      0.1354
    109  N         22.0990   26.6190  -44.0680 N.3   210  SER210     -0.1202
    110  CA        23.3670   25.9570  -44.3280 C.3   210  SER210      0.2020
    111  C         23.7460   24.9410  -43.2600 C.2   210  SER210      0.2619
    112  O         24.7580   24.2640  -43.3920 O.2   210  SER210     -0.2717
    113  CB        24.4890   26.9820  -44.4870 C.3   210  SER210      0.2103
    114  OG        24.6330   27.7680  -43.3260 O.3   210  SER210     -0.2182
    115  N         22.9430   24.8440  -42.2020 N.am  211  THR211     -0.1952
    116  CA        23.2070   23.8560  -41.1600 C.3   211  THR211      0.1897
    117  C         21.9330   23.0760  -40.8660 C.2   211  THR211      0.2313
    118  O         20.8320   23.6280  -40.9240 O.2   211  THR211     -0.2863
    119  CB        23.7180   24.5000  -39.8590 C.3   211  THR211      0.1794
    120  OG1       23.8990   23.4750  -38.8720 O.3   211  THR211     -0.2208
    121  CG2       22.7360   25.5380  -39.3360 C.3   211  THR211      0.0378
@<TRIPOS>BOND
     1    41    39   ar
     2    39    38    1
     3    39    40   ar
     4    38    35    1
     5    35    34    1
     6    35    36    1
     7    34    28   am
     8    36    42   am
     9    36    37    2
    10    42    43    1
    11    28    27    1
    12    28    29    2
    13    27    26    1
    14    27    30    1
    15    46    43    1
    16    46    47    1
    17    33    31    1
    18    43    44    1
    19    44    45    2
    20    30    31    1
    21    47    48    1
    22    31    32    1
    23    51    52    1
    24    21    20    2
    25    20    19    1
    26    48    49    1
    27    52    55    1
    28    52    53    1
    29    49    50    1
    30    55    56    1
    31    13    12    2
    32    19    18    1
    33    19    22    1
    34    10    11    1
    35    53    54    2
    36    12    18   am
    37    12    11    1
    38    22    23    1
    39    11    14    1
    40    56    57   ar
    41    56    58   ar
    42    57    59   ar
    43    58    60   ar
    44    23    25   am
    45    23    24    2
    46    14    15    1
    47     4     3    2
    48     3     2    1
    49    16    15    1
    50    62    63    1
    51    15    17    1
    52    59    61   ar
    53    60    61   ar
    54     1     2    1
    55     2     5    1
    56    63    66    1
    57    63    64    1
    58    66    67    1
    59    64    65    2
    60     5     6    1
    61    96    97    1
    62    96    93    1
    63    95    94    2
    64     6     7    1
    65     7     8    1
    66    94    93    1
    67    67    68    1
    68    93    92    1
    69    68    69    1
    70   113   110    1
    71   113   114    1
    72     8     9    1
    73   110   109    1
    74   110   111    1
    75    92    88   am
    76   112   111    2
    77    69    70    1
    78   111   115   am
    79    89    88    2
    80    88    87    1
    81   115   116    1
    82   100   101    2
    83   100    99    1
    84    91    90    1
    85   102    99    1
    86   102   103    1
    87    87    90    1
    88    87    86    1
    89   116   117    1
    90   116   119    1
    91   104   103    1
    92   104   105    1
    93    99    98    1
    94   118   117    2
    95   105   106    2
    96    86    82   am
    97   119   121    1
    98   119   120    1
    99    84    85    1
   100    84    81    1
   101    82    83    2
   102    82    81    1
   103   106   108    1
   104   106   107    1
   105    81    80    1
   106    80    73   am
   107    74    73    2
   108    73    72    1
   109    76    77    1
   110    76    75    1
   111    79    77   ar
   112    77    78   ar
   113    72    75    1
   114    72    71    1
