@<TRIPOS>MOLECULE
tmp/3eveA00.pdb
 104 97 0 0 0
SMALL
GASTEIGER

@<TRIPOS>ATOM
      1  N         23.0970   17.7690  -47.5650 N.3     8  LYS8       -0.1245
      2  CA        24.4370   18.3050  -47.3480 C.3     8  LYS8        0.1561
      3  C         25.2590   18.2570  -48.6240 C.2     8  LYS8        0.2260
      4  O         25.9950   19.1910  -48.9340 O.2     8  LYS8       -0.2867
      5  CB        25.1550   17.5100  -46.2570 C.3     8  LYS8        0.0271
      6  CG        26.5210   18.0440  -45.8680 C.3     8  LYS8        0.0035
      7  CD        26.4210   19.4490  -45.2880 C.3     8  LYS8        0.0206
      8  CE        27.6550   19.7840  -44.4710 C.3     8  LYS8        0.1093
      9  NZ        27.6300   21.1800  -43.9660 N.3     8  LYS8       -0.1314
     10  N         23.9570   20.8840  -50.9300 N.3    11  LEU11      -0.1231
     11  CA        24.2970   22.1970  -50.3920 C.3    11  LEU11       0.1693
     12  C         25.7040   22.5960  -50.8440 C.2    11  LEU11       0.2592
     13  O         25.9380   23.7280  -51.2650 O.2    11  LEU11      -0.2718
     14  CB        24.2630   22.1790  -48.8590 C.3    11  LEU11       0.0284
     15  CG        24.7600   23.4610  -48.1770 C.3    11  LEU11       0.0019
     16  CD1       23.7600   24.5990  -48.3990 C.3    11  LEU11       0.0001
     17  CD2       24.9550   23.2040  -46.6810 C.3    11  LEU11       0.0001
     18  N         26.6380   21.6560  -50.7590 N.am   12  ASN12      -0.1974
     19  CA        28.0170   21.9370  -51.1340 C.3    12  ASN12       0.1688
     20  C         28.2250   22.2010  -52.6200 C.2    12  ASN12       0.2292
     21  O         29.2790   22.6960  -53.0140 O.2    12  ASN12      -0.2864
     22  CB        28.9400   20.8030  -50.6810 C.3    12  ASN12       0.1181
     23  CG        29.1990   20.8270  -49.1810 C.2    12  ASN12       0.2629
     24  OD1       29.3310   21.8970  -48.5790 O.2    12  ASN12      -0.2716
     25  ND2       29.2920   19.6480  -48.5760 N.am   12  ASN12      -0.0877
     26  N         26.0810   24.1450  -54.4800 N.3    14  LEU14      -0.1245
     27  CA        25.5100   25.4480  -54.8210 C.3    14  LEU14       0.1561
     28  C         26.5550   26.4990  -55.1860 C.2    14  LEU14       0.2260
     29  O         27.6360   26.5350  -54.6010 O.2    14  LEU14      -0.2867
     30  CB        24.6780   25.9760  -53.6510 C.3    14  LEU14       0.0270
     31  CG        23.4570   25.1560  -53.2290 C.3    14  LEU14       0.0019
     32  CD1       22.7840   25.8380  -52.0400 C.3    14  LEU14       0.0001
     33  CD2       22.4860   25.0340  -54.3950 C.3    14  LEU14       0.0001
     34  N         28.0200   30.4590  -55.5340 N.3    16  LYS16      -0.1245
     35  CA        28.0740   31.5530  -54.5710 C.3    16  LYS16       0.1561
     36  C         26.7690   32.3060  -54.3410 C.2    16  LYS16       0.2260
     37  O         26.3570   32.4920  -53.1980 O.2    16  LYS16      -0.2867
     38  CB        29.1740   32.5330  -54.9750 C.3    16  LYS16       0.0271
     39  CG        30.5620   31.9170  -54.9260 C.3    16  LYS16       0.0035
     40  CD        30.8860   31.4560  -53.5140 C.3    16  LYS16       0.0206
     41  CE        32.2310   30.7520  -53.4450 C.3    16  LYS16       0.1093
     42  NZ        32.5740   30.4000  -52.0380 N.3    16  LYS16      -0.1314
     43  N         24.0350   29.9470  -52.8600 N.3    19  PHE19      -0.1241
     44  CA        24.2940   29.6430  -51.4600 C.3    19  PHE19       0.1605
     45  C         23.8940   30.8300  -50.5910 C.2    19  PHE19       0.2264
     46  O         23.2510   30.6640  -49.5490 O.2    19  PHE19      -0.2867
     47  CB        25.7740   29.3350  -51.2150 C.3    19  PHE19       0.0534
     48  CG        26.1050   29.1340  -49.7650 C.ar   19  PHE19      -0.0203
     49  CD1       25.7410   27.9590  -49.1140 C.ar   19  PHE19      -0.0042
     50  CD2       26.7090   30.1480  -49.0300 C.ar   19  PHE19      -0.0042
     51  CE1       25.9680   27.8000  -47.7450 C.ar   19  PHE19      -0.0003
     52  CE2       26.9420   30.0000  -47.6600 C.ar   19  PHE19      -0.0003
     53  CZ        26.5690   28.8240  -47.0180 C.ar   19  PHE19      -0.0000
     54  N         30.1960   22.9090  -34.3190 N.3   144  GLU144     -0.1231
     55  CA        30.8180   23.6640  -35.4020 C.3   144  GLU144      0.1699
     56  C         30.5380   23.0090  -36.7500 C.2   144  GLU144      0.2593
     57  O         30.8660   21.8430  -36.9580 O.2   144  GLU144     -0.2718
     58  CB        32.3270   23.7450  -35.1780 C.3   144  GLU144      0.0402
     59  CG        33.0270   24.7710  -36.0510 C.3   144  GLU144      0.1161
     60  CD        32.5150   26.1830  -35.8030 C.2   144  GLU144      0.3649
     61  OE1       32.0830   26.4690  -34.6610 O.co2 144  GLU144     -0.2457
     62  OE2       32.5560   27.0130  -36.7410 O.co2 144  GLU144     -0.2457
     63  N         29.9360   23.7700  -37.6600 N.am  145  SER145     -0.1938
     64  CA        29.6150   23.2660  -38.9940 C.3   145  SER145      0.2055
     65  C         30.8530   22.7940  -39.7490 C.2   145  SER145      0.2644
     66  O         31.9660   23.2570  -39.5040 O.2   145  SER145     -0.2714
     67  CB        28.9260   24.3530  -39.8270 C.3   145  SER145      0.2130
     68  OG        27.7210   24.7880  -39.2270 O.3   145  SER145     -0.2179
     69  N         30.6480   21.8660  -40.6740 N.am  146  SER146     -0.1935
     70  CA        31.7290   21.3530  -41.4980 C.3   146  SER146      0.2055
     71  C         31.1540   20.9580  -42.8440 C.2   146  SER146      0.2643
     72  O         30.0530   20.4180  -42.9110 O.2   146  SER146     -0.2714
     73  CB        32.3830   20.1290  -40.8580 C.3   146  SER146      0.2130
     74  OG        33.3280   19.5660  -41.7520 O.3   146  SER146     -0.2179
     75  N         31.8880   21.2320  -43.9180 N.am  147  SER147     -0.1949
     76  CA        31.4100   20.8670  -45.2430 C.3   147  SER147      0.1924
     77  C         31.3100   19.3440  -45.3410 C.2   147  SER147      0.2314
     78  O         30.6380   18.8150  -46.2250 O.2   147  SER147     -0.2863
     79  CB        32.3580   21.4080  -46.3230 C.3   147  SER147      0.2116
     80  OG        33.6270   20.7930  -46.2340 O.3   147  SER147     -0.2180
     81  N         19.5660   29.1780  -39.8020 N.3   208  ARG208     -0.1245
     82  CA        19.7220   29.4100  -41.2340 C.3   208  ARG208      0.1563
     83  C         19.6250   28.0920  -41.9830 C.2   208  ARG208      0.2260
     84  O         19.8610   27.0260  -41.4120 O.2   208  ARG208     -0.2867
     85  CB        21.0650   30.0730  -41.5290 C.3   208  ARG208      0.0307
     86  CG        21.1900   31.4690  -40.9400 C.3   208  ARG208      0.0489
     87  CD        22.4300   32.1650  -41.4500 C.3   208  ARG208      0.2205
     88  NE        22.6450   33.4520  -40.7980 N.pl3 208  ARG208     -0.0865
     89  CZ        23.6570   34.2650  -41.0850 C.cat 208  ARG208      0.5346
     90  NH1       24.5400   33.9190  -42.0140 N.pl3 208  ARG208      0.1354
     91  NH2       23.7910   35.4190  -40.4410 N.pl3 208  ARG208      0.1354
     92  N         21.5580   26.9290  -44.1820 N.3   210  SER210     -0.1202
     93  CA        22.8630   26.3390  -44.4320 C.3   210  SER210      0.2020
     94  C         23.3130   25.3510  -43.3540 C.2   210  SER210      0.2619
     95  O         24.3980   24.7800  -43.4490 O.2   210  SER210     -0.2717
     96  CB        23.9060   27.4440  -44.5950 C.3   210  SER210      0.2103
     97  OG        23.8060   28.3800  -43.5420 O.3   210  SER210     -0.2182
     98  N         22.4940   25.1620  -42.3230 N.am  211  THR211     -0.1952
     99  CA        22.8110   24.2010  -41.2670 C.3   211  THR211      0.1897
    100  C         21.5510   23.3880  -40.9790 C.2   211  THR211      0.2313
    101  O         20.4510   23.9220  -41.0410 O.2   211  THR211     -0.2863
    102  CB        23.2750   24.8900  -39.9600 C.3   211  THR211      0.1794
    103  OG1       23.5000   23.8930  -38.9540 O.3   211  THR211     -0.2208
    104  CG2       22.2270   25.8730  -39.4600 C.3   211  THR211      0.0378
@<TRIPOS>BOND
     1    34    35    1
     2    28    27    1
     3    28    29    2
     4    38    39    1
     5    38    35    1
     6    39    40    1
     7    27    26    1
     8    27    30    1
     9    35    36    1
    10    33    31    1
    11    36    37    2
    12    30    31    1
    13    40    41    1
    14    41    42    1
    15    31    32    1
    16    21    20    2
    17    43    44    1
    18    20    19    1
    19    44    47    1
    20    44    45    1
    21    13    12    2
    22    47    48    1
    23    19    18    1
    24    19    22    1
    25    10    11    1
    26    12    18   am
    27    12    11    1
    28    22    23    1
    29    45    46    2
    30    11    14    1
    31    48    49   ar
    32    48    50   ar
    33    23    24    2
    34    23    25   am
    35    49    51   ar
    36    50    52   ar
    37     4     3    2
    38    14    15    1
    39     3     2    1
    40    16    15    1
    41    15    17    1
    42    51    53   ar
    43    52    53   ar
    44     1     2    1
    45     2     5    1
    46    79    80    1
    47    79    76    1
    48     5     6    1
    49    78    77    2
    50     6     7    1
    51    77    76    1
    52     7     8    1
    53    76    75    1
    54    96    93    1
    55    96    97    1
    56     8     9    1
    57    93    92    1
    58    93    94    1
    59    75    71   am
    60    95    94    2
    61    94    98   am
    62    72    71    2
    63    71    70    1
    64    98    99    1
    65    90    89    1
    66    83    84    2
    67    83    82    1
    68    74    73    1
    69    85    82    1
    70    85    86    1
    71    70    73    1
    72    70    69    1
    73    87    86    1
    74    87    88    1
    75    99   100    1
    76    99   102    1
    77    82    81    1
    78    89    88    2
    79    89    91    1
    80   101   100    2
    81    69    65   am
    82   102   104    1
    83   102   103    1
    84    67    68    1
    85    67    64    1
    86    65    66    2
    87    65    64    1
    88    64    63    1
    89    63    56   am
    90    57    56    2
    91    56    55    1
    92    62    60   ar
    93    59    60    1
    94    59    58    1
    95    60    61   ar
    96    55    58    1
    97    55    54    1
