@<TRIPOS>MOLECULE
tmp/3evfA00.pdb
 112 105 0 0 0
SMALL
GASTEIGER

@<TRIPOS>ATOM
      1  N         23.3860   17.3530  -47.4080 N.3     8  LYS8       -0.1245
      2  CA        24.7340   17.8490  -47.1480 C.3     8  LYS8        0.1561
      3  C         25.6070   17.7660  -48.3960 C.2     8  LYS8        0.2260
      4  O         26.3600   18.6890  -48.6960 O.2     8  LYS8       -0.2867
      5  CB        25.3720   17.0540  -46.0020 C.3     8  LYS8        0.0271
      6  CG        26.7590   17.5300  -45.5680 C.3     8  LYS8        0.0035
      7  CD        26.7610   18.9840  -45.0970 C.3     8  LYS8        0.0206
      8  CE        28.0190   19.3030  -44.2910 C.3     8  LYS8        0.1093
      9  NZ        28.0740   20.7100  -43.8120 N.3     8  LYS8       -0.1314
     10  N         24.5060   20.3730  -50.8160 N.3    11  LEU11      -0.1231
     11  CA        24.8670   21.6860  -50.3080 C.3    11  LEU11       0.1693
     12  C         26.2930   22.0110  -50.7610 C.2    11  LEU11       0.2592
     13  O         26.5650   23.1100  -51.2410 O.2    11  LEU11      -0.2718
     14  CB        24.8030   21.6950  -48.7770 C.3    11  LEU11       0.0284
     15  CG        25.2460   22.9850  -48.0790 C.3    11  LEU11       0.0019
     16  CD1       24.2760   24.1070  -48.4060 C.3    11  LEU11       0.0001
     17  CD2       25.3090   22.7680  -46.5670 C.3    11  LEU11       0.0001
     18  N         27.1970   21.0460  -50.6140 N.am   12  ASN12      -0.1974
     19  CA        28.5900   21.2510  -50.9980 C.3    12  ASN12       0.1688
     20  C         28.8260   21.3730  -52.5010 C.2    12  ASN12       0.2292
     21  O         29.8940   21.8140  -52.9240 O.2    12  ASN12      -0.2864
     22  CB        29.4710   20.1280  -50.4440 C.3    12  ASN12       0.1181
     23  CG        29.6110   20.1860  -48.9360 C.2    12  ASN12       0.2629
     24  OD1       29.7200   21.2670  -48.3580 O.2    12  ASN12      -0.2716
     25  ND2       29.6280   19.0220  -48.2930 N.am   12  ASN12      -0.0877
     26  N         26.9050   23.2250  -54.5130 N.3    14  LEU14      -0.1231
     27  CA        26.4510   24.5310  -54.9740 C.3    14  LEU14       0.1693
     28  C         27.6590   25.4270  -55.2350 C.2    14  LEU14       0.2592
     29  O         28.6570   25.3510  -54.5180 O.2    14  LEU14      -0.2718
     30  CB        25.5680   25.1880  -53.9130 C.3    14  LEU14       0.0284
     31  CG        24.3070   24.4480  -53.4540 C.3    14  LEU14       0.0019
     32  CD1       23.6240   25.2590  -52.3620 C.3    14  LEU14       0.0001
     33  CD2       23.3690   24.2410  -54.6300 C.3    14  LEU14       0.0001
     34  N         27.5880   26.2590  -56.2710 N.am   15  ASP15      -0.1960
     35  CA        28.6930   27.1690  -56.5320 C.3    15  ASP15       0.1840
     36  C         28.5410   28.2870  -55.5120 C.2    15  ASP15       0.2621
     37  O         27.6010   28.2800  -54.7160 O.2    15  ASP15      -0.2715
     38  CB        28.6460   27.7350  -57.9580 C.3    15  ASP15       0.1450
     39  CG        27.3620   28.4800  -58.2580 C.2    15  ASP15       0.3671
     40  OD1       26.9560   29.3400  -57.4520 O.co2  15  ASP15      -0.2456
     41  OD2       26.7630   28.2120  -59.3190 O.co2  15  ASP15      -0.2456
     42  N         29.4500   29.2510  -55.5350 N.am   16  LYS16      -0.1977
     43  CA        29.4060   30.3430  -54.5760 C.3    16  LYS16       0.1596
     44  C         28.1100   31.1520  -54.5800 C.2    16  LYS16       0.2287
     45  O         27.6120   31.5300  -53.5190 O.2    16  LYS16      -0.2864
     46  CB        30.5980   31.2770  -54.7940 C.3    16  LYS16       0.0298
     47  CG        30.7390   32.3490  -53.7260 C.3    16  LYS16       0.0038
     48  CD        30.9260   31.7380  -52.3420 C.3    16  LYS16       0.0206
     49  CE        31.0140   32.8170  -51.2730 C.3    16  LYS16       0.1093
     50  NZ        31.2780   32.2520  -49.9210 N.3    16  LYS16      -0.1314
     51  N         25.1040   28.9880  -53.2950 N.3    19  PHE19      -0.1241
     52  CA        25.1810   28.8770  -51.8480 C.3    19  PHE19       0.1605
     53  C         24.6250   30.1230  -51.1760 C.2    19  PHE19       0.2264
     54  O         23.8500   30.0300  -50.2250 O.2    19  PHE19      -0.2867
     55  CB        26.6290   28.6590  -51.4110 C.3    19  PHE19       0.0534
     56  CG        26.7940   28.5200  -49.9280 C.ar   19  PHE19      -0.0203
     57  CD1       26.2520   27.4310  -49.2540 C.ar   19  PHE19      -0.0042
     58  CD2       27.4810   29.4840  -49.2010 C.ar   19  PHE19      -0.0042
     59  CE1       26.3920   27.3040  -47.8770 C.ar   19  PHE19      -0.0003
     60  CE2       27.6260   29.3640  -47.8220 C.ar   19  PHE19      -0.0003
     61  CZ        27.0780   28.2690  -47.1610 C.ar   19  PHE19      -0.0000
     62  N         21.3600   30.2420  -48.7380 N.3    23  LYS23      -0.1245
     63  CA        21.4590   30.7430  -47.3740 C.3    23  LYS23       0.1561
     64  C         20.3750   31.7670  -47.0560 C.2    23  LYS23       0.2260
     65  O         19.9150   31.8640  -45.9200 O.2    23  LYS23      -0.2867
     66  CB        22.8250   31.3930  -47.1430 C.3    23  LYS23       0.0271
     67  CG        23.8880   30.4670  -46.5860 C.3    23  LYS23       0.0035
     68  CD        25.1030   31.2670  -46.1270 C.3    23  LYS23       0.0206
     69  CE        25.9550   30.4710  -45.1520 C.3    23  LYS23       0.1093
     70  NZ        27.1260   31.2490  -44.6500 N.3    23  LYS23      -0.1314
     71  N         30.4140   23.6130  -37.3000 N.3   145  SER145     -0.1202
     72  CA        30.1100   23.1520  -38.6490 C.3   145  SER145      0.2020
     73  C         31.3570   22.6840  -39.3870 C.2   145  SER145      0.2619
     74  O         32.4630   23.1640  -39.1310 O.2   145  SER145     -0.2717
     75  CB        29.4480   24.2680  -39.4640 C.3   145  SER145      0.2103
     76  OG        28.1650   24.6010  -38.9720 O.3   145  SER145     -0.2182
     77  N         31.1620   21.7380  -40.3000 N.am  146  SER146     -0.1937
     78  CA        32.2390   21.2040  -41.1260 C.3   146  SER146      0.2055
     79  C         31.6630   20.7910  -42.4730 C.2   146  SER146      0.2643
     80  O         30.5650   20.2380  -42.5420 O.2   146  SER146     -0.2714
     81  CB        32.8910   19.9900  -40.4640 C.3   146  SER146      0.2130
     82  OG        33.8190   19.3790  -41.3510 O.3   146  SER146     -0.2179
     83  N         32.4000   21.0580  -43.5460 N.am  147  SER147     -0.1949
     84  CA        31.9300   20.6940  -44.8760 C.3   147  SER147      0.1924
     85  C         31.8290   19.1770  -44.9910 C.2   147  SER147      0.2314
     86  O         31.1500   18.6520  -45.8740 O.2   147  SER147     -0.2863
     87  CB        32.8820   21.2370  -45.9430 C.3   147  SER147      0.2116
     88  OG        34.1610   20.6430  -45.8310 O.3   147  SER147     -0.2180
     89  N         20.2000   28.7970  -39.3830 N.3   208  ARG208     -0.1245
     90  CA        20.5310   29.0640  -40.7780 C.3   208  ARG208      0.1563
     91  C         20.2980   27.8460  -41.6660 C.2   208  ARG208      0.2260
     92  O         20.3970   26.7050  -41.2100 O.2   208  ARG208     -0.2867
     93  CB        21.9930   29.4980  -40.8890 C.3   208  ARG208      0.0307
     94  CG        22.3520   30.6610  -39.9830 C.3   208  ARG208      0.0489
     95  CD        23.8180   31.0380  -40.0940 C.3   208  ARG208      0.2205
     96  NE        24.1590   32.1310  -39.1850 N.pl3 208  ARG208     -0.0865
     97  CZ        23.5740   33.3250  -39.1970 C.cat 208  ARG208      0.5346
     98  NH1       22.6140   33.5870  -40.0740 N.pl3 208  ARG208      0.1354
     99  NH2       23.9440   34.2560  -38.3300 N.pl3 208  ARG208      0.1354
    100  N         22.1730   26.7590  -43.9720 N.3   210  SER210     -0.1202
    101  CA        23.4150   26.0430  -44.2390 C.3   210  SER210      0.2020
    102  C         23.8050   25.0160  -43.1860 C.2   210  SER210      0.2619
    103  O         24.8280   24.3480  -43.3260 O.2   210  SER210     -0.2717
    104  CB        24.5710   27.0270  -44.4540 C.3   210  SER210      0.2103
    105  OG        24.8310   27.7850  -43.2930 O.3   210  SER210     -0.2182
    106  N         22.9990   24.8960  -42.1330 N.am  211  THR211     -0.1952
    107  CA        23.2580   23.8990  -41.0980 C.3   211  THR211      0.1897
    108  C         21.9760   23.1160  -40.8270 C.2   211  THR211      0.2313
    109  O         20.8710   23.6550  -40.9100 O.2   211  THR211     -0.2863
    110  CB        23.7550   24.5270  -39.7810 C.3   211  THR211      0.1794
    111  OG1       23.9500   23.4850  -38.8150 O.3   211  THR211     -0.2208
    112  CG2       22.7550   25.5350  -39.2450 C.3   211  THR211      0.0378
@<TRIPOS>BOND
     1    41    39   ar
     2    39    38    1
     3    39    40   ar
     4    38    35    1
     5    35    34    1
     6    35    36    1
     7    34    28   am
     8    42    36   am
     9    42    43    1
    10    36    37    2
    11    28    27    1
    12    28    29    2
    13    27    26    1
    14    27    30    1
    15    46    43    1
    16    46    47    1
    17    33    31    1
    18    44    43    1
    19    44    45    2
    20    30    31    1
    21    47    48    1
    22    31    32    1
    23    51    52    1
    24    21    20    2
    25    20    19    1
    26    48    49    1
    27    52    55    1
    28    52    53    1
    29    55    56    1
    30    49    50    1
    31    13    12    2
    32    53    54    2
    33    19    18    1
    34    19    22    1
    35    10    11    1
    36    12    18   am
    37    12    11    1
    38    22    23    1
    39    11    14    1
    40    56    57   ar
    41    56    58   ar
    42    57    59   ar
    43    58    60   ar
    44    23    24    2
    45    23    25   am
    46    14    15    1
    47    62    63    1
    48     4     3    2
    49    16    15    1
    50     3     2    1
    51    15    17    1
    52    59    61   ar
    53    60    61   ar
    54     1     2    1
    55    63    66    1
    56    63    64    1
    57     2     5    1
    58    66    67    1
    59    64    65    2
    60    67    68    1
    61    68    69    1
    62     5     6    1
    63    87    88    1
    64    87    84    1
    65    86    85    2
    66     6     7    1
    67    69    70    1
    68     7     8    1
    69    85    84    1
    70    84    83    1
    71   104   101    1
    72   104   105    1
    73     8     9    1
    74   101   100    1
    75   101   102    1
    76    83    79   am
    77   103   102    2
    78   102   106   am
    79    80    79    2
    80    79    78    1
    81   106   107    1
    82    91    92    2
    83    91    90    1
    84    82    81    1
    85    78    81    1
    86    78    77    1
    87   107   108    1
    88   107   110    1
    89   109   108    2
    90    93    90    1
    91    93    94    1
    92    90    89    1
    93    77    73   am
    94    95    94    1
    95    95    96    1
    96    98    97    1
    97   110   112    1
    98   110   111    1
    99    75    76    1
   100    75    72    1
   101    73    74    2
   102    73    72    1
   103    97    96    2
   104    97    99    1
   105    72    71    1
