@<TRIPOS>MOLECULE
tmp/3evjA01.pdb
 97 92 0 0 0
SMALL
GASTEIGER

@<TRIPOS>ATOM
      1  N         62.5620   10.7250   24.7440 N.3    13  ASN13      -0.1226
      2  CA        62.8000    9.6170   25.6620 C.3    13  ASN13       0.1770
      3  C         62.4670    9.9600   27.0970 C.2    13  ASN13       0.2439
      4  O         62.3520   11.1300   27.4510 O.2    13  ASN13      -0.2733
      5  CB        64.2520    9.1460   25.5910 C.3    13  ASN13       0.1168
      6  CG        64.5080    8.2380   24.4090 C.2    13  ASN13       0.2627
      7  OD1       64.5180    8.6790   23.2560 O.2    13  ASN13      -0.2716
      8  ND2       64.7050    6.9540   24.6870 N.am   13  ASN13      -0.0877
      9  N         62.2960    8.9320   27.9470 N.am   14  PRO14      -0.2718
     10  CA        61.9730    9.1550   29.3580 C.3    14  PRO14       0.1535
     11  C         63.1960    9.4520   30.2210 C.2    14  PRO14       0.2598
     12  O         64.3320    9.3050   29.7820 O.2    14  PRO14      -0.2715
     13  CB        61.2910    7.8490   29.7550 C.3    14  PRO14       0.0310
     14  CG        62.0460    6.8430   28.9580 C.3    14  PRO14       0.0237
     15  CD        62.1310    7.5050   27.6000 C.3    14  PRO14       0.0939
     16  N         62.9440    9.8680   31.4550 N.am   15  MET15      -0.1978
     17  CA        64.0070   10.1740   32.3990 C.3    15  MET15       0.1605
     18  C         64.6830    8.8770   32.8050 C.2    15  MET15       0.2287
     19  O         65.9040    8.8010   32.8650 O.2    15  MET15      -0.2864
     20  CB        63.4320   10.8650   33.6410 C.3    15  MET15       0.0413
     21  CG        64.4740   11.2460   34.6890 C.3    15  MET15       0.0598
     22  SD        63.7260   11.8140   36.2320 S.3    15  MET15      -0.1393
     23  CE        63.3480   13.4650   35.7820 C.3    15  MET15       0.0692
     24  N         64.7960    4.4330   32.3410 N.3    17  ILE17      -0.1245
     25  CA        64.5210    3.3460   31.3960 C.3    17  ILE17       0.1561
     26  C         64.5120    2.0080   32.1230 C.2    17  ILE17       0.2260
     27  O         64.9870    1.9090   33.2600 O.2    17  ILE17      -0.2867
     28  CB        65.5640    3.2780   30.2410 C.3    17  ILE17       0.0252
     29  CG1       66.9870    3.3310   30.8130 C.3    17  ILE17       0.0019
     30  CG2       65.2910    4.3820   29.2290 C.3    17  ILE17       0.0019
     31  CD1       68.0940    3.3040   29.7640 C.3    17  ILE17       0.0001
     32  N         56.6400    7.3070   32.1470 N.3    75  LEU75      -0.1245
     33  CA        57.4690    8.2520   31.3930 C.3    75  LEU75       0.1561
     34  C         58.2550    9.1080   32.3770 C.2    75  LEU75       0.2260
     35  O         59.2870    9.6850   32.0390 O.2    75  LEU75      -0.2867
     36  CB        56.5820    9.1600   30.5360 C.3    75  LEU75       0.0270
     37  CG        57.2800   10.2690   29.7550 C.3    75  LEU75       0.0019
     38  CD1       58.3820    9.6770   28.9010 C.3    75  LEU75       0.0001
     39  CD2       56.2710   10.9940   28.8930 C.3    75  LEU75       0.0001
     40  N         57.6320   19.2780   34.5950 N.3   136  ASN136     -0.1240
     41  CA        58.5990   19.3530   33.4940 C.3   136  ASN136      0.1653
     42  C         57.9160   19.9010   32.2780 C.2   136  ASN136      0.2266
     43  O         56.8810   19.3710   31.8510 O.2   136  ASN136     -0.2867
     44  CB        59.1180   17.9960   33.0670 C.3   136  ASN136      0.1155
     45  CG        60.0570   17.4230   34.0390 C.2   136  ASN136      0.2627
     46  OD1       60.3920   18.0400   35.0320 O.2   136  ASN136     -0.2716
     47  ND2       60.5220   16.2300   33.7550 N.am  136  ASN136     -0.0877
     48  N         58.9740   19.7020   29.3090 N.3   138  THR138     -0.1203
     49  CA        59.1840   18.7930   28.1910 C.3   138  THR138      0.1994
     50  C         58.2380   17.5930   28.3450 C.2   138  THR138      0.2617
     51  O         57.7220   17.0510   27.3570 O.2   138  THR138     -0.2717
     52  CB        60.6510   18.3360   28.1490 C.3   138  THR138      0.1784
     53  OG1       61.3080   18.7400   29.3660 O.3   138  THR138     -0.2211
     54  CG2       61.3580   18.9480   26.9380 C.3   138  THR138      0.0376
     55  N         58.0160   17.1730   29.5870 N.am  139  TYR139     -0.1975
     56  CA        57.0950   16.0810   29.8250 C.3   139  TYR139      0.1639
     57  C         55.8120   16.5660   29.1750 C.2   139  TYR139      0.2290
     58  O         55.2170   15.8770   28.3490 O.2   139  TYR139     -0.2864
     59  CB        56.8540   15.8870   31.3170 C.3   139  TYR139      0.0560
     60  CG        55.7560   14.8960   31.6040 C.ar  139  TYR139     -0.0198
     61  CD1       55.9470   13.5360   31.3760 C.ar  139  TYR139     -0.0009
     62  CD2       54.5100   15.3190   32.0560 C.ar  139  TYR139     -0.0009
     63  CE1       54.9280   12.6210   31.5870 C.ar  139  TYR139      0.0417
     64  CE2       53.4840   14.4100   32.2670 C.ar  139  TYR139      0.0417
     65  CZ        53.7010   13.0600   32.0300 C.ar  139  TYR139      0.1957
     66  OH        52.6930   12.1410   32.2290 O.3   139  TYR139     -0.2866
     67  N         55.9020   16.4820   25.1890 N.3   142  ILE142     -0.1245
     68  CA        55.8030   15.1310   24.6410 C.3   142  ILE142      0.1561
     69  C         54.3910   14.6000   24.9200 C.2   142  ILE142      0.2260
     70  O         53.9270   13.6640   24.2630 O.2   142  ILE142     -0.2867
     71  CB        56.8310   14.1630   25.2850 C.3   142  ILE142      0.0252
     72  CG1       58.2220   14.7920   25.3040 C.3   142  ILE142      0.0019
     73  CG2       56.8970   12.8670   24.4840 C.3   142  ILE142      0.0019
     74  CD1       59.2790   13.8820   25.8910 C.3   142  ILE142      0.0001
     75  N         59.6370   11.4520   39.3660 N.3   329  PRO329     -0.2102
     76  CA        60.3630   12.7130   39.1860 C.3   329  PRO329      0.1504
     77  C         60.2450   13.2190   37.7540 C.2   329  PRO329      0.2576
     78  O         60.5720   14.3680   37.4690 O.2   329  PRO329     -0.2718
     79  CB        61.8060   12.3370   39.5220 C.3   329  PRO329      0.0282
     80  CG        61.6740   11.0880   40.3650 C.3   329  PRO329      0.0208
     81  CD        60.5690   10.3550   39.6760 C.3   329  PRO329      0.0893
     82  N         59.7760   12.3390   36.8700 N.am  330  GLY330     -0.1957
     83  CA        59.6420   12.6420   35.4550 C.3   330  GLY330      0.1869
     84  C         58.6020   13.6540   35.0410 C.2   330  GLY330      0.2309
     85  O         58.4880   13.9810   33.8620 O.2   330  GLY330     -0.2863
     86  N         57.4970   16.1260   37.8380 N.3   332  VAL332     -0.1231
     87  CA        57.8930   17.2270   38.7250 C.3   332  VAL332      0.1692
     88  C         59.1730   17.8040   38.0790 C.2   332  VAL332      0.2591
     89  O         59.9570   17.0390   37.5130 O.2   332  VAL332     -0.2718
     90  CB        58.1910   16.7130   40.1790 C.3   332  VAL332      0.0266
     91  CG1       56.9490   16.0280   40.7880 C.3   332  VAL332      0.0020
     92  CG2       59.3450   15.7350   40.1550 C.3   332  VAL332      0.0020
     93  N         59.3870   19.1300   38.1390 N.am  333  ALA333     -0.1980
     94  CA        60.5580   19.7900   37.5280 C.3   333  ALA333      0.1597
     95  C         61.8450   19.5760   38.3190 C.2   333  ALA333      0.2287
     96  O         61.8130   19.4930   39.5520 O.2   333  ALA333     -0.2864
     97  CB        60.2910   21.3000   37.3680 C.3   333  ALA333      0.0319
@<TRIPOS>BOND
     1     7     6    2
     2    70    69    2
     3     6     8   am
     4     6     5    1
     5    73    71    1
     6    68    69    1
     7    68    67    1
     8    68    71    1
     9     1     2    1
    10    71    72    1
    11    72    74    1
    12     5     2    1
    13     2     3    1
    14    54    52    1
    15     3     4    2
    16     3     9   am
    17    51    50    2
    18    15     9    1
    19    15    14    1
    20     9    10    1
    21    52    49    1
    22    52    53    1
    23    49    50    1
    24    49    48    1
    25    50    55   am
    26    58    57    2
    27    39    37    1
    28    38    37    1
    29    14    13    1
    30    57    56    1
    31    30    28    1
    32    10    13    1
    33    10    11    1
    34    55    56    1
    35    37    36    1
    36    31    29    1
    37    12    11    2
    38    56    59    1
    39    11    16   am
    40    28    29    1
    41    28    25    1
    42    36    33    1
    43    59    60    1
    44    61    63   ar
    45    61    60   ar
    46    33    32    1
    47    33    34    1
    48    25    26    1
    49    25    24    1
    50    16    17    1
    51    63    65   ar
    52    60    62   ar
    53    43    42    2
    54    65    66    1
    55    65    64   ar
    56    35    34    2
    57    62    64   ar
    58    26    27    2
    59    42    41    1
    60    17    18    1
    61    17    20    1
    62    18    19    2
    63    44    41    1
    64    44    45    1
    65    41    40    1
    66    20    21    1
    67    47    45   am
    68    85    84    2
    69    45    46    2
    70    21    22    1
    71    84    83    1
    72    83    82    1
    73    23    22    1
    74    82    77   am
    75    97    94    1
    76    78    77    2
    77    89    88    2
    78    94    93    1
    79    94    95    1
    80    77    76    1
    81    86    87    1
    82    88    93   am
    83    88    87    1
    84    95    96    2
    85    87    90    1
    86    76    75    1
    87    76    79    1
    88    75    81    1
    89    79    80    1
    90    81    80    1
    91    92    90    1
    92    90    91    1
