@<TRIPOS>MOLECULE
tmp/3evjA02.pdb
 180 174 0 0 0
SMALL
GASTEIGER

@<TRIPOS>ATOM
      1  N         50.5570   10.9850   13.1960 N.3     3  CYS3       -0.1235
      2  CA        50.1180    9.9710   12.2510 C.3     3  CYS3        0.1677
      3  C         51.2080    9.4470   11.3080 C.2     3  CYS3        0.2270
      4  O         51.2230    8.2580   10.9900 O.2     3  CYS3       -0.2867
      5  CB        48.9190   10.4840   11.4420 C.3     3  CYS3        0.0956
      6  SG        47.2470   10.2160   12.1640 S.3     3  CYS3       -0.0801
      7  N         58.0590   10.6350   12.6890 N.3     6  LYS6       -0.1231
      8  CA        59.0910    9.6350   12.9400 C.3     6  LYS6        0.1678
      9  C         59.8630   10.0890   14.1790 C.2     6  LYS6        0.2434
     10  O         60.1770   11.2670   14.3270 O.2     6  LYS6       -0.2733
     11  CB        60.0230    9.5070   11.7260 C.3     6  LYS6        0.0284
     12  CG        60.8210    8.2160   11.6770 C.3     6  LYS6        0.0035
     13  CD        60.6360    7.5260   10.3350 C.3     6  LYS6        0.0206
     14  CE        59.7180    6.3200   10.4640 C.3     6  LYS6        0.1093
     15  NZ        59.8780    5.4050    9.2970 N.3     6  LYS6       -0.1314
     16  N         60.1650    9.1580   15.0960 N.am    7  PRO7       -0.2718
     17  CA        60.8990    9.4630   16.3370 C.3     7  PRO7        0.1535
     18  C         62.1730   10.2780   16.1280 C.2     7  PRO7        0.2598
     19  O         62.4570   11.2140   16.8760 O.2     7  PRO7       -0.2715
     20  CB        61.1840    8.0820   16.9170 C.3     7  PRO7        0.0310
     21  CG        60.0000    7.2640   16.4340 C.3     7  PRO7        0.0237
     22  CD        59.8470    7.7190   15.0040 C.3     7  PRO7        0.0939
     23  N         62.9350    9.9000   15.1090 N.am    8  ARG8       -0.1978
     24  CA        64.1750   10.5740   14.7440 C.3     8  ARG8        0.1597
     25  C         63.9580   12.0890   14.6990 C.2     8  ARG8        0.2287
     26  O         64.8680   12.8720   14.9820 O.2     8  ARG8       -0.2864
     27  CB        64.6040   10.1130   13.3530 C.3     8  ARG8        0.0334
     28  CG        63.7330   10.7180   12.2470 C.3     8  ARG8        0.0492
     29  CD        63.6460    9.8470   10.9980 C.3     8  ARG8        0.2205
     30  NE        64.9510    9.5450   10.4170 N.pl3   8  ARG8       -0.0865
     31  CZ        65.1330    8.7770    9.3480 C.cat   8  ARG8        0.5346
     32  NH1       64.0950    8.2290    8.7320 N.pl3   8  ARG8        0.1354
     33  NH2       66.3560    8.5460    8.8990 N.pl3   8  ARG8        0.1354
     34  N         62.5620   10.7250   24.7440 N.3    13  ASN13      -0.1240
     35  CA        62.8000    9.6170   25.6620 C.3    13  ASN13       0.1653
     36  C         62.4670    9.9600   27.0970 C.2    13  ASN13       0.2266
     37  O         62.3520   11.1300   27.4510 O.2    13  ASN13      -0.2867
     38  CB        64.2520    9.1460   25.5910 C.3    13  ASN13       0.1155
     39  CG        64.5080    8.2380   24.4090 C.2    13  ASN13       0.2627
     40  OD1       64.5180    8.6790   23.2560 O.2    13  ASN13      -0.2716
     41  ND2       64.7050    6.9540   24.6870 N.am   13  ASN13      -0.0877
     42  N         53.0080  -11.3390    9.8160 N.3    23  ILE23      -0.1231
     43  CA        53.1210   -9.9010    9.6190 C.3    23  ILE23       0.1678
     44  C         52.1470   -9.4230    8.5440 C.2    23  ILE23       0.2434
     45  O         52.2430   -9.8350    7.3860 O.2    23  ILE23      -0.2733
     46  CB        54.5570   -9.5230    9.1990 C.3    23  ILE23       0.0265
     47  CG1       55.4910   -9.7240   10.4100 C.3    23  ILE23       0.0019
     48  CG2       54.6200   -8.1160    8.6570 C.3    23  ILE23       0.0020
     49  CD1       56.9550   -9.6510   10.0710 C.3    23  ILE23       0.0001
     50  N         51.1800   -8.5690    8.9240 N.am   24  PRO24      -0.2729
     51  CA        50.1710   -8.0130    8.0110 C.3    24  PRO24       0.1401
     52  C         50.7460   -6.9710    7.0560 C.2    24  PRO24       0.2269
     53  O         51.8050   -6.3960    7.3030 O.2    24  PRO24      -0.2865
     54  CB        49.1470   -7.3960    8.9570 C.3    24  PRO24       0.0296
     55  CG        49.2660   -8.2380   10.1780 C.3    24  PRO24       0.0237
     56  CD        50.7650   -8.3790   10.3220 C.3    24  PRO24       0.0939
     57  N         51.4490   -3.5500    4.8520 N.3    26  ALA26      -0.1231
     58  CA        51.7950   -2.1920    5.2840 C.3    26  ALA26       0.1694
     59  C         51.5090   -1.8790    6.7630 C.2    26  ALA26       0.2593
     60  O         50.6690   -1.0340    7.0730 O.2    26  ALA26      -0.2718
     61  CB        51.0770   -1.1810    4.3870 C.3    26  ALA26       0.0304
     62  N         52.2220   -2.5500    7.6660 N.am   27  THR27      -0.1939
     63  CA        52.0460   -2.3690    9.1110 C.3    27  THR27       0.2028
     64  C         53.4030   -2.1760    9.7840 C.2    27  THR27       0.2642
     65  O         54.3410   -2.9280    9.5260 O.2    27  THR27      -0.2714
     66  CB        51.3870   -3.6130    9.7570 C.3    27  THR27       0.1808
     67  OG1       50.1610   -3.9220    9.0860 O.3    27  THR27      -0.2208
     68  CG2       51.1140   -3.3700   11.2230 C.3    27  THR27       0.0379
     69  N         53.5080   -1.1860   10.6620 N.am   28  ASN28      -0.1957
     70  CA        54.7710   -0.9400   11.3460 C.3    28  ASN28       0.1819
     71  C         55.0810   -2.0510   12.3350 C.2    28  ASN28       0.2621
     72  O         54.3130   -2.2980   13.2680 O.2    28  ASN28      -0.2715
     73  CB        54.7370    0.3990   12.0800 C.3    28  ASN28       0.1195
     74  CG        56.0680    0.7370   12.7440 C.2    28  ASN28       0.2630
     75  OD1       56.4840    0.0840   13.7040 O.2    28  ASN28      -0.2716
     76  ND2       56.7430    1.7620   12.2310 N.am   28  ASN28      -0.0877
     77  N         56.2170   -2.7110   12.1250 N.am   29  ARG29      -0.1963
     78  CA        56.6550   -3.8040   12.9900 C.3    29  ARG29       0.1729
     79  C         56.3810   -3.5240   14.4730 C.2    29  ARG29       0.2616
     80  O         55.7460   -4.3270   15.1560 O.2    29  ARG29      -0.2715
     81  CB        58.1490   -4.0720   12.7770 C.3    29  ARG29       0.0348
     82  CG        58.5480   -5.5510   12.9120 C.3    29  ARG29       0.0492
     83  CD        60.0630   -5.8250   12.9760 C.3    29  ARG29       0.2205
     84  NE        60.8260   -4.5880   13.1520 N.pl3  29  ARG29      -0.0865
     85  CZ        61.3540   -4.1020   14.3020 C.cat  29  ARG29       0.5346
     86  NH1       61.2490   -4.7200   15.4900 N.pl3  29  ARG29       0.1354
     87  NH2       62.0280   -2.9430   14.2510 N.pl3  29  ARG29       0.1354
     88  N         56.8470   -2.3790   14.9620 N.am   30  ARG30      -0.1963
     89  CA        56.6520   -2.0100   16.3600 C.3    30  ARG30       0.1729
     90  C         55.1670   -1.9730   16.7460 C.2    30  ARG30       0.2616
     91  O         54.7170   -2.7480   17.5970 O.2    30  ARG30      -0.2715
     92  CB        57.2550   -0.6320   16.6380 C.3    30  ARG30       0.0348
     93  CG        58.6260   -0.3700   16.0300 C.3    30  ARG30       0.0492
     94  CD        59.7810   -0.7660   16.9400 C.3    30  ARG30       0.2205
     95  NE        61.0520   -0.2650   16.4190 N.pl3  30  ARG30      -0.0865
     96  CZ        62.2440   -0.7430   16.7610 C.cat  30  ARG30       0.5346
     97  NH1       62.3400   -1.7390   17.6290 N.pl3  30  ARG30       0.1354
     98  NH2       63.3430   -0.2370   16.2270 N.pl3  30  ARG30       0.1354
     99  N         54.4210   -1.0580   16.1250 N.am   31  VAL31      -0.1977
    100  CA        52.9950   -0.8770   16.4020 C.3    31  VAL31       0.1596
    101  C         52.2350   -2.1950   16.5070 C.2    31  VAL31       0.2287
    102  O         51.2060   -2.2960   17.1800 O.2    31  VAL31      -0.2864
    103  CB        52.3230   -0.0370   15.3080 C.3    31  VAL31       0.0276
    104  CG1       50.9080    0.2740   15.7090 C.3    31  VAL31       0.0022
    105  CG2       53.0920    1.2400   15.0760 C.3    31  VAL31       0.0022
    106  N         60.1750   -5.4390   22.4390 N.3    95  SER95      -0.1202
    107  CA        61.5110   -4.9530   22.1190 C.3    95  SER95       0.2020
    108  C         61.9450   -3.7790   22.9940 C.2    95  SER95       0.2619
    109  O         61.1150   -3.1130   23.6070 O.2    95  SER95      -0.2717
    110  CB        61.5800   -4.5470   20.6440 C.3    95  SER95       0.2103
    111  OG        60.8570   -3.3500   20.4130 O.3    95  SER95      -0.2182
    112  N         63.2550   -3.5350   23.0350 N.am   96  GLU96      -0.1965
    113  CA        63.8560   -2.4490   23.8180 C.3    96  GLU96       0.1733
    114  C         63.4690   -1.0590   23.3050 C.2    96  GLU96       0.2616
    115  O         63.1110   -0.1650   24.0770 O.2    96  GLU96      -0.2715
    116  CB        65.3810   -2.5730   23.7890 C.3    96  GLU96       0.0429
    117  CG        66.0160   -2.6730   25.1580 C.3    96  GLU96       0.1163
    118  CD        67.3980   -2.0330   25.2200 C.2    96  GLU96       0.3649
    119  OE1       67.4960   -0.8030   24.9910 O.co2  96  GLU96      -0.2457
    120  OE2       68.3820   -2.7550   25.5020 O.co2  96  GLU96      -0.2457
    121  N         63.5510   -0.8890   21.9920 N.am   97  LYS97      -0.1977
    122  CA        63.2320    0.3810   21.3370 C.3    97  LYS97       0.1596
    123  C         61.7640    0.7760   21.5690 C.2    97  LYS97       0.2287
    124  O         61.4590    1.8580   22.0890 O.2    97  LYS97      -0.2864
    125  CB        63.5270    0.2400   19.8360 C.3    97  LYS97       0.0298
    126  CG        64.0240    1.4890   19.1120 C.3    97  LYS97       0.0038
    127  CD        62.8860    2.3580   18.6360 C.3    97  LYS97       0.0206
    128  CE        63.2910    3.1330   17.3940 C.3    97  LYS97       0.1093
    129  NZ        63.5920    2.2290   16.2560 N.3    97  LYS97      -0.1314
    130  N         60.4230    4.2010   23.7970 N.3   101  GLN101     -0.1245
    131  CA        59.4810    5.1560   23.1930 C.3   101  GLN101      0.1566
    132  C         58.1020    4.4920   23.1520 C.2   101  GLN101      0.2260
    133  O         57.4270    4.5180   22.1250 O.2   101  GLN101     -0.2867
    134  CB        59.8900    5.5080   21.7490 C.3   101  GLN101      0.0367
    135  CG        61.3810    5.3950   21.4320 C.3   101  GLN101      0.0905
    136  CD        62.1760    6.6580   21.7550 C.2   101  GLN101      0.2608
    137  OE1       63.3740    6.5890   22.0510 O.2   101  GLN101     -0.2717
    138  NE2       61.5190    7.8160   21.6820 N.am  101  GLN101     -0.0878
    139  N         55.1380    6.8070   22.5400 N.3   104  PHE104     -0.1227
    140  CA        55.0740    7.2360   21.1560 C.3   104  PHE104      0.1736
    141  C         54.3350    6.2160   20.2920 C.2   104  PHE104      0.2595
    142  O         53.3210    6.5410   19.6620 O.2   104  PHE104     -0.2718
    143  CB        56.4900    7.4570   20.6090 C.3   104  PHE104      0.0547
    144  CG        56.5180    7.9130   19.1850 C.ar  104  PHE104     -0.0202
    145  CD1       56.0790    9.1800   18.8440 C.ar  104  PHE104     -0.0042
    146  CD2       56.9080    7.0480   18.1750 C.ar  104  PHE104     -0.0042
    147  CE1       56.0210    9.5740   17.5160 C.ar  104  PHE104     -0.0003
    148  CE2       56.8530    7.4360   16.8420 C.ar  104  PHE104     -0.0003
    149  CZ        56.4070    8.7000   16.5130 C.ar  104  PHE104     -0.0000
    150  N         54.8380    4.9850   20.2600 N.am  105  PHE105     -0.1976
    151  CA        54.2080    3.9480   19.4540 C.3   105  PHE105      0.1639
    152  C         52.7400    3.7870   19.8020 C.2   105  PHE105      0.2290
    153  O         51.9320    3.3930   18.9580 O.2   105  PHE105     -0.2864
    154  CB        54.9670    2.6290   19.6030 C.3   105  PHE105      0.0560
    155  CG        56.2820    2.6220   18.8780 C.ar  105  PHE105     -0.0200
    156  CD1       56.3200    2.5440   17.4870 C.ar  105  PHE105     -0.0042
    157  CD2       57.4790    2.7590   19.5750 C.ar  105  PHE105     -0.0042
    158  CE1       57.5320    2.6070   16.7990 C.ar  105  PHE105     -0.0003
    159  CE2       58.6980    2.8220   18.8980 C.ar  105  PHE105     -0.0003
    160  CZ        58.7260    2.7470   17.5080 C.ar  105  PHE105     -0.0000
    161  N         51.0180    6.2710   17.9270 N.3   108  LYS108     -0.1245
    162  CA        51.0450    5.7900   16.5590 C.3   108  LYS108      0.1561
    163  C         49.9350    4.7530   16.3670 C.2   108  LYS108      0.2260
    164  O         49.2020    4.7990   15.3780 O.2   108  LYS108     -0.2867
    165  CB        52.4150    5.1860   16.2340 C.3   108  LYS108      0.0271
    166  CG        52.7120    5.1300   14.7480 C.3   108  LYS108      0.0035
    167  CD        53.5010    6.3470   14.2660 C.3   108  LYS108      0.0206
    168  CE        53.8850    6.1820   12.7940 C.3   108  LYS108      0.1093
    169  NZ        55.0190    7.0610   12.3780 N.3   108  LYS108     -0.1314
    170  N         46.0700    5.1690   13.8310 N.3   112  ARG112     -0.1245
    171  CA        45.5460    4.1710   12.9070 C.3   112  ARG112      0.1563
    172  C         44.1750    3.6600   13.3390 C.2   112  ARG112      0.2260
    173  O         43.2070    3.7820   12.5930 O.2   112  ARG112     -0.2867
    174  CB        46.5290    3.0010   12.7740 C.3   112  ARG112      0.0307
    175  CG        46.0870    1.9210   11.8010 C.3   112  ARG112      0.0489
    176  CD        47.2720    1.0950   11.3320 C.3   112  ARG112      0.2205
    177  NE        46.8740   -0.0680   10.5370 N.pl3 112  ARG112     -0.0865
    178  CZ        47.7240   -0.8300    9.8510 C.cat 112  ARG112      0.5346
    179  NH1       49.0210   -0.5520    9.8580 N.pl3 112  ARG112      0.1354
    180  NH2       47.2790   -1.8710    9.1570 N.pl3 112  ARG112      0.1354
@<TRIPOS>BOND
     1    61    58    1
     2    57    58    1
     3    58    59    1
     4    59    60    2
     5    59    62   am
     6    52    53    2
     7    52    51    1
     8    45    44    2
     9    62    63    1
    10    51    50    1
    11    51    54    1
    12    44    50   am
    13    44    43    1
    14    48    46    1
    15    32    31    1
    16    33    31    1
    17    50    56    1
    18    54    55    1
    19    67    66    1
    20    63    66    1
    21    63    64    1
    22   180   178    1
    23    46    43    1
    24    46    47    1
    25    15    14    1
    26    31    30    2
    27    65    64    2
    28    43    42    1
    29    66    68    1
    30    64    69   am
    31   178   179    1
    32   178   177    2
    33    49    47    1
    34    55    56    1
    35    13    14    1
    36    13    12    1
    37    30    29    1
    38   177   176    1
    39    69    70    1
    40     4     3    2
    41    29    28    1
    42     3     2    1
    43   176   175    1
    44    70    73    1
    45    70    71    1
    46     5     6    1
    47     5     2    1
    48    12    11    1
    49    11     8    1
    50   175   174    1
    51    73    74    1
    52    77    71   am
    53    77    78    1
    54    76    74   am
    55    28    27    1
    56     2     1    1
    57    71    72    2
    58   169   168    1
    59   173   172    2
    60     7     8    1
    61    74    75    2
    62   174   171    1
    63    81    82    1
    64    81    78    1
    65   168   167    1
    66   171   172    1
    67   171   170    1
    68    82    83    1
    69     8     9    1
    70    83    84    1
    71    78    79    1
    72    84    85    2
    73    27    24    1
    74     9    10    2
    75     9    16   am
    76    87    85    1
    77   167   166    1
    78    85    86    1
    79    79    88   am
    80    79    80    2
    81    25    24    1
    82    25    26    2
    83    24    23    1
    84   166   165    1
    85    88    89    1
    86    22    16    1
    87    22    21    1
    88   105   103    1
    89    16    17    1
    90    23    18   am
    91   103   104    1
    92   103   100    1
    93   164   163    2
    94    93    92    1
    95    93    94    1
    96    99   100    1
    97    99    90   am
    98    18    17    1
    99    18    19    2
   100    98    96    1
   101   165   162    1
   102   129   128    1
   103    17    20    1
   104    89    92    1
   105    89    90    1
   106   163   162    1
   107   100   101    1
   108    95    96    2
   109    95    94    1
   110    21    20    1
   111   101   102    2
   112   149   148   ar
   113   149   147   ar
   114   162   161    1
   115    90    91    2
   116    96    97    1
   117   158   156   ar
   118   158   160   ar
   119   148   146   ar
   120   128   127    1
   121   156   155   ar
   122   160   159   ar
   123   147   145   ar
   124   146   144   ar
   125   127   126    1
   126   145   144   ar
   127   155   157   ar
   128   155   154    1
   129   159   157   ar
   130   153   152    2
   131   126   125    1
   132   144   143    1
   133   151   154    1
   134   151   152    1
   135   151   150    1
   136   142   141    2
   137   125   122    1
   138   150   141   am
   139   141   140    1
   140   111   110    1
   141   143   140    1
   142   110   107    1
   143   140   139    1
   144   122   123    1
   145   122   121    1
   146   135   134    1
   147   135   136    1
   148   123   124    2
   149   138   136   am
   150   134   131    1
   151   136   137    2
   152   121   114   am
   153   107   106    1
   154   107   108    1
   155   133   132    2
   156   108   112   am
   157   108   109    2
   158   112   113    1
   159   132   131    1
   160   131   130    1
   161    40    39    2
   162   114   113    1
   163   114   115    2
   164   116   113    1
   165   116   117    1
   166    39    41   am
   167    39    38    1
   168    34    35    1
   169   119   118   ar
   170   117   118    1
   171   118   120   ar
   172    38    35    1
   173    35    36    1
   174    36    37    2
