@<TRIPOS>MOLECULE
tmp/3evmA00.pdb
 140 131 0 0 0
SMALL
GASTEIGER

@<TRIPOS>ATOM
      1  N         52.8370   11.3750   20.2570 N.3     9  LYS9       -0.1245
      2  CA        53.2560    9.9920   20.4550 C.3     9  LYS9        0.1561
      3  C         52.8590    9.0960   19.2790 C.2     9  LYS9        0.2260
      4  O         52.0580    9.5030   18.4140 O.2     9  LYS9       -0.2867
      5  CB        52.7330    9.4590   21.7980 C.3     9  LYS9        0.0271
      6  CG        53.2590   10.2160   23.0040 C.3     9  LYS9        0.0035
      7  CD        52.8190    9.5360   24.2980 C.3     9  LYS9        0.0206
      8  CE        53.2620   10.3190   25.5290 C.3     9  LYS9        0.1093
      9  NZ        52.7970    9.6770   26.7870 N.3     9  LYS9       -0.1314
     10  N         61.9130    9.7500   30.2030 N.3    50  TYR50      -0.1241
     11  CA        61.1290    9.1270   31.2700 C.3    50  TYR50       0.1605
     12  C         61.9600    8.5920   32.4500 C.2    50  TYR50       0.2264
     13  O         61.5380    7.6570   33.1590 O.2    50  TYR50      -0.2867
     14  CB        60.2660    8.0060   30.6780 C.3    50  TYR50       0.0534
     15  CG        59.0750    8.5150   29.8770 C.ar   50  TYR50      -0.0201
     16  CD1       58.8660    8.1250   28.5450 C.ar   50  TYR50      -0.0009
     17  CD2       58.1680    9.4060   30.4510 C.ar   50  TYR50      -0.0009
     18  CE1       57.7450    8.5990   27.8200 C.ar   50  TYR50       0.0417
     19  CE2       57.0600    9.8860   29.7460 C.ar   50  TYR50       0.0417
     20  CZ        56.8610    9.4890   28.4340 C.ar   50  TYR50       0.1957
     21  OH        55.7570    9.9840   27.7720 O.3    50  TYR50      -0.2866
     22  N         60.6410    7.5000   35.7900 N.3    53  HIS53      -0.1241
     23  CA        59.7480    6.3420   35.8000 C.3    53  HIS53       0.1621
     24  C         60.5140    5.0310   35.7060 C.2    53  HIS53       0.2264
     25  O         59.9200    3.9550   35.5330 O.2    53  HIS53      -0.2867
     26  CB        58.7740    6.4270   34.6230 C.3    53  HIS53       0.0745
     27  CG        57.9190    7.6580   34.6320 C.ar   53  HIS53       0.0817
     28  ND1       56.6270    7.6560   35.1070 N.ar   53  HIS53      -0.2268
     29  CD2       58.1690    8.9260   34.2250 C.ar   53  HIS53       0.1154
     30  CE1       56.1160    8.8710   34.9970 C.ar   53  HIS53       0.1986
     31  NE2       57.0250    9.6580   34.4550 N.ar   53  HIS53      -0.2212
     32  N         55.6420   -0.2630   34.5570 N.3    58  TYR58      -0.1241
     33  CA        55.3330    0.0240   33.1500 C.3    58  TYR58       0.1605
     34  C         56.5080    0.5640   32.3440 C.2    58  TYR58       0.2264
     35  O         56.3790    0.8020   31.1430 O.2    58  TYR58      -0.2867
     36  CB        54.1580    1.0130   33.0200 C.3    58  TYR58       0.0534
     37  CG        54.3320    2.3120   33.7740 C.ar   58  TYR58      -0.0201
     38  CD1       55.1180    3.3390   33.2560 C.ar   58  TYR58      -0.0009
     39  CD2       53.7120    2.5120   35.0070 C.ar   58  TYR58      -0.0009
     40  CE1       55.2820    4.5270   33.9330 C.ar   58  TYR58       0.0417
     41  CE2       53.8740    3.7080   35.6990 C.ar   58  TYR58       0.0417
     42  CZ        54.6510    4.7110   35.1570 C.ar   58  TYR58       0.1957
     43  OH        54.8190    5.9010   35.8360 O.3    58  TYR58      -0.2866
     44  N         56.3460    1.1510   28.3480 N.3    62  LEU62      -0.1245
     45  CA        56.3040    2.5510   27.9250 C.3    62  LEU62       0.1561
     46  C         57.4150    2.8890   26.9140 C.2    62  LEU62       0.2260
     47  O         57.1570    3.5140   25.8910 O.2    62  LEU62      -0.2867
     48  CB        56.3760    3.4520   29.1440 C.3    62  LEU62       0.0270
     49  CG        56.6220    4.9380   28.9080 C.3    62  LEU62       0.0019
     50  CD1       55.4250    5.5630   28.2010 C.3    62  LEU62       0.0001
     51  CD2       56.9460    5.6190   30.2310 C.3    62  LEU62       0.0001
     52  N         49.1720   21.5820   29.7570 N.3    86  ARG86      -0.1245
     53  CA        48.8350   20.4460   30.6180 C.3    86  ARG86       0.1563
     54  C         47.3080   20.3340   30.7870 C.2    86  ARG86       0.2260
     55  O         46.7620   19.2380   30.7470 O.2    86  ARG86      -0.2867
     56  CB        49.5270   20.5730   31.9900 C.3    86  ARG86       0.0307
     57  CG        51.0400   20.2970   31.9640 C.3    86  ARG86       0.0489
     58  CD        51.3070   18.7950   31.9050 C.3    86  ARG86       0.2205
     59  NE        51.1510   18.1780   33.2230 N.pl3  86  ARG86      -0.0865
     60  CZ        51.1930   16.8590   33.4310 C.cat  86  ARG86       0.5346
     61  NH1       51.3450   16.0270   32.4070 N.pl3  86  ARG86       0.1354
     62  NH2       51.0780   16.3700   34.6560 N.pl3  86  ARG86       0.1354
     63  N         45.8970   19.0340   27.5690 N.3    89  GLN89      -0.1245
     64  CA        46.2380   17.6090   27.4790 C.3    89  GLN89       0.1566
     65  C         45.2090   16.6970   28.1580 C.2    89  GLN89       0.2260
     66  O         44.7470   15.7230   27.5660 O.2    89  GLN89      -0.2867
     67  CB        47.6350   17.3750   28.0780 C.3    89  GLN89       0.0367
     68  CG        48.1160   15.9130   28.0840 C.3    89  GLN89       0.0905
     69  CD        49.4400   15.7350   28.8530 C.2    89  GLN89       0.2608
     70  OE1       50.3400   14.9870   28.4250 O.2    89  GLN89      -0.2717
     71  NE2       49.5460   16.3980   29.9950 N.am   89  GLN89      -0.0878
     72  N         46.1030   11.6500   32.7760 N.3    92  THR92      -0.1218
     73  CA        46.6740   10.4160   32.2280 C.3    92  THR92       0.1862
     74  C         45.6450    9.2950   32.1710 C.2    92  THR92       0.2287
     75  O         45.5910    8.5030   31.2280 O.2    92  THR92      -0.2866
     76  CB        47.8560    9.9010   33.1120 C.3    92  THR92       0.1770
     77  OG1       48.5400   11.0050   33.6840 O.3    92  THR92      -0.2211
     78  CG2       48.8380    9.0780   32.2870 C.3    92  THR92       0.0375
     79  N         43.2150   14.1820   25.6600 N.3   103  ARG103     -0.1245
     80  CA        42.9900   12.8490   26.1930 C.3   103  ARG103      0.1563
     81  C         41.5040   12.5430   26.4800 C.2   103  ARG103      0.2260
     82  O         41.0370   11.4340   26.1970 O.2   103  ARG103     -0.2867
     83  CB        43.8470   12.6420   27.4310 C.3   103  ARG103      0.0307
     84  CG        45.3420   12.5270   27.0680 C.3   103  ARG103      0.0489
     85  CD        46.1910   12.6370   28.3060 C.3   103  ARG103      0.2205
     86  NE        47.5810   12.2730   28.0430 N.pl3 103  ARG103     -0.0865
     87  CZ        48.5050   12.2690   29.0000 C.cat 103  ARG103      0.5346
     88  NH1       48.1690   12.6700   30.2230 N.pl3 103  ARG103      0.1354
     89  NH2       49.7480   11.8810   28.7380 N.pl3 103  ARG103      0.1354
     90  N         45.5800    4.3740   29.4100 N.3   110  ILE110     -0.1231
     91  CA        46.4710    5.1270   30.2910 C.3   110  ILE110      0.1692
     92  C         47.8830    5.2080   29.6890 C.2   110  ILE110      0.2592
     93  O         48.6530    6.1220   30.0090 O.2   110  ILE110     -0.2718
     94  CB        46.5110    4.4990   31.6970 C.3   110  ILE110      0.0266
     95  CG1       47.1520    5.4650   32.7050 C.3   110  ILE110      0.0019
     96  CG2       47.2470    3.1470   31.6430 C.3   110  ILE110      0.0020
     97  CD1       46.6590    5.2730   34.1450 C.3   110  ILE110      0.0001
     98  N         48.2120    4.2670   28.7970 N.am  111  GLY111     -0.1957
     99  CA        49.5370    4.2250   28.1740 C.3   111  GLY111      0.1869
    100  C         49.5770    4.8980   26.8030 C.2   111  GLY111      0.2309
    101  O         50.3780    5.8140   26.5610 O.2   111  GLY111     -0.2863
    102  N         48.2720    7.3860   25.1510 N.3   113  ASN113     -0.1240
    103  CA        47.5440    8.5720   25.5640 C.3   113  ASN113      0.1653
    104  C         47.9390    9.7940   24.7210 C.2   113  ASN113      0.2266
    105  O         47.8350   10.9200   25.1830 O.2   113  ASN113     -0.2867
    106  CB        47.7610    8.8270   27.0610 C.3   113  ASN113      0.1155
    107  CG        49.2320    9.0120   27.3990 C.2   113  ASN113      0.2627
    108  OD1       49.9790    9.5800   26.6050 O.2   113  ASN113     -0.2716
    109  ND2       49.6590    8.5000   28.5550 N.am  113  ASN113     -0.0877
    110  N         49.8580   12.1150   23.7510 N.3   115  ILE115     -0.1231
    111  CA        50.5960   13.3540   23.8910 C.3   115  ILE115      0.1692
    112  C         51.3170   13.4420   25.2210 C.2   115  ILE115      0.2592
    113  O         50.7570   13.1060   26.2720 O.2   115  ILE115     -0.2718
    114  CB        49.6600   14.6330   23.7040 C.3   115  ILE115      0.0266
    115  CG1       50.4260   15.9260   24.0260 C.3   115  ILE115      0.0019
    116  CG2       48.4120   14.5650   24.6030 C.3   115  ILE115      0.0020
    117  CD1       49.6850   17.2220   23.5950 C.3   115  ILE115      0.0001
    118  N         52.5670   13.8880   25.1630 N.am  116  HIS116     -0.1962
    119  CA        53.2930   14.3060   26.3500 C.3   116  HIS116      0.1787
    120  C         53.3660   15.8270   26.4060 C.2   116  HIS116      0.2620
    121  O         53.5150   16.4970   25.3620 O.2   116  HIS116     -0.2715
    122  CB        54.7350   13.7770   26.3320 C.3   116  HIS116      0.0785
    123  CG        55.5920   14.3750   27.4050 C.ar  116  HIS116      0.0821
    124  ND1       55.6810   13.8350   28.6720 N.ar  116  HIS116     -0.2267
    125  CD2       56.3550   15.4960   27.4210 C.ar  116  HIS116      0.1154
    126  CE1       56.4730   14.5860   29.4190 C.ar  116  HIS116      0.1986
    127  NE2       56.9030   15.5980   28.6860 N.ar  116  HIS116     -0.2212
    128  N         53.3130   16.3650   27.6220 N.am  117  ALA117     -0.1977
    129  CA        53.5870   17.7770   27.8620 C.3   117  ALA117      0.1597
    130  C         54.3490   17.9170   29.1820 C.2   117  ALA117      0.2287
    131  O         54.0160   17.2260   30.1520 O.2   117  ALA117     -0.2864
    132  CB        52.2990   18.5640   27.9120 C.3   117  ALA117      0.0319
    133  N         55.4370   19.0290   32.8040 N.3   119  ASP119     -0.1239
    134  CA        54.5730   19.3220   33.9430 C.3   119  ASP119      0.1674
    135  C         55.0340   20.4700   34.8500 C.2   119  ASP119      0.2266
    136  O         54.3080   20.8770   35.7630 O.2   119  ASP119     -0.2867
    137  CB        54.3340   18.0530   34.7750 C.3   119  ASP119      0.1410
    138  CG        55.5930   17.5500   35.4760 C.2   119  ASP119      0.3668
    139  OD1       56.6710   18.1690   35.3480 O.co2 119  ASP119     -0.2456
    140  OD2       55.4960   16.5140   36.1590 O.co2 119  ASP119     -0.2456
@<TRIPOS>BOND
     1     4     3    2
     2     3     2    1
     3     1     2    1
     4     2     5    1
     5     5     6    1
     6     6     7    1
     7   117   115    1
     8   114   111    1
     9   114   115    1
    10   114   116    1
    11   110   111    1
    12   111   112    1
    13     7     8    1
    14   104   105    2
    15   104   103    1
    16   102   103    1
    17   118   112   am
    18   118   119    1
    19   112   113    2
    20   121   120    2
    21     8     9    1
    22   103   106    1
    23    79    80    1
    24    47    46    2
    25    80    81    1
    26    80    83    1
    27    82    81    2
    28   122   119    1
    29   122   123    1
    30   119   120    1
    31   120   128   am
    32   101   100    2
    33   108   107    2
    34   100    99    1
    35    46    45    1
    36   106   107    1
    37    84    83    1
    38    84    85    1
    39   107   109   am
    40   123   125   ar
    41   123   124   ar
    42   125   127   ar
    43    64    63    1
    44    64    67    1
    45    64    65    1
    46    66    65    2
    47   128   129    1
    48    21    20    1
    49    18    20   ar
    50    18    16   ar
    51   129   132    1
    52   129   130    1
    53    45    44    1
    54    45    48    1
    55    86    85    1
    56    86    87    2
    57    67    68    1
    58    68    69    1
    59    99    98    1
    60    50    49    1
    61    70    69    2
    62    20    19   ar
    63    16    15   ar
    64   124   126   ar
    65   127   126   ar
    66    89    87    1
    67    98    92   am
    68    69    71   am
    69    49    48    1
    70    49    51    1
    71    87    88    1
    72   130   131    2
    73    90    91    1
    74    92    93    2
    75    92    91    1
    76    19    17   ar
    77    52    53    1
    78    15    17   ar
    79    15    14    1
    80    10    11    1
    81    91    94    1
    82    53    54    1
    83    53    56    1
    84    14    11    1
    85    55    54    2
    86    35    34    2
    87    75    74    2
    88    11    12    1
    89    96    94    1
    90    94    95    1
    91    58    57    1
    92    58    59    1
    93    57    56    1
    94    74    73    1
    95    73    72    1
    96    73    76    1
    97    78    76    1
    98    34    33    1
    99    61    60    1
   100    12    13    2
   101    95    97    1
   102   133   134    1
   103    36    33    1
   104    36    37    1
   105    76    77    1
   106    33    32    1
   107    59    60    2
   108    38    37   ar
   109    38    40   ar
   110    60    62    1
   111    37    39   ar
   112    40    42   ar
   113   134   137    1
   114   134   135    1
   115    29    31   ar
   116    29    27   ar
   117    31    30   ar
   118    26    27    1
   119    26    23    1
   120    27    28   ar
   121   137   138    1
   122   135   136    2
   123    30    28   ar
   124    39    41   ar
   125    42    41   ar
   126    42    43    1
   127   139   138   ar
   128   138   140   ar
   129    25    24    2
   130    24    23    1
   131    22    23    1
