@<TRIPOS>MOLECULE
tmp/3ew2C00.pdb
 151 144 0 0 0
SMALL
GASTEIGER

@<TRIPOS>ATOM
      1  N         17.1200   59.0430   38.2550 N.3    17  ASN17      -0.1240
      2  CA        17.4570   58.0010   37.2830 C.3    17  ASN17       0.1653
      3  C         17.9760   58.5620   35.9400 C.2    17  ASN17       0.2266
      4  O         18.0450   59.7720   35.7630 O.2    17  ASN17      -0.2867
      5  CB        16.3090   56.9780   37.0960 C.3    17  ASN17       0.1155
      6  CG        15.0700   57.5820   36.4550 C.2    17  ASN17       0.2627
      7  OD1       15.1300   58.6250   35.7960 O.2    17  ASN17      -0.2716
      8  ND2       13.9270   56.9270   36.6600 N.am   17  ASN17      -0.0877
      9  N         16.7260   58.8710   33.0220 N.3    19  SER19      -0.1217
     10  CA        15.7220   59.5810   32.2100 C.3    19  SER19       0.1889
     11  C         15.4120   60.9660   32.7580 C.2    19  SER19       0.2288
     12  O         14.4920   61.6570   32.2850 O.2    19  SER19      -0.2866
     13  CB        14.4450   58.7640   32.1280 C.3    19  SER19       0.2089
     14  OG        14.7410   57.4160   31.7160 O.3    19  SER19      -0.2183
     15  N         14.3140   61.3970   35.8000 N.3    21  SER21      -0.1217
     16  CA        13.1790   61.3200   36.7210 C.3    21  SER21       0.1889
     17  C         13.7240   61.4480   38.1270 C.2    21  SER21       0.2288
     18  O         14.8810   61.1170   38.3960 O.2    21  SER21      -0.2866
     19  CB        12.4300   60.0090   36.5570 C.3    21  SER21       0.2089
     20  OG        11.5070   60.1170   35.4910 O.3    21  SER21      -0.2183
     21  N          7.3800   60.8460   43.6260 N.3    37  TYR37      -0.1241
     22  CA         8.0960   60.5390   42.3830 C.3    37  TYR37       0.1605
     23  C          7.7860   61.6430   41.4110 C.2    37  TYR37       0.2264
     24  O          6.6030   61.8960   41.1530 O.2    37  TYR37      -0.2867
     25  CB         7.6450   59.1900   41.8130 C.3    37  TYR37       0.0534
     26  CG         8.6390   58.5860   40.8510 C.ar   37  TYR37      -0.0201
     27  CD1        9.6700   57.7200   41.3060 C.ar   37  TYR37      -0.0009
     28  CD2        8.5510   58.8580   39.4750 C.ar   37  TYR37      -0.0009
     29  CE1       10.5900   57.1740   40.4110 C.ar   37  TYR37       0.0417
     30  CE2        9.4630   58.3260   38.5920 C.ar   37  TYR37       0.0417
     31  CZ        10.4840   57.4970   39.0480 C.ar   37  TYR37       0.1957
     32  OH        11.3540   56.9760   38.1080 O.3    37  TYR37      -0.2866
     33  N          8.2440   62.2280   37.5840 N.3    39  ASN39      -0.1240
     34  CA         8.5860   61.6320   36.2990 C.3    39  ASN39       0.1653
     35  C          9.0420   62.6630   35.2650 C.2    39  ASN39       0.2266
     36  O          8.4190   63.7170   35.1060 O.2    39  ASN39      -0.2867
     37  CB         7.4100   60.7700   35.7790 C.3    39  ASN39       0.1155
     38  CG         7.5790   60.3240   34.3310 C.2    39  ASN39       0.2627
     39  OD1        8.6660   59.8870   33.8980 O.2    39  ASN39      -0.2716
     40  ND2        6.4790   60.4240   33.5590 N.am   39  ASN39      -0.0877
     41  N         10.5540   61.2240   32.0900 N.3    41  ALA41      -0.1245
     42  CA        10.9130   60.3810   30.9640 C.3    41  ALA41       0.1562
     43  C         10.3320   60.9040   29.6810 C.2    41  ALA41       0.2260
     44  O          9.1080   61.0850   29.5480 O.2    41  ALA41      -0.2867
     45  CB        10.4990   58.9390   31.1940 C.3    41  ALA41       0.0290
     46  N          6.6990   60.4330   27.8400 N.3    44  THR44      -0.1203
     47  CA         5.7370   59.7610   28.7380 C.3    44  THR44       0.1994
     48  C          4.6910   60.7410   29.2270 C.2    44  THR44       0.2618
     49  O          4.8830   61.9570   29.1410 O.2    44  THR44      -0.2717
     50  CB         6.4470   59.0560   29.9160 C.3    44  THR44       0.1784
     51  OG1        7.2350   60.0060   30.6460 O.3    44  THR44      -0.2211
     52  CG2        7.4060   57.9170   29.3690 C.3    44  THR44       0.0376
     53  N          3.5630   60.2310   29.7110 N.am   45  GLY45      -0.1942
     54  CA         2.5870   61.0990   30.3820 C.3    45  GLY45       0.2014
     55  C          2.9270   61.3440   31.8570 C.2    45  GLY45       0.2639
     56  O          3.9120   60.8090   32.4100 O.2    45  GLY45      -0.2714
     57  N          2.1180   62.1720   32.5090 N.am   46  CYS46      -0.1967
     58  CA         2.2920   62.4170   33.9790 C.3    46  CYS46       0.1712
     59  C          3.7350   62.8280   34.3410 C.2    46  CYS46       0.2296
     60  O          4.3690   62.2270   35.2220 O.2    46  CYS46      -0.2864
     61  CB         1.8230   61.1920   34.7860 C.3    46  CYS46       0.0983
     62  SG         0.0730   60.8890   34.5430 S.3    46  CYS46      -0.0798
     63  N         -0.3190   56.4200   38.8810 N.3    68  TRP68      -0.1241
     64  CA        -0.1090   57.6670   38.1270 C.3    68  TRP68       0.1605
     65  C         -1.4190   58.4330   37.9950 C.2    68  TRP68       0.2264
     66  O         -1.9630   58.5540   36.9120 O.2    68  TRP68      -0.2867
     67  CB         0.5150   57.4000   36.7350 C.3    68  TRP68       0.0550
     68  CG         1.8820   56.7370   36.7610 C.ar   68  TRP68       0.0003
     69  CD1        2.1540   55.4510   36.4730 C.ar   68  TRP68       0.0946
     70  CD2        3.1450   57.3450   37.1170 C.ar   68  TRP68       0.0152
     71  NE1        3.5100   55.2070   36.6270 N.ar   68  TRP68      -0.2442
     72  CE2        4.1300   56.3530   37.0210 C.ar   68  TRP68       0.0810
     73  CE3        3.5190   58.6240   37.5280 C.ar   68  TRP68       0.0012
     74  CZ2        5.4850   56.5880   37.3300 C.ar   68  TRP68       0.0191
     75  CZ3        4.8600   58.8710   37.8160 C.ar   68  TRP68       0.0001
     76  CH2        5.8260   57.8530   37.7100 C.ar   68  TRP68       0.0015
     77  N         -2.7500   59.3160   34.1360 N.3    75  CYS75      -0.1235
     78  CA        -2.2970   58.5900   32.9500 C.3    75  CYS75       0.1677
     79  C         -2.8820   57.1910   32.9940 C.2    75  CYS75       0.2270
     80  O         -2.6720   56.3900   32.0820 O.2    75  CYS75      -0.2867
     81  CB        -0.7660   58.5140   32.8600 C.3    75  CYS75       0.0956
     82  SG         0.0380   60.1200   32.6230 S.3    75  CYS75      -0.0801
     83  N         -2.4780   54.3840   34.8330 N.3    77  SER77      -0.1217
     84  CA        -1.5060   53.3290   34.8280 C.3    77  SER77       0.1889
     85  C         -0.8550   53.2580   36.2060 C.2    77  SER77       0.2288
     86  O         -1.1040   54.0970   37.0630 O.2    77  SER77      -0.2866
     87  CB        -0.4630   53.5970   33.7420 C.3    77  SER77       0.2089
     88  OG        -0.0760   54.9480   33.7750 O.3    77  SER77      -0.2183
     89  N          3.0880   51.6700   38.1460 N.3    79  THR79      -0.1218
     90  CA         4.4590   51.2290   37.9340 C.3    79  THR79       0.1862
     91  C          5.0650   50.7530   39.2610 C.2    79  THR79       0.2287
     92  O          4.9690   51.4520   40.3130 O.2    79  THR79      -0.2866
     93  CB         5.3310   52.3820   37.3760 C.3    79  THR79       0.1770
     94  OG1        4.8400   52.7830   36.1020 O.3    79  THR79      -0.2211
     95  CG2        6.7760   51.9760   37.2210 C.3    79  THR79       0.0375
     96  N          8.8110   49.2960   40.8130 N.3    81  TRP81      -0.1241
     97  CA        10.2150   49.0560   40.6530 C.3    81  TRP81       0.1605
     98  C         10.6560   48.0420   41.7030 C.2    81  TRP81       0.2264
     99  O         10.1650   48.0650   42.8300 O.2    81  TRP81      -0.2867
    100  CB        11.0100   50.3350   40.9100 C.3    81  TRP81       0.0550
    101  CG        10.8570   51.4730   39.9420 C.ar   81  TRP81       0.0003
    102  CD1       11.7950   51.9090   39.0430 C.ar   81  TRP81       0.0946
    103  CD2        9.7310   52.3690   39.8100 C.ar   81  TRP81       0.0152
    104  NE1       11.3240   52.9990   38.3540 N.ar   81  TRP81      -0.2442
    105  CE2       10.0640   53.3050   38.7980 C.ar   81  TRP81       0.0810
    106  CE3        8.4780   52.4610   40.4340 C.ar   81  TRP81       0.0012
    107  CZ2        9.1990   54.3180   38.4040 C.ar   81  TRP81       0.0191
    108  CZ3        7.6070   53.4740   40.0450 C.ar   81  TRP81       0.0001
    109  CH2        7.9730   54.3940   39.0430 C.ar   81  TRP81       0.0015
    110  N         11.4220   47.5110   36.1780 N.3    98  TRP98      -0.1241
    111  CA        10.0920   48.0290   36.4340 C.3    98  TRP98       0.1605
    112  C          9.0530   47.4830   35.4840 C.2    98  TRP98       0.2264
    113  O          9.3490   47.1500   34.3410 O.2    98  TRP98      -0.2867
    114  CB        10.0770   49.5930   36.4170 C.3    98  TRP98       0.0550
    115  CG        10.7300   50.2850   35.2110 C.ar   98  TRP98       0.0003
    116  CD1       12.0180   50.7890   35.1390 C.ar   98  TRP98       0.0946
    117  CD2       10.1290   50.5480   33.9260 C.ar   98  TRP98       0.0152
    118  NE1       12.2350   51.3390   33.8890 N.ar   98  TRP98      -0.2442
    119  CE2       11.1060   51.1950   33.1270 C.ar   98  TRP98       0.0810
    120  CE3        8.8650   50.2760   33.3620 C.ar   98  TRP98       0.0012
    121  CZ2       10.8540   51.5870   31.8050 C.ar   98  TRP98       0.0191
    122  CZ3        8.6110   50.6780   32.0600 C.ar   98  TRP98       0.0001
    123  CH2        9.6050   51.3230   31.2890 C.ar   98  TRP98       0.0015
    124  N          5.2810   48.6040   33.9610 N.3   100  LEU100     -0.1245
    125  CA         4.2990   49.6630   33.7970 C.3   100  LEU100      0.1561
    126  C          3.0440   49.0630   33.1920 C.2   100  LEU100      0.2260
    127  O          3.0120   48.6880   32.0190 O.2   100  LEU100     -0.2867
    128  CB         4.8460   50.8350   32.9330 C.3   100  LEU100      0.0270
    129  CG         3.9370   51.9250   32.2990 C.3   100  LEU100      0.0019
    130  CD1        3.1440   52.7320   33.2990 C.3   100  LEU100      0.0001
    131  CD2        4.7430   52.8980   31.4610 C.3   100  LEU100      0.0001
    132  N         -0.5470   49.5600   31.8550 N.3   102  TYR102     -0.1241
    133  CA        -1.2780   50.7020   31.2670 C.3   102  TYR102      0.1605
    134  C         -2.4130   50.2760   30.3360 C.2   102  TYR102      0.2264
    135  O         -2.4620   49.1360   29.8850 O.2   102  TYR102     -0.2867
    136  CB        -0.3140   51.6450   30.5270 C.3   102  TYR102      0.0534
    137  CG         0.2830   51.0610   29.2660 C.ar  102  TYR102     -0.0201
    138  CD1        1.3030   50.1040   29.3250 C.ar  102  TYR102     -0.0009
    139  CD2       -0.1710   51.4640   28.0080 C.ar  102  TYR102     -0.0009
    140  CE1        1.8600   49.5600   28.1660 C.ar  102  TYR102      0.0417
    141  CE2        0.3810   50.9140   26.8240 C.ar  102  TYR102      0.0417
    142  CZ         1.3980   49.9660   26.9210 C.ar  102  TYR102      0.1957
    143  OH         1.9350   49.4230   25.7680 O.3   102  TYR102     -0.2866
    144  N         15.3280   51.0620   35.5770 N.3   115  ASP115     -0.1239
    145  CA        15.8470   52.3520   36.0350 C.3   115  ASP115      0.1674
    146  C         17.0440   52.1620   36.9510 C.2   115  ASP115      0.2266
    147  O         17.1330   51.2040   37.6950 O.2   115  ASP115     -0.2867
    148  CB        14.7930   53.2430   36.7040 C.3   115  ASP115      0.1410
    149  CG        13.7650   53.7810   35.7350 C.2   115  ASP115      0.3668
    150  OD1       14.0630   54.0120   34.5540 O.co2 115  ASP115     -0.2456
    151  OD2       12.6150   53.9730   36.1610 O.co2 115  ASP115     -0.2456
@<TRIPOS>BOND
     1   143   142    1
     2   141   142   ar
     3   141   139   ar
     4   142   140   ar
     5    46    47    1
     6   139   137   ar
     7   140   138   ar
     8    47    48    1
     9    47    50    1
    10    49    48    2
    11    48    53   am
    12   137   138   ar
    13   137   136    1
    14    52    50    1
    15    44    43    2
    16    43    42    1
    17    53    54    1
    18   135   134    2
    19    50    51    1
    20   134   133    1
    21    54    55    1
    22   136   133    1
    23    42    45    1
    24    42    41    1
    25   133   132    1
    26   123   121   ar
    27   123   122   ar
    28   131   129    1
    29    14    13    1
    30   121   119   ar
    31    55    56    2
    32    55    57   am
    33   127   126    2
    34   122   120   ar
    35    80    79    2
    36    13    10    1
    37    10    11    1
    38    10     9    1
    39    12    11    2
    40   129   128    1
    41   129   130    1
    42    57    58    1
    43    82    81    1
    44    82    62    1
    45    81    78    1
    46   128   125    1
    47    78    79    1
    48    78    77    1
    49   119   118   ar
    50   119   117   ar
    51   126   125    1
    52   120   117   ar
    53    40    38   am
    54    87    88    1
    55    87    84    1
    56   125   124    1
    57   118   116   ar
    58    39    38    2
    59   117   115   ar
    60    58    59    1
    61    58    61    1
    62    38    37    1
    63   113   112    2
    64    59    60    2
    65    62    61    1
    66   150   149   ar
    67    84    83    1
    68    84    85    1
    69    36    35    2
    70   116   115   ar
    71   115   114    1
    72    35    34    1
    73   112   111    1
    74    20    19    1
    75   144   145    1
    76   149   151   ar
    77   149   148    1
    78     4     3    2
    79    37    34    1
    80     7     6    2
    81    15    16    1
    82     3     2    1
    83   145   148    1
    84   145   146    1
    85    94    93    1
    86   110   111    1
    87    85    86    2
    88    34    33    1
    89   114   111    1
    90     6     8   am
    91     6     5    1
    92    69    71   ar
    93    69    68   ar
    94    19    16    1
    95    71    72   ar
    96    16    17    1
    97    67    68    1
    98    67    64    1
    99    68    70   ar
   100    66    65    2
   101   146   147    2
   102    72    70   ar
   103    72    74   ar
   104     5     2    1
   105    70    73   ar
   106    95    93    1
   107     2     1    1
   108    74    76   ar
   109    93    90    1
   110    73    75   ar
   111    76    75   ar
   112    90    89    1
   113    90    91    1
   114    65    64    1
   115    32    31    1
   116    17    18    2
   117    64    63    1
   118   104   105   ar
   119   104   102   ar
   120   107   105   ar
   121   107   109   ar
   122    30    31   ar
   123    30    28   ar
   124   105   103   ar
   125   109   108   ar
   126   102   101   ar
   127    31    29   ar
   128    91    92    2
   129    28    26   ar
   130   103   101   ar
   131   103   106   ar
   132   101   100    1
   133   108   106   ar
   134    29    27   ar
   135    97    96    1
   136    97   100    1
   137    97    98    1
   138    26    27   ar
   139    26    25    1
   140    24    23    2
   141    23    22    1
   142    98    99    2
   143    25    22    1
   144    22    21    1
