@<TRIPOS>MOLECULE
tmp/3ew5C00.pdb
 116 110 0 0 0
SMALL
GASTEIGER

@<TRIPOS>ATOM
      1  N         73.0430   14.6860   -0.2090 N.3    34  ALA34      -0.1231
      2  CA        72.0700   13.6790   -0.5660 C.3    34  ALA34       0.1694
      3  C         71.7170   12.9190    0.6860 C.2    34  ALA34       0.2592
      4  O         72.3570   11.9230    1.0120 O.2    34  ALA34      -0.2718
      5  CB        72.6500   12.7530   -1.5650 C.3    34  ALA34       0.0304
      6  N         70.6980   13.3770    1.3920 N.am   35  ALA35      -0.1966
      7  CA        70.4040   12.8250    2.7090 C.3    35  ALA35       0.1728
      8  C         69.3330   11.7560    2.6850 C.2    35  ALA35       0.2616
      9  O         68.6920   11.5240    1.6490 O.2    35  ALA35      -0.2715
     10  CB        69.9770   13.9250    3.6520 C.3    35  ALA35       0.0334
     11  N         69.1550   11.1140    3.8430 N.am   36  ASN36      -0.1972
     12  CA        67.9620   10.3310    4.1480 C.3    36  ASN36       0.1688
     13  C         67.0960   11.1240    5.1150 C.2    36  ASN36       0.2292
     14  O         67.5400   12.1200    5.6870 O.2    36  ASN36      -0.2864
     15  CB        68.3290    8.9920    4.7610 C.3    36  ASN36       0.1181
     16  CG        69.1900    9.1400    5.9660 C.2    36  ASN36       0.2629
     17  OD1       68.8250    9.8160    6.9130 O.2    36  ASN36      -0.2716
     18  ND2       70.3420    8.5110    5.9470 N.am   36  ASN36      -0.0877
     19  N         70.7370   10.7790    8.9130 N.3    40  ARG40      -0.1245
     20  CA        71.8680    9.9780    9.3640 C.3    40  ARG40       0.1563
     21  C         72.9260    9.9120    8.2900 C.2    40  ARG40       0.2260
     22  O         72.8130    9.1310    7.3580 O.2    40  ARG40      -0.2867
     23  CB        71.4160    8.5670    9.6460 C.3    40  ARG40       0.0307
     24  CG        70.4950    8.4730   10.8000 C.3    40  ARG40       0.0489
     25  CD        71.2140    8.9510   11.9890 C.3    40  ARG40       0.2205
     26  NE        70.5430    8.5790   13.2190 N.pl3  40  ARG40      -0.0865
     27  CZ        71.1840    8.4240   14.3700 C.cat  40  ARG40       0.5346
     28  NH1       70.5150    8.0940   15.4630 N.pl3  40  ARG40       0.1354
     29  NH2       72.5020    8.5910   14.4190 N.pl3  40  ARG40       0.1354
     30  N         75.3560    8.5690    7.2800 N.3    42  VAL42      -0.1231
     31  CA        75.9760    7.3640    7.6570 C.3    42  VAL42       0.1692
     32  C         76.9630    6.8180    6.6460 C.2    42  VAL42       0.2593
     33  O         77.8410    6.0810    7.0100 O.2    42  VAL42      -0.2718
     34  CB        74.8640    6.3760    7.9070 C.3    42  VAL42       0.0266
     35  CG1       74.9890    5.1850    7.0080 C.3    42  VAL42       0.0020
     36  CG2       74.8080    6.0310    9.3830 C.3    42  VAL42       0.0020
     37  N         76.8340    7.1740    5.3790 N.am   43  GLY43      -0.1942
     38  CA        77.7240    6.6170    4.3590 C.3    43  GLY43       0.2014
     39  C         77.6640    7.3890    3.0610 C.2    43  GLY43       0.2639
     40  O         77.0630    8.4540    2.9910 O.2    43  GLY43      -0.2714
     41  N         78.3040    6.8620    2.0330 N.am   44  GLY44      -0.1954
     42  CA        78.3120    7.5040    0.7270 C.3    44  GLY44       0.1869
     43  C         78.7480    8.9450    0.7480 C.2    44  GLY44       0.2309
     44  O         79.5530    9.3470    1.5670 O.2    44  GLY44      -0.2863
     45  N         77.1060   11.4250    1.7050 N.3    46  ALA46      -0.1245
     46  CA        76.6830   12.1270    2.9020 C.3    46  ALA46       0.1562
     47  C         77.7750   12.0310    3.9410 C.2    46  ALA46       0.2260
     48  O         78.0890   13.0290    4.5870 O.2    46  ALA46      -0.2867
     49  CB        75.4140   11.5780    3.4320 C.3    46  ALA46       0.0290
     50  N         65.8800   12.5560   -1.3570 N.3    93  GLY93      -0.1225
     51  CA        65.2850   11.9760   -2.5470 C.3    93  GLY93       0.1811
     52  C         64.4540   10.7630   -2.1940 C.2    93  GLY93       0.2280
     53  O         64.4270   10.3190   -1.0410 O.2    93  GLY93      -0.2866
     54  N         63.4770    6.6690   -2.7090 N.3    95  ARG95      -0.1245
     55  CA        64.2260    5.4280   -2.7540 C.3    95  ARG95       0.1563
     56  C         63.6550    4.6000   -3.9080 C.2    95  ARG95       0.2260
     57  O         62.4630    4.6940   -4.2020 O.2    95  ARG95      -0.2867
     58  CB        64.0330    4.7080   -1.4270 C.3    95  ARG95       0.0307
     59  CG        64.6570    3.3580   -1.3350 C.3    95  ARG95       0.0489
     60  CD        64.4240    2.7500    0.0280 C.3    95  ARG95       0.2205
     61  NE        65.6850    2.2670    0.5690 N.pl3  95  ARG95      -0.0865
     62  CZ        66.1390    2.5930    1.7640 C.cat  95  ARG95       0.5346
     63  NH1       65.4010    3.3710    2.5350 N.pl3  95  ARG95       0.1354
     64  NH2       67.3030    2.1320    2.1910 N.pl3  95  ARG95       0.1354
     65  N         74.4270   13.9960   -7.6370 N.3   123  LEU123     -0.1231
     66  CA        73.1500   13.4900   -8.1260 C.3   123  LEU123      0.1693
     67  C         72.3500   12.9270   -6.9560 C.2   123  LEU123      0.2592
     68  O         72.9050   12.3390   -6.0310 O.2   123  LEU123     -0.2718
     69  CB        73.3500   12.4190   -9.1910 C.3   123  LEU123      0.0284
     70  CG        73.8720   12.9360  -10.5310 C.3   123  LEU123      0.0019
     71  CD1       74.0780   11.7930  -11.5090 C.3   123  LEU123      0.0001
     72  CD2       72.9160   13.9420  -11.0920 C.3   123  LEU123      0.0001
     73  N         71.0400   13.1050   -6.9930 N.am  124  ILE124     -0.1966
     74  CA        70.2160   12.6890   -5.8780 C.3   124  ILE124      0.1727
     75  C         69.7080   11.2520   -5.9660 C.2   124  ILE124      0.2617
     76  O         69.3830   10.7370   -7.0300 O.2   124  ILE124     -0.2715
     77  CB        69.0660   13.6560   -5.6880 C.3   124  ILE124      0.0290
     78  CG1       69.6370   15.0060   -5.3290 C.3   124  ILE124      0.0022
     79  CG2       68.1750   13.2210   -4.5720 C.3   124  ILE124      0.0023
     80  CD1       70.7090   14.9170   -4.2910 C.3   124  ILE124      0.0001
     81  N         69.6250   10.6130   -4.8090 N.am  125  SER125     -0.1936
     82  CA        69.1550    9.2260   -4.7020 C.3   125  SER125      0.2055
     83  C         69.8010    8.2580   -5.6860 C.2   125  SER125      0.2643
     84  O         69.1860    7.3110   -6.1500 O.2   125  SER125     -0.2714
     85  CB        67.6100    9.0930   -4.6410 C.3   125  SER125      0.2130
     86  OG        66.9270   10.0200   -5.4480 O.3   125  SER125     -0.2179
     87  N         71.0780    8.4620   -5.9370 N.am  126  VAL126     -0.1963
     88  CA        71.7920    7.5910   -6.8310 C.3   126  VAL126      0.1727
     89  C         72.7870    6.6830   -6.1130 C.2   126  VAL126      0.2617
     90  O         73.5460    5.9540   -6.7380 O.2   126  VAL126     -0.2715
     91  CB        72.5340    8.4170   -7.8610 C.3   126  VAL126      0.0290
     92  CG1       73.8280    7.7340   -8.2480 C.3   126  VAL126      0.0023
     93  CG2       71.6410    8.6650   -9.0490 C.3   126  VAL126      0.0023
     94  N         72.8020    6.7250   -4.7970 N.am  127  GLY127     -0.1940
     95  CA        73.7260    5.8890   -4.0750 C.3   127  GLY127      0.2014
     96  C         72.9880    4.6930   -3.5310 C.2   127  GLY127      0.2639
     97  O         72.6990    3.7380   -4.2460 O.2   127  GLY127     -0.2714
     98  N         72.6530    4.7580   -2.2570 N.am  128  ILE128     -0.1963
     99  CA        72.0830    3.6210   -1.5630 C.3   128  ILE128      0.1727
    100  C         70.6260    3.4620   -1.9770 C.2   128  ILE128      0.2616
    101  O         70.1190    2.3560   -2.1090 O.2   128  ILE128     -0.2715
    102  CB        72.2630    3.7640   -0.0170 C.3   128  ILE128      0.0290
    103  CG1       73.7570    3.6410    0.3900 C.3   128  ILE128      0.0022
    104  CG2       71.4810    2.7190    0.6930 C.3   128  ILE128      0.0023
    105  CD1       74.7020    4.9610    0.2060 C.3   128  ILE128      0.0001
    106  N         69.9610    4.5800   -2.2170 N.am  129  PHE129     -0.1974
    107  CA        68.5720    4.5530   -2.6500 C.3   129  PHE129      0.1639
    108  C         68.4150    3.8370   -3.9990 C.2   129  PHE129      0.2290
    109  O         67.3440    3.3320   -4.3240 O.2   129  PHE129     -0.2864
    110  CB        67.9840    5.9720   -2.7160 C.3   129  PHE129      0.0560
    111  CG        67.7160    6.6000   -1.3620 C.ar  129  PHE129     -0.0200
    112  CD1       67.6060    5.8290   -0.2260 C.ar  129  PHE129     -0.0042
    113  CD2       67.5330    7.9680   -1.2420 C.ar  129  PHE129     -0.0042
    114  CE1       67.3420    6.4070    0.9870 C.ar  129  PHE129     -0.0003
    115  CE2       67.2710    8.5380   -0.0250 C.ar  129  PHE129     -0.0003
    116  CZ        67.1710    7.7530    1.0840 C.ar  129  PHE129     -0.0000
@<TRIPOS>BOND
     1    71    70    1
     2    72    70    1
     3    70    69    1
     4    69    66    1
     5    93    91    1
     6    92    91    1
     7    66    65    1
     8    66    67    1
     9    91    88    1
    10    76    75    2
    11    73    67   am
    12    73    74    1
    13    67    68    2
    14    88    89    1
    15    88    87    1
    16    90    89    2
    17    84    83    2
    18    89    94   am
    19    75    74    1
    20    75    81   am
    21    87    83   am
    22    74    77    1
    23    77    78    1
    24    77    79    1
    25    83    82    1
    26    86    85    1
    27    78    80    1
    28    81    82    1
    29    94    95    1
    30    82    85    1
    31   109   108    2
    32    97    96    2
    33    57    56    2
    34    95    96    1
    35   108   107    1
    36    56    55    1
    37    96    98   am
    38    55    54    1
    39    55    58    1
    40   110   107    1
    41   110   111    1
    42   107   106    1
    43    51    52    1
    44    51    50    1
    45    98    99    1
    46   106   100   am
    47    52    53    2
    48   101   100    2
    49   100    99    1
    50     5     2    1
    51    99   102    1
    52    58    59    1
    53   111   113   ar
    54   111   112   ar
    55    59    60    1
    56   113   115   ar
    57     2     1    1
    58     2     3    1
    59   112   114   ar
    60   115   116   ar
    61   102   103    1
    62   102   104    1
    63    60    61    1
    64   105   103    1
    65    61    62    2
    66     3     4    2
    67     3     6   am
    68    42    43    1
    69    42    41    1
    70    43    44    2
    71   114   116   ar
    72     6     7    1
    73     9     8    2
    74    45    46    1
    75    62    64    1
    76    62    63    1
    77    41    39   am
    78     8     7    1
    79     8    11   am
    80     7    10    1
    81    46    49    1
    82    46    47    1
    83    40    39    2
    84    39    38    1
    85    11    12    1
    86    47    48    2
    87    12    15    1
    88    12    13    1
    89    38    37    1
    90    15    16    1
    91    13    14    2
    92    37    32   am
    93    18    16   am
    94    16    17    2
    95    32    33    2
    96    32    31    1
    97    35    34    1
    98    30    31    1
    99    22    21    2
   100    31    34    1
   101    34    36    1
   102    21    20    1
   103    19    20    1
   104    20    23    1
   105    23    24    1
   106    24    25    1
   107    25    26    1
   108    26    27    2
   109    27    29    1
   110    27    28    1
