@<TRIPOS>MOLECULE
tmp/3ewdA00.pdb
 167 156 0 0 0
SMALL
GASTEIGER

@<TRIPOS>ATOM
      1  N        -15.3900   -2.9190  -20.8690 N.3    38  HIS38      -0.1241
      2  CA       -15.9280   -4.0720  -21.5800 C.3    38  HIS38       0.1621
      3  C        -16.5560   -5.0320  -20.5660 C.2    38  HIS38       0.2264
      4  O        -15.8390   -5.6760  -19.8120 O.2    38  HIS38      -0.2867
      5  CB       -14.7660   -4.7880  -22.3140 C.3    38  HIS38       0.0745
      6  CG       -14.1200   -3.9440  -23.3570 C.ar   38  HIS38       0.0817
      7  ND1      -14.3480   -4.1270  -24.7040 N.ar   38  HIS38      -0.2268
      8  CD2      -13.2830   -2.8780  -23.2540 C.ar   38  HIS38       0.1154
      9  CE1      -13.6740   -3.2160  -25.3940 C.ar   38  HIS38       0.1986
     10  NE2      -13.0310   -2.4370  -24.5410 N.ar   38  HIS38      -0.2212
     11  N        -17.9220   -7.8660  -20.9910 N.3    40  ASP40      -0.1225
     12  CA       -17.5420   -9.2310  -21.2680 C.3    40  ASP40       0.1805
     13  C        -16.1060   -9.5020  -20.8760 C.2    40  ASP40       0.2597
     14  O        -15.6680  -10.6150  -21.0520 O.2    40  ASP40      -0.2718
     15  CB       -17.7730   -9.6570  -22.7420 C.3    40  ASP40       0.1424
     16  CG       -17.4220   -8.5560  -23.7810 C.2    40  ASP40       0.3668
     17  OD1      -16.8910   -7.4780  -23.4350 O.co2  40  ASP40      -0.2456
     18  OD2      -17.7200   -8.7850  -24.9710 O.co2  40  ASP40      -0.2456
     19  N        -15.3840   -8.4930  -20.3490 N.am   41  LEU41      -0.1979
     20  CA       -14.0520   -8.7270  -19.7550 C.3    41  LEU41       0.1596
     21  C        -13.9600   -8.0110  -18.4090 C.2    41  LEU41       0.2287
     22  O        -12.8860   -7.5940  -17.9900 O.2    41  LEU41      -0.2864
     23  CB       -12.8770   -8.3050  -20.6570 C.3    41  LEU41       0.0297
     24  CG       -12.7630   -9.0610  -21.9840 C.3    41  LEU41       0.0022
     25  CD1      -11.6260   -8.5050  -22.9310 C.3    41  LEU41       0.0001
     26  CD2      -12.5960  -10.5520  -21.7470 C.3    41  LEU41       0.0001
     27  N         -1.0920   -5.0470  -28.0280 N.3    79  LEU79      -0.1245
     28  CA        -2.5240   -5.1930  -28.2480 C.3    79  LEU79       0.1561
     29  C         -2.7310   -6.4720  -29.0280 C.2    79  LEU79       0.2260
     30  O         -3.6470   -7.2280  -28.7500 O.2    79  LEU79      -0.2867
     31  CB        -3.0820   -4.0010  -29.0480 C.3    79  LEU79       0.0270
     32  CG        -4.4880   -4.1650  -29.6720 C.3    79  LEU79       0.0019
     33  CD1       -5.5550   -4.5150  -28.6140 C.3    79  LEU79       0.0001
     34  CD2       -4.8500   -2.8690  -30.3010 C.3    79  LEU79       0.0001
     35  N         -2.8100   -9.1060  -26.7190 N.3    82  PHE82      -0.1227
     36  CA        -4.0090   -8.9760  -25.9290 C.3    82  PHE82       0.1736
     37  C         -5.2070   -9.5980  -26.6760 C.2    82  PHE82       0.2595
     38  O         -6.0300  -10.3160  -26.0820 O.2    82  PHE82      -0.2718
     39  CB        -4.3110   -7.5160  -25.6230 C.3    82  PHE82       0.0547
     40  CG        -5.6200   -7.3250  -24.8960 C.ar   82  PHE82      -0.0202
     41  CD1       -5.6620   -7.3920  -23.5000 C.ar   82  PHE82      -0.0042
     42  CD2       -6.8050   -7.0610  -25.6010 C.ar   82  PHE82      -0.0042
     43  CE1       -6.8360   -7.2060  -22.8090 C.ar   82  PHE82      -0.0003
     44  CE2       -7.9920   -6.8610  -24.9150 C.ar   82  PHE82      -0.0003
     45  CZ        -7.9990   -6.9400  -23.5100 C.ar   82  PHE82      -0.0000
     46  N         -5.3160   -9.2980  -27.9700 N.am   83  VAL83      -0.1980
     47  CA        -6.4090   -9.8450  -28.7460 C.3    83  VAL83       0.1595
     48  C         -6.3470  -11.3760  -28.7140 C.2    83  VAL83       0.2287
     49  O         -7.3890  -12.0400  -28.6630 O.2    83  VAL83      -0.2864
     50  CB        -6.4360   -9.3860  -30.1870 C.3    83  VAL83       0.0276
     51  CG1       -7.6610  -10.0360  -30.8660 C.3    83  VAL83       0.0022
     52  CG2       -6.5520   -7.8670  -30.2540 C.3    83  VAL83       0.0022
     53  N         -7.7300  -12.7010  -25.3390 N.3    86  ALA86      -0.1245
     54  CA        -9.1800  -12.4880  -25.2540 C.3    86  ALA86       0.1562
     55  C         -9.8550  -13.7140  -25.9110 C.2    86  ALA86       0.2260
     56  O        -10.8410  -14.2550  -25.4240 O.2    86  ALA86      -0.2867
     57  CB        -9.5790  -11.2150  -25.9780 C.3    86  ALA86       0.0290
     58  N        -17.3120  -18.5070  -22.0500 N.3    93  PHE93      -0.1241
     59  CA       -18.6790  -18.1910  -22.5340 C.3    93  PHE93       0.1605
     60  C        -19.4510  -19.4480  -22.9870 C.2    93  PHE93       0.2264
     61  O        -19.8750  -19.5700  -24.1660 O.2    93  PHE93      -0.2867
     62  CB       -18.6090  -17.2190  -23.6960 C.3    93  PHE93       0.0534
     63  CG       -17.9470  -15.9310  -23.3360 C.ar   93  PHE93      -0.0203
     64  CD1      -18.1990  -15.3510  -22.0900 C.ar   93  PHE93      -0.0042
     65  CD2      -17.0870  -15.3150  -24.2170 C.ar   93  PHE93      -0.0042
     66  CE1      -17.5690  -14.1660  -21.7220 C.ar   93  PHE93      -0.0003
     67  CE2      -16.4710  -14.1200  -23.8530 C.ar   93  PHE93      -0.0003
     68  CZ       -16.7280  -13.5710  -22.5780 C.ar   93  PHE93      -0.0000
     69  N        -19.2040   -7.2190  -27.0390 N.3   123  SER123     -0.1217
     70  CA       -19.2180   -7.6030  -28.4480 C.3   123  SER123      0.1889
     71  C        -20.0350   -8.8600  -28.5710 C.2   123  SER123      0.2288
     72  O        -19.5520   -9.9370  -28.2020 O.2   123  SER123     -0.2866
     73  CB       -17.7980   -7.9130  -28.9580 C.3   123  SER123      0.2089
     74  OG       -17.8930   -8.5220  -30.2570 O.3   123  SER123     -0.2183
     75  N        -18.5440  -11.5100  -30.8520 N.3   126  PHE126     -0.1241
     76  CA       -17.4080  -12.0970  -30.1290 C.3   126  PHE126      0.1605
     77  C        -17.8380  -13.1320  -29.1040 C.2   126  PHE126      0.2264
     78  O        -17.4250  -14.3120  -29.2210 O.2   126  PHE126     -0.2867
     79  CB       -16.5000  -11.0570  -29.4690 C.3   126  PHE126      0.0534
     80  CG       -15.1280  -11.6100  -29.1040 C.ar  126  PHE126     -0.0203
     81  CD1      -14.0800  -11.5610  -30.0210 C.ar  126  PHE126     -0.0042
     82  CD2      -14.9080  -12.2100  -27.8530 C.ar  126  PHE126     -0.0042
     83  CE1      -12.8230  -12.0840  -29.6790 C.ar  126  PHE126     -0.0003
     84  CE2      -13.6610  -12.7270  -27.5090 C.ar  126  PHE126     -0.0003
     85  CZ       -12.6180  -12.6560  -28.4170 C.ar  126  PHE126     -0.0000
     86  N        -20.2720   -3.4380  -29.4880 N.3   164  ILE164     -0.1245
     87  CA       -18.9760   -3.3340  -30.1660 C.3   164  ILE164      0.1561
     88  C        -18.9040   -4.2930  -31.3460 C.2   164  ILE164      0.2260
     89  O        -19.1490   -5.4890  -31.1930 O.2   164  ILE164     -0.2867
     90  CB       -17.8580   -3.8020  -29.2390 C.3   164  ILE164      0.0252
     91  CG1      -17.9320   -3.0470  -27.9100 C.3   164  ILE164      0.0019
     92  CG2      -16.4540   -3.5960  -29.8960 C.3   164  ILE164      0.0019
     93  CD1      -17.0290   -3.7320  -26.7860 C.3   164  ILE164      0.0001
     94  N        -16.2290   -6.0590  -33.9470 N.3   166  THR166     -0.1218
     95  CA       -14.8010   -6.3750  -33.8740 C.3   166  THR166      0.1862
     96  C        -14.3140   -6.9420  -35.2270 C.2   166  THR166      0.2287
     97  O        -15.1090   -7.3930  -36.0550 O.2   166  THR166     -0.2866
     98  CB       -14.5090   -7.3530  -32.7180 C.3   166  THR166      0.1770
     99  OG1      -15.2300   -8.5750  -32.9410 O.3   166  THR166     -0.2211
    100  CG2      -14.9910   -6.7640  -31.4020 C.3   166  THR166      0.0375
    101  N        -13.7240   -2.5520  -31.7130 N.3   193  GLY193     -0.1210
    102  CA       -12.5570   -2.9670  -30.9170 C.3   193  GLY193      0.1956
    103  C        -11.8530   -4.1220  -31.6280 C.2   193  GLY193      0.2612
    104  O        -12.1630   -4.4500  -32.7810 O.2   193  GLY193     -0.2717
    105  N        -10.8910   -4.7350  -30.9550 N.am  194  GLY194     -0.1956
    106  CA       -10.1750   -5.8730  -31.5140 C.3   194  GLY194      0.1869
    107  C         -8.8690   -5.3220  -32.0260 C.2   194  GLY194      0.2309
    108  O         -8.4200   -4.3310  -31.5070 O.2   194  GLY194     -0.2863
    109  N        -12.5210    2.4910  -30.9010 N.3   219  HIS219     -0.1241
    110  CA       -11.1190    2.3760  -30.4500 C.3   219  HIS219      0.1621
    111  C        -10.2100    2.8980  -31.5320 C.2   219  HIS219      0.2264
    112  O        -10.2280    2.3630  -32.6770 O.2   219  HIS219     -0.2867
    113  CB       -10.7470    0.8950  -30.1250 C.3   219  HIS219      0.0745
    114  CG       -11.3910    0.3580  -28.8650 C.ar  219  HIS219      0.0817
    115  ND1      -12.7560    0.2200  -28.7310 N.ar  219  HIS219     -0.2268
    116  CD2      -10.8540   -0.1660  -27.7300 C.ar  219  HIS219      0.1154
    117  CE1      -13.0380   -0.3340  -27.5620 C.ar  219  HIS219      0.1986
    118  NE2      -11.9030   -0.5650  -26.9280 N.ar  219  HIS219     -0.2212
    119  N         -4.7100    3.8110  -30.0430 N.3   222  GLU222     -0.1245
    120  CA        -4.3290    3.0300  -28.8710 C.3   222  GLU222      0.1567
    121  C         -2.9790    2.3660  -29.1630 C.2   222  GLU222      0.2260
    122  O         -2.0370    2.4560  -28.3620 O.2   222  GLU222     -0.2867
    123  CB        -5.3840    1.9280  -28.5510 C.3   222  GLU222      0.0388
    124  CG        -4.9990    1.0890  -27.3110 C.3   222  GLU222      0.1160
    125  CD        -5.8350   -0.1930  -27.1180 C.2   222  GLU222      0.3649
    126  OE1       -6.7240   -0.5130  -27.9720 O.co2 222  GLU222     -0.2457
    127  OE2       -5.5970   -0.8800  -26.1060 O.co2 222  GLU222     -0.2457
    128  N         -9.5790    5.1930  -25.9650 N.3   246  HIS246     -0.1241
    129  CA        -8.1300    5.4940  -25.8600 C.3   246  HIS246      0.1621
    130  C         -7.7100    6.8520  -26.4390 C.2   246  HIS246      0.2264
    131  O         -7.6780    7.8520  -25.7050 O.2   246  HIS246     -0.2867
    132  CB        -7.2550    4.3700  -26.4000 C.3   246  HIS246      0.0745
    133  CG        -7.5580    3.0410  -25.8020 C.ar  246  HIS246      0.0817
    134  ND1       -7.1210    2.6800  -24.5460 N.ar  246  HIS246     -0.2268
    135  CD2       -8.2080    1.9660  -26.3020 C.ar  246  HIS246      0.1154
    136  CE1       -7.5150    1.4440  -24.2840 C.ar  246  HIS246      0.1986
    137  NE2       -8.2040    0.9970  -25.3230 N.ar  246  HIS246     -0.2212
    138  N         -4.6690   -0.1280  -18.6270 N.3   273  SER273     -0.1217
    139  CA        -4.6530   -0.8720  -19.8870 C.3   273  SER273      0.1889
    140  C         -3.4870   -0.4710  -20.7880 C.2   273  SER273      0.2288
    141  O         -2.7800   -1.3130  -21.3450 O.2   273  SER273     -0.2866
    142  CB        -5.9700   -0.5940  -20.6250 C.3   273  SER273      0.2089
    143  OG        -5.9750   -1.2790  -21.8820 O.3   273  SER273     -0.2183
    144  N         -0.5580   -3.1310  -21.8300 N.3   277  LEU277     -0.1245
    145  CA        -0.4860   -3.5560  -23.2230 C.3   277  LEU277      0.1561
    146  C          0.6960   -2.9200  -23.9500 C.2   277  LEU277      0.2260
    147  O          0.8210   -3.0120  -25.1440 O.2   277  LEU277     -0.2867
    148  CB        -1.7820   -3.1850  -23.9500 C.3   277  LEU277      0.0270
    149  CG        -2.9320   -4.1790  -23.8260 C.3   277  LEU277      0.0019
    150  CD1       -3.3790   -4.4320  -22.4000 C.3   277  LEU277      0.0001
    151  CD2       -4.1110   -3.7000  -24.7190 C.3   277  LEU277      0.0001
    152  N        -11.3860   -0.1270  -18.6940 N.3   303  ASP303     -0.1225
    153  CA       -11.2310   -0.9070  -19.9110 C.3   303  ASP303      0.1805
    154  C        -11.6050   -2.3650  -19.6090 C.2   303  ASP303      0.2597
    155  O        -12.7130   -2.8000  -19.9740 O.2   303  ASP303     -0.2718
    156  CB        -9.8050   -0.8160  -20.4710 C.3   303  ASP303      0.1424
    157  CG        -9.7470   -1.0280  -22.0000 C.2   303  ASP303      0.3668
    158  OD1      -10.8080   -1.1500  -22.6360 O.co2 303  ASP303     -0.2456
    159  OD2       -8.6490   -1.1400  -22.5700 O.co2 303  ASP303     -0.2456
    160  N        -10.6940   -3.1370  -18.9750 N.am  304  ASP304     -0.1974
    161  CA       -10.9290   -4.6230  -18.8510 C.3   304  ASP304      0.1709
    162  C        -10.5610   -5.1520  -17.4840 C.2   304  ASP304      0.2293
    163  O         -9.5690   -5.8280  -17.3480 O.2   304  ASP304     -0.2864
    164  CB       -10.1360   -5.4110  -19.8900 C.3   304  ASP304      0.1436
    165  CG       -10.3230   -4.8520  -21.2920 C.2   304  ASP304      0.3671
    166  OD1      -11.2990   -5.2420  -21.9770 O.co2 304  ASP304     -0.2456
    167  OD2       -9.5000   -4.0020  -21.6670 O.co2 304  ASP304     -0.2456
@<TRIPOS>BOND
     1    97    96    2
     2    96    95    1
     3    94    95    1
     4    95    98    1
     5    99    98    1
     6   104   103    2
     7    98   100    1
     8   112   111    2
     9   107   106    1
    10   107   108    2
    11   101   102    1
    12   103   105   am
    13   103   102    1
    14   111   110    1
    15   106   105    1
    16    88    89    2
    17    88    87    1
    18   109   110    1
    19    51    50    1
    20    75    76    1
    21   110   113    1
    22    34    32    1
    23    74    73    1
    24    52    50    1
    25    50    47    1
    26    87    86    1
    27    87    90    1
    28    76    79    1
    29    76    77    1
    30   113   114    1
    31   119   120    1
    32    81    83   ar
    33    81    80   ar
    34    92    90    1
    35    83    85   ar
    36    32    31    1
    37    32    33    1
    38    79    80    1
    39    90    91    1
    40    78    77    2
    41   121   120    1
    42   121   122    2
    43    80    82   ar
    44    31    28    1
    45    29    30    2
    46    29    28    1
    47    73    70    1
    48   120   123    1
    49   114   115   ar
    50   114   116   ar
    51    47    48    1
    52    47    46    1
    53   115   117   ar
    54    48    49    2
    55    71    70    1
    56    71    72    2
    57   123   124    1
    58    70    69    1
    59    85    84   ar
    60    28    27    1
    61   126   125   ar
    62    46    37   am
    63    91    93    1
    64    82    84   ar
    65   116   118   ar
    66   117   118   ar
    67   124   125    1
    68   125   127   ar
    69    35    36    1
    70    37    38    2
    71    37    36    1
    72   130   129    1
    73   130   131    2
    74   132   129    1
    75   132   133    1
    76   135   133   ar
    77   135   137   ar
    78    57    54    1
    79   128   129    1
    80    36    39    1
    81    55    56    2
    82    55    54    1
    83   133   134   ar
    84    39    40    1
    85    42    44   ar
    86    42    40   ar
    87     9     7   ar
    88     9    10   ar
    89    53    54    1
    90   137   136   ar
    91   147   146    2
    92    18    16   ar
    93    44    45   ar
    94    40    41   ar
    95   151   149    1
    96     7     6   ar
    97   134   136   ar
    98    10     8   ar
    99    65    67   ar
   100    65    63   ar
   101    61    60    2
   102   148   149    1
   103   148   145    1
   104   146   145    1
   105    67    68   ar
   106   149   150    1
   107    16    17   ar
   108    16    15    1
   109    62    63    1
   110    62    59    1
   111    45    43   ar
   112    41    43   ar
   113     6     8   ar
   114     6     5    1
   115    63    64   ar
   116   145   144    1
   117    60    59    1
   118    25    24    1
   119    15    12    1
   120   158   157   ar
   121    68    66   ar
   122   159   157   ar
   123    59    58    1
   124     5     2    1
   125    64    66   ar
   126   157   156    1
   127    24    26    1
   128    24    23    1
   129   166   165   ar
   130   143   142    1
   131   167   165   ar
   132     2     1    1
   133     2     3    1
   134   141   140    2
   135   165   164    1
   136    12    11    1
   137    12    13    1
   138    14    13    2
   139    13    19   am
   140   140   139    1
   141    23    20    1
   142   142   139    1
   143     3     4    2
   144   156   153    1
   145    19    20    1
   146   155   154    2
   147   153   154    1
   148   153   152    1
   149   164   161    1
   150   139   138    1
   151    20    21    1
   152   154   160   am
   153   160   161    1
   154   161   162    1
   155    21    22    2
   156   162   163    2
