@<TRIPOS>MOLECULE
tmp/3ewfD00.pdb
 197 194 0 0 0
SMALL
GASTEIGER

@<TRIPOS>ATOM
      1  N         37.4110  -62.9790  -35.8690 N.3    81  ILE81      -0.1231
      2  CA        37.5150  -62.0910  -37.0170 C.3    81  ILE81       0.1692
      3  C         36.7610  -62.6370  -38.2370 C.2    81  ILE81       0.2591
      4  O         36.1190  -61.8750  -38.9630 O.2    81  ILE81      -0.2718
      5  CB        38.9960  -61.8280  -37.3820 C.3    81  ILE81       0.0266
      6  CG1       39.0800  -60.8030  -38.5070 C.3    81  ILE81       0.0019
      7  CG2       39.6790  -63.1330  -37.8040 C.3    81  ILE81       0.0020
      8  CD1       40.4820  -60.4050  -38.8360 C.3    81  ILE81       0.0001
      9  N         36.8340  -63.9490  -38.4570 N.am   82  GLU82      -0.1979
     10  CA        36.1420  -64.5760  -39.5810 C.3    82  GLU82       0.1602
     11  C         34.6290  -64.5110  -39.3690 C.2    82  GLU82       0.2287
     12  O         33.8590  -64.4920  -40.3310 O.2    82  GLU82      -0.2864
     13  CB        36.5740  -66.0370  -39.7110 C.3    82  GLU82       0.0415
     14  CG        35.9870  -66.7590  -40.8500 C.3    82  GLU82       0.1163
     15  CD        36.0400  -68.2580  -40.6860 C.2    82  GLU82       0.3649
     16  OE1       36.5540  -68.7290  -39.6670 O.co2  82  GLU82      -0.2457
     17  OE2       35.5630  -68.9760  -41.5780 O.co2  82  GLU82      -0.2457
     18  N         33.0580  -62.0180  -38.0240 N.3    84  GLY84      -0.1210
     19  CA        32.6720  -60.6220  -37.8960 C.3    84  GLY84       0.1956
     20  C         32.8330  -59.9390  -36.5520 C.2    84  GLY84       0.2611
     21  O         32.5400  -58.7560  -36.4410 O.2    84  GLY84      -0.2717
     22  N         33.2750  -60.6610  -35.5280 N.am   85  LEU85      -0.1979
     23  CA        33.4590  -60.0490  -34.2210 C.3    85  LEU85       0.1596
     24  C         34.7020  -59.1760  -34.2690 C.2    85  LEU85       0.2287
     25  O         35.6480  -59.4660  -35.0020 O.2    85  LEU85      -0.2864
     26  CB        33.6110  -61.1100  -33.1230 C.3    85  LEU85       0.0297
     27  CG        32.3790  -61.9080  -32.6900 C.3    85  LEU85       0.0022
     28  CD1       31.2520  -60.9500  -32.3630 C.3    85  LEU85       0.0001
     29  CD2       31.9500  -62.8470  -33.7900 C.3    85  LEU85       0.0001
     30  N         35.9630  -54.7890  -33.6920 N.3    87  TYR87      -0.1227
     31  CA        35.6850  -53.4120  -33.3250 C.3    87  TYR87       0.1736
     32  C         34.1880  -53.0740  -33.3170 C.2    87  TYR87       0.2595
     33  O         33.6530  -52.6550  -32.2890 O.2    87  TYR87      -0.2718
     34  CB        36.4320  -52.4580  -34.2540 C.3    87  TYR87       0.0548
     35  CG        36.2350  -51.0040  -33.8810 C.ar   87  TYR87      -0.0200
     36  CD1       36.5940  -50.5410  -32.6190 C.ar   87  TYR87      -0.0009
     37  CD2       35.6640  -50.0970  -34.7790 C.ar   87  TYR87      -0.0009
     38  CE1       36.3900  -49.2170  -32.2520 C.ar   87  TYR87       0.0417
     39  CE2       35.4520  -48.7610  -34.4210 C.ar   87  TYR87       0.0417
     40  CZ        35.8180  -48.3300  -33.1560 C.ar   87  TYR87       0.1957
     41  OH        35.6210  -47.0220  -32.7740 O.3    87  TYR87      -0.2866
     42  N         33.5150  -53.2460  -34.4550 N.am   88  ASP88      -0.1974
     43  CA        32.0840  -52.9470  -34.5420 C.3    88  ASP88       0.1709
     44  C         31.2570  -53.9090  -33.7010 C.2    88  ASP88       0.2293
     45  O         30.2520  -53.5200  -33.1050 O.2    88  ASP88      -0.2864
     46  CB        31.5860  -53.0110  -35.9940 C.3    88  ASP88       0.1436
     47  CG        32.0560  -51.8300  -36.8380 C.2    88  ASP88       0.3671
     48  OD1       32.0930  -50.6850  -36.3200 O.co2  88  ASP88      -0.2456
     49  OD2       32.3670  -52.0440  -38.0340 O.co2  88  ASP88      -0.2456
     50  N         15.7770  -54.6900  -34.8940 N.3   127  GLY127     -0.1210
     51  CA        16.1970  -53.9570  -36.0710 C.3   127  GLY127      0.1956
     52  C         17.6510  -54.1240  -36.4580 C.2   127  GLY127      0.2612
     53  O         18.1820  -53.3020  -37.2060 O.2   127  GLY127     -0.2717
     54  N         18.2970  -55.1790  -35.9730 N.am  128  TRP128     -0.1962
     55  CA        19.7010  -55.4050  -36.3010 C.3   128  TRP128      0.1771
     56  C         19.8380  -56.0900  -37.6530 C.2   128  TRP128      0.2620
     57  O         20.1580  -57.2720  -37.7670 O.2   128  TRP128     -0.2715
     58  CB        20.3610  -56.1760  -35.1590 C.3   128  TRP128      0.0590
     59  CG        20.1680  -55.3910  -33.9060 C.ar  128  TRP128      0.0006
     60  CD1       19.2980  -55.6740  -32.8960 C.ar  128  TRP128      0.0946
     61  CD2       20.6980  -54.0820  -33.6210 C.ar  128  TRP128      0.0152
     62  NE1       19.2380  -54.6250  -32.0060 N.ar  128  TRP128     -0.2442
     63  CE2       20.0860  -53.6340  -32.4260 C.ar  128  TRP128      0.0810
     64  CE3       21.6200  -53.2420  -34.2640 C.ar  128  TRP128      0.0012
     65  CZ2       20.3680  -52.3780  -31.8570 C.ar  128  TRP128      0.0191
     66  CZ3       21.9000  -51.9890  -33.6990 C.ar  128  TRP128      0.0001
     67  CH2       21.2720  -51.5740  -32.5060 C.ar  128  TRP128      0.0015
     68  N         19.6010  -55.2700  -38.6720 N.am  129  HIS129     -0.1959
     69  CA        19.5930  -55.6330  -40.0840 C.3   129  HIS129      0.1787
     70  C         20.9090  -56.0010  -40.7930 C.2   129  HIS129      0.2620
     71  O         20.8740  -56.5030  -41.9160 O.2   129  HIS129     -0.2715
     72  CB        18.9380  -54.4820  -40.8580 C.3   129  HIS129      0.0785
     73  CG        19.7050  -53.1920  -40.7790 C.ar  129  HIS129      0.0821
     74  ND1       19.3400  -52.0600  -41.4770 N.ar  129  HIS129     -0.2267
     75  CD2       20.8390  -52.8690  -40.1080 C.ar  129  HIS129      0.1154
     76  CE1       20.2150  -51.0980  -41.2430 C.ar  129  HIS129      0.1986
     77  NE2       21.1350  -51.5630  -40.4160 N.ar  129  HIS129     -0.2212
     78  N         22.0550  -55.7640  -40.1660 N.am  130  ALA130     -0.1977
     79  CA        23.3310  -56.0390  -40.8270 C.3   130  ALA130      0.1597
     80  C         23.9280  -57.4300  -40.6520 C.2   130  ALA130      0.2287
     81  O         24.8390  -57.8030  -41.3900 O.2   130  ALA130     -0.2864
     82  CB        24.3550  -54.9930  -40.4040 C.3   130  ALA130      0.0319
     83  N         27.9550  -64.4010  -39.8920 N.3   135  GLU135     -0.1245
     84  CA        28.8410  -63.2930  -39.5790 C.3   135  GLU135      0.1567
     85  C         28.1560  -62.0960  -38.9330 C.2   135  GLU135      0.2260
     86  O         27.1090  -61.6340  -39.3930 O.2   135  GLU135     -0.2867
     87  CB        29.5360  -62.8590  -40.8740 C.3   135  GLU135      0.0388
     88  CG        30.4110  -61.6260  -40.7800 C.3   135  GLU135      0.1160
     89  CD        30.9980  -61.2370  -42.1360 C.2   135  GLU135      0.3649
     90  OE1       30.2110  -61.0310  -43.0920 O.co2 135  GLU135     -0.2457
     91  OE2       32.2430  -61.1400  -42.2440 O.co2 135  GLU135     -0.2457
     92  N         28.0850  -54.5990  -38.3620 N.3   138  GLY138     -0.1210
     93  CA        27.4650  -53.3370  -37.9770 C.3   138  GLY138      0.1956
     94  C         26.6820  -53.2680  -36.6760 C.2   138  GLY138      0.2611
     95  O         25.5590  -52.7720  -36.6540 O.2   138  GLY138     -0.2717
     96  N         27.2820  -53.7520  -35.5910 N.am  139  PHE139     -0.1976
     97  CA        26.6660  -53.7360  -34.2590 C.3   139  PHE139      0.1639
     98  C         25.5680  -54.7930  -34.1510 C.2   139  PHE139      0.2290
     99  O         24.8490  -54.8560  -33.1500 O.2   139  PHE139     -0.2864
    100  CB        26.0570  -52.3550  -33.9560 C.3   139  PHE139      0.0560
    101  CG        26.9630  -51.1870  -34.2730 C.ar  139  PHE139     -0.0200
    102  CD1       26.4210  -49.9190  -34.4760 C.ar  139  PHE139     -0.0042
    103  CD2       28.3420  -51.3490  -34.3950 C.ar  139  PHE139     -0.0042
    104  CE1       27.2280  -48.8310  -34.8010 C.ar  139  PHE139     -0.0003
    105  CE2       29.1600  -50.2640  -34.7220 C.ar  139  PHE139     -0.0003
    106  CZ        28.6000  -49.0040  -34.9260 C.ar  139  PHE139     -0.0000
    107  N         16.4920  -47.0820  -41.7630 N.3   165  ASP165     -0.1239
    108  CA        17.7120  -46.8350  -41.0100 C.3   165  ASP165      0.1674
    109  C         18.6350  -46.0100  -41.9130 C.2   165  ASP165      0.2266
    110  O         18.4560  -45.9910  -43.1370 O.2   165  ASP165     -0.2867
    111  CB        18.3760  -48.1710  -40.6740 C.3   165  ASP165      0.1410
    112  CG        19.5480  -48.0210  -39.7380 C.2   165  ASP165      0.3668
    113  OD1       19.3520  -48.1910  -38.5140 O.co2 165  ASP165     -0.2456
    114  OD2       20.6630  -47.7240  -40.2250 O.co2 165  ASP165     -0.2456
    115  N         21.6940  -46.6280  -42.4730 N.3   167  HIS167     -0.1241
    116  CA        22.5000  -47.5990  -43.1990 C.3   167  HIS167      0.1621
    117  C         21.6940  -48.5970  -44.0310 C.2   167  HIS167      0.2264
    118  O         20.5510  -48.9310  -43.7130 O.2   167  HIS167     -0.2867
    119  CB        23.3840  -48.3710  -42.2240 C.3   167  HIS167      0.0745
    120  CG        24.2350  -47.4920  -41.3650 C.ar  167  HIS167      0.0817
    121  ND1       23.7640  -46.8970  -40.2150 N.ar  167  HIS167     -0.2268
    122  CD2       25.5170  -47.0770  -41.5050 C.ar  167  HIS167      0.1154
    123  CE1       24.7180  -46.1520  -39.6850 C.ar  167  HIS167      0.1986
    124  NE2       25.7920  -46.2440  -40.4490 N.ar  167  HIS167     -0.2212
    125  N         32.8840  -45.1390  -48.9340 N.3   193  GLY193     -0.1210
    126  CA        33.4840  -45.0110  -47.6240 C.3   193  GLY193      0.1956
    127  C         32.4610  -45.1730  -46.5160 C.2   193  GLY193      0.2612
    128  O         32.8200  -45.4130  -45.3630 O.2   193  GLY193     -0.2717
    129  N         31.1810  -45.0580  -46.8610 N.am  194  PHE194     -0.1962
    130  CA        30.1200  -45.1720  -45.8640 C.3   194  PHE194      0.1771
    131  C         29.5660  -46.5850  -45.7370 C.2   194  PHE194      0.2620
    132  O         29.1010  -47.1810  -46.7100 O.2   194  PHE194     -0.2715
    133  CB        28.9800  -44.2020  -46.1860 C.3   194  PHE194      0.0574
    134  CG        28.0480  -43.9740  -45.0350 C.ar  194  PHE194     -0.0200
    135  CD1       28.4540  -43.2150  -43.9400 C.ar  194  PHE194     -0.0042
    136  CD2       26.7830  -44.5590  -45.0180 C.ar  194  PHE194     -0.0042
    137  CE1       27.6210  -43.0420  -42.8430 C.ar  194  PHE194     -0.0003
    138  CE2       25.9420  -44.3920  -43.9240 C.ar  194  PHE194     -0.0003
    139  CZ        26.3640  -43.6290  -42.8310 C.ar  194  PHE194     -0.0000
    140  N         29.6170  -47.1050  -44.5170 N.am  195  PHE195     -0.1960
    141  CA        29.1370  -48.4490  -44.1900 C.3   195  PHE195      0.1756
    142  C         27.6820  -48.6660  -44.6260 C.2   195  PHE195      0.2461
    143  O         26.8330  -47.8030  -44.4160 O.2   195  PHE195     -0.2730
    144  CB        29.2790  -48.6640  -42.6760 C.3   195  PHE195      0.0574
    145  CG        28.9920  -50.0670  -42.2220 C.ar  195  PHE195     -0.0200
    146  CD1       27.6880  -50.4740  -41.9540 C.ar  195  PHE195     -0.0042
    147  CD2       30.0300  -50.9790  -42.0480 C.ar  195  PHE195     -0.0042
    148  CE1       27.4210  -51.7670  -41.5190 C.ar  195  PHE195     -0.0003
    149  CE2       29.7810  -52.2770  -41.6130 C.ar  195  PHE195     -0.0003
    150  CZ        28.4710  -52.6730  -41.3460 C.ar  195  PHE195     -0.0000
    151  N         27.3690  -49.8420  -45.1990 N.am  196  PRO196     -0.2716
    152  CA        28.3000  -50.9470  -45.4430 C.3   196  PRO196      0.1536
    153  C         28.9670  -50.8890  -46.8060 C.2   196  PRO196      0.2599
    154  O         29.8440  -51.6940  -47.1040 O.2   196  PRO196     -0.2715
    155  CB        27.4120  -52.1740  -45.2870 C.3   196  PRO196      0.0310
    156  CG        26.1280  -51.7070  -45.8920 C.3   196  PRO196      0.0237
    157  CD        25.9710  -50.2980  -45.3490 C.3   196  PRO196      0.0939
    158  N         28.5510  -49.9410  -47.6330 N.am  197  GLY197     -0.1955
    159  CA        29.1460  -49.8220  -48.9510 C.3   197  GLY197      0.1869
    160  C         28.2880  -50.3940  -50.0610 C.2   197  GLY197      0.2309
    161  O         28.5850  -50.2070  -51.2410 O.2   197  GLY197     -0.2863
    162  N         19.0940  -43.1540  -36.5640 N.3   254  ASP254     -0.1239
    163  CA        20.3820  -42.5150  -36.8340 C.3   254  ASP254      0.1674
    164  C         20.3000  -41.5920  -38.0630 C.2   254  ASP254      0.2266
    165  O         21.3170  -41.1290  -38.5830 O.2   254  ASP254     -0.2867
    166  CB        21.5020  -43.5690  -36.9920 C.3   254  ASP254      0.1410
    167  CG        21.1160  -44.7250  -37.9070 C.2   254  ASP254      0.3668
    168  OD1       19.9570  -44.7900  -38.3660 O.co2 254  ASP254     -0.2456
    169  OD2       21.9840  -45.5810  -38.1660 O.co2 254  ASP254     -0.2456
    170  N         26.5070  -39.2930  -36.1480 N.3   261  MET261     -0.1245
    171  CA        26.9260  -39.6840  -37.4920 C.3   261  MET261      0.1570
    172  C         26.7380  -38.5140  -38.4550 C.2   261  MET261      0.2261
    173  O         27.2710  -38.5130  -39.5670 O.2   261  MET261     -0.2867
    174  CB        26.1440  -40.9060  -37.9570 C.3   261  MET261      0.0387
    175  CG        26.3350  -42.0990  -37.0380 C.3   261  MET261      0.0595
    176  SD        26.3150  -43.6750  -37.9190 S.3   261  MET261     -0.1393
    177  CE        27.4190  -44.6430  -36.8890 C.3   261  MET261      0.0692
    178  N         16.5470  -49.8880  -34.3370 N.3   290  GLY290     -0.1210
    179  CA        17.7760  -50.0350  -35.0960 C.3   290  GLY290      0.1956
    180  C         18.8540  -49.0820  -34.6160 C.2   290  GLY290      0.2612
    181  O         19.1420  -49.0190  -33.4200 O.2   290  GLY290     -0.2717
    182  N         19.4490  -48.3500  -35.5540 N.am  291  GLY291     -0.1956
    183  CA        20.4760  -47.3880  -35.2100 C.3   291  GLY291      0.1869
    184  C         19.8940  -46.2170  -34.4390 C.2   291  GLY291      0.2309
    185  O         18.6740  -46.1110  -34.2730 O.2   291  GLY291     -0.2863
    186  N         22.3470  -43.1080  -32.4320 N.3   293  TYR293     -0.1241
    187  CA        23.4590  -42.9120  -31.5240 C.3   293  TYR293      0.1605
    188  C         23.4250  -41.6420  -30.6890 C.2   293  TYR293      0.2264
    189  O         24.3860  -41.2890  -29.9980 O.2   293  TYR293     -0.2867
    190  CB        24.7450  -43.1000  -32.3190 C.3   293  TYR293      0.0534
    191  CG        24.6300  -44.3880  -33.0990 C.ar  293  TYR293     -0.0201
    192  CD1       24.1570  -44.3900  -34.4130 C.ar  293  TYR293     -0.0009
    193  CD2       24.8540  -45.6190  -32.4780 C.ar  293  TYR293     -0.0009
    194  CE1       23.9030  -45.5770  -35.0860 C.ar  293  TYR293      0.0417
    195  CE2       24.6010  -46.8130  -33.1410 C.ar  293  TYR293      0.0417
    196  CZ        24.1240  -46.7820  -34.4480 C.ar  293  TYR293      0.1957
    197  OH        23.8640  -47.9560  -35.1150 O.3   293  TYR293     -0.2866
@<TRIPOS>BOND
     1   161   160    2
     2   160   159    1
     3   159   158    1
     4   125   126    1
     5   158   153   am
     6   126   127    1
     7   154   153    2
     8   129   127   am
     9   129   130    1
    10   153   152    1
    11   132   131    2
    12   127   128    2
    13   133   130    1
    14   133   134    1
    15   156   157    1
    16   156   155    1
    17   130   131    1
    18   131   140   am
    19   152   155    1
    20   152   151    1
    21   157   151    1
    22   151   142   am
    23   134   136   ar
    24   134   135   ar
    25   136   138   ar
    26   142   143    2
    27   142   141    1
    28   140   141    1
    29   141   144    1
    30   117   118    2
    31   117   116    1
    32   135   137   ar
    33   138   139   ar
    34   116   115    1
    35   116   119    1
    36   110   109    2
    37    90    89   ar
    38   137   139   ar
    39   144   145    1
    40    91    89   ar
    41   119   120    1
    42   145   147   ar
    43   145   146   ar
    44    89    88    1
    45   147   149   ar
    46   146   148   ar
    47    71    70    2
    48   109   108    1
    49   107   108    1
    50   149   150   ar
    51    17    15   ar
    52   148   150   ar
    53   122   120   ar
    54   122   124   ar
    55    74    76   ar
    56    74    73   ar
    57    81    80    2
    58   120   121   ar
    59    76    77   ar
    60   108   111    1
    61    87    88    1
    62    87    84    1
    63    72    73    1
    64    72    69    1
    65    14    15    1
    66    14    13    1
    67    79    80    1
    68    79    82    1
    69    79    78    1
    70    70    78   am
    71    70    69    1
    72    73    75   ar
    73    15    16   ar
    74   111   112    1
    75   124   123   ar
    76    77    75   ar
    77    12    11    2
    78   114   112   ar
    79   121   123   ar
    80    69    68    1
    81    83    84    1
    82   112   113   ar
    83    13    10    1
    84    10    11    1
    85    10     9    1
    86    84    85    1
    87   173   172    2
    88    86    85    2
    89     4     3    2
    90     8     6    1
    91    68    56   am
    92   165   164    2
    93     6     5    1
    94     9     3   am
    95   172   171    1
    96   168   167   ar
    97    92    93    1
    98     3     2    1
    99   169   167   ar
   100   164   163    1
   101    49    47   ar
   102    18    19    1
   103    93    94    1
   104   174   171    1
   105   174   175    1
   106   176   175    1
   107   176   177    1
   108   167   166    1
   109    19    20    1
   110     7     5    1
   111    57    56    2
   112    56    55    1
   113   171   170    1
   114     5     2    1
   115    53    52    2
   116     2     1    1
   117   166   163    1
   118    47    48   ar
   119    47    46    1
   120   163   162    1
   121    94    95    2
   122    94    96   am
   123    20    21    2
   124    20    22   am
   125    52    51    1
   126    52    54   am
   127    55    54    1
   128    55    58    1
   129    51    50    1
   130    46    43    1
   131    96    97    1
   132   182   183    1
   133   182   180   am
   134    22    23    1
   135   183   184    1
   136    58    59    1
   137   197   196    1
   138   179   180    1
   139   179   178    1
   140   194   196   ar
   141   194   192   ar
   142    25    24    2
   143   106   104   ar
   144   106   105   ar
   145   104   102   ar
   146    37    39   ar
   147    37    35   ar
   148   105   103   ar
   149   180   181    2
   150    43    42    1
   151    43    44    1
   152   102   101   ar
   153    42    32   am
   154   196   195   ar
   155   184   185    2
   156    39    40   ar
   157   192   191   ar
   158   103   101   ar
   159   101   100    1
   160    24    23    1
   161    64    66   ar
   162    64    61   ar
   163    97    98    1
   164    97   100    1
   165    34    35    1
   166    34    31    1
   167    23    26    1
   168    98    99    2
   169    59    61   ar
   170    59    60   ar
   171    35    36   ar
   172    29    27    1
   173    44    45    2
   174    66    67   ar
   175    30    31    1
   176    61    63   ar
   177    31    32    1
   178    32    33    2
   179    40    41    1
   180    40    38   ar
   181   195   193   ar
   182    26    27    1
   183   191   193   ar
   184   191   190    1
   185    60    62   ar
   186    27    28    1
   187    36    38   ar
   188    67    65   ar
   189   186   187    1
   190    63    62   ar
   191    63    65   ar
   192   190   187    1
   193   187   188    1
   194   188   189    2
