@<TRIPOS>MOLECULE
tmp/3ewhA00.pdb
 226 213 0 0 0
SMALL
GASTEIGER

@<TRIPOS>ATOM
      1  N         25.5000  -14.2440    1.8160 N.3    24  LYS24      -0.1245
      2  CA        25.9160  -12.9280    1.3260 C.3    24  LYS24       0.1561
      3  C         25.5880  -11.7870    2.2930 C.2    24  LYS24       0.2260
      4  O         24.5720  -11.8380    2.9940 O.2    24  LYS24      -0.2867
      5  CB        25.3430  -12.6500   -0.0710 C.3    24  LYS24       0.0271
      6  CG        23.8470  -12.3740   -0.1310 C.3    24  LYS24       0.0035
      7  CD        23.4490  -11.9270   -1.5420 C.3    24  LYS24       0.0206
      8  CE        21.9460  -11.7670   -1.6830 C.3    24  LYS24       0.1093
      9  NZ        21.4330  -10.5300   -1.0420 N.3    24  LYS24      -0.1314
     10  N         24.0790   -8.3500    3.4840 N.3    26  LEU26      -0.1231
     11  CA        22.8840   -7.5930    3.1190 C.3    26  LEU26       0.1693
     12  C         23.0030   -6.1050    3.4300 C.2    26  LEU26       0.2592
     13  O         22.3210   -5.2830    2.8240 O.2    26  LEU26      -0.2718
     14  CB        21.6540   -8.1700    3.8350 C.3    26  LEU26       0.0284
     15  CG        21.2490   -9.6040    3.4790 C.3    26  LEU26       0.0019
     16  CD1       20.1620  -10.1130    4.4100 C.3    26  LEU26       0.0001
     17  CD2       20.7920   -9.7130    2.0270 C.3    26  LEU26       0.0001
     18  N         23.8620   -5.7620    4.3830 N.am   27  GLY27      -0.1957
     19  CA        24.0170   -4.3750    4.7960 C.3    27  GLY27       0.1869
     20  C         24.8790   -4.2510    6.0310 C.2    27  GLY27       0.2309
     21  O         25.0590   -5.2090    6.7780 O.2    27  GLY27      -0.2863
     22  N         26.6240   -1.0530   14.3130 N.3    31  PHE31      -0.1241
     23  CA        26.5780   -2.2490   15.1640 C.3    31  PHE31       0.1605
     24  C         27.4950   -3.3800   14.6940 C.2    31  PHE31       0.2264
     25  O         27.9440   -4.2010   15.4950 O.2    31  PHE31      -0.2867
     26  CB        25.1420   -2.7840   15.1950 C.3    31  PHE31       0.0534
     27  CG        24.5120   -2.9070   13.8270 C.ar   31  PHE31      -0.0203
     28  CD1       23.7330   -1.8750   13.3110 C.ar   31  PHE31      -0.0042
     29  CD2       24.7060   -4.0490   13.0520 C.ar   31  PHE31      -0.0042
     30  CE1       23.1510   -1.9810   12.0410 C.ar   31  PHE31      -0.0003
     31  CE2       24.1390   -4.1610   11.7820 C.ar   31  PHE31      -0.0003
     32  CZ        23.3580   -3.1290   11.2780 C.ar   31  PHE31      -0.0000
     33  N         24.6310   -7.0740    8.7390 N.3    34  VAL34      -0.1245
     34  CA        23.5030   -7.9640    8.5390 C.3    34  VAL34       0.1561
     35  C         23.8580   -8.8730    7.3750 C.2    34  VAL34       0.2260
     36  O         24.2690   -8.4100    6.3110 O.2    34  VAL34      -0.2867
     37  CB        22.1990   -7.1900    8.2350 C.3    34  VAL34       0.0252
     38  CG1       21.0400   -8.1570    8.0380 C.3    34  VAL34       0.0019
     39  CG2       21.8950   -6.1850    9.3590 C.3    34  VAL34       0.0019
     40  N         17.6690  -13.2130    7.9020 N.3    49  ALA49      -0.1245
     41  CA        18.6440  -12.1350    7.9050 C.3    49  ALA49       0.1562
     42  C         19.1850  -12.0360    9.3210 C.2    49  ALA49       0.2260
     43  O         18.4150  -11.9980   10.2860 O.2    49  ALA49      -0.2867
     44  CB        18.0050  -10.8200    7.4630 C.3    49  ALA49       0.0290
     45  N         21.5270  -10.0760   12.0400 N.3    51  LYS51      -0.1245
     46  CA        22.2810   -8.8960   12.4330 C.3    51  LYS51       0.1561
     47  C         23.2990   -9.3070   13.4870 C.2    51  LYS51       0.2260
     48  O         22.9300   -9.7990   14.5500 O.2    51  LYS51      -0.2867
     49  CB        21.3450   -7.8180   12.9670 C.3    51  LYS51       0.0271
     50  CG        22.0660   -6.5510   13.3990 C.3    51  LYS51       0.0035
     51  CD        21.0940   -5.4810   13.8370 C.3    51  LYS51       0.0206
     52  CE        20.3630   -4.8790   12.6560 C.3    51  LYS51       0.1093
     53  NZ        19.5540   -3.7040   13.0630 N.3    51  LYS51      -0.1314
     54  N         17.6560   -3.5500   21.1920 N.3    68  GLU68      -0.1245
     55  CA        16.8880   -3.8040   19.9700 C.3    68  GLU68       0.1567
     56  C         16.2050   -5.1760   19.9970 C.2    68  GLU68       0.2260
     57  O         15.0050   -5.2950   19.7020 O.2    68  GLU68      -0.2867
     58  CB        17.7800   -3.6950   18.7370 C.3    68  GLU68       0.0388
     59  CG        17.0350   -4.0270   17.4530 C.3    68  GLU68       0.1160
     60  CD        17.8540   -3.7990   16.2080 C.2    68  GLU68       0.3649
     61  OE1       19.0740   -3.5630   16.3110 O.co2  68  GLU68      -0.2457
     62  OE2       17.2610   -3.8610   15.1120 O.co2  68  GLU68      -0.2457
     63  N         13.4010   -5.0580   22.4620 N.3    71  ILE71      -0.1231
     64  CA        12.3050   -4.2410   21.9230 C.3    71  ILE71       0.1692
     65  C         11.4530   -5.0460   20.9360 C.2    71  ILE71       0.2591
     66  O         10.2220   -5.0190   21.0030 O.2    71  ILE71      -0.2718
     67  CB        12.8290   -2.9240   21.3040 C.3    71  ILE71       0.0266
     68  CG1       13.2840   -1.9700   22.4190 C.3    71  ILE71       0.0019
     69  CG2       11.7540   -2.2570   20.4200 C.3    71  ILE71       0.0020
     70  CD1       14.1590   -0.8140   21.9530 C.3    71  ILE71       0.0001
     71  N         12.1130   -5.7850   20.0460 N.am   72  LEU72      -0.1980
     72  CA        11.4050   -6.6580   19.1080 C.3    72  LEU72       0.1596
     73  C         10.6090   -7.7500   19.8180 C.2    72  LEU72       0.2287
     74  O          9.4890   -8.0620   19.4210 O.2    72  LEU72      -0.2864
     75  CB        12.3810   -7.2640   18.0950 C.3    72  LEU72       0.0297
     76  CG        12.8860   -6.3030   17.0210 C.3    72  LEU72       0.0022
     77  CD1       14.1280   -6.8540   16.3450 C.3    72  LEU72       0.0001
     78  CD2       11.7840   -6.0320   15.9970 C.3    72  LEU72       0.0001
     79  N          7.5110   -5.9270   21.6450 N.3    75  ILE75      -0.1245
     80  CA         6.4650   -5.5570   20.6820 C.3    75  ILE75       0.1561
     81  C          5.5730   -6.7600   20.3480 C.2    75  ILE75       0.2260
     82  O          4.3480   -6.6580   20.3790 O.2    75  ILE75      -0.2867
     83  CB         7.0620   -4.9310   19.3990 C.3    75  ILE75       0.0252
     84  CG1        7.6420   -3.5440   19.7020 C.3    75  ILE75       0.0019
     85  CG2        6.0070   -4.8310   18.2970 C.3    75  ILE75       0.0019
     86  CD1        8.5510   -2.9920   18.6150 C.3    75  ILE75       0.0001
     87  N          4.9110   -6.5990   10.5670 N.3    81  VAL81      -0.1231
     88  CA         6.1210   -6.0890   11.2160 C.3    81  VAL81       0.1692
     89  C          7.1760   -7.1720   11.0660 C.2    81  VAL81       0.2591
     90  O          6.8930   -8.3470   11.3320 O.2    81  VAL81      -0.2718
     91  CB         5.8870   -5.7750   12.7110 C.3    81  VAL81       0.0266
     92  CG1        7.1930   -5.3570   13.3910 C.3    81  VAL81       0.0020
     93  CG2        4.8420   -4.6820   12.8640 C.3    81  VAL81       0.0020
     94  N          8.3800   -6.7920   10.6340 N.am   82  VAL82      -0.1980
     95  CA         9.4410   -7.7750   10.3670 C.3    82  VAL82       0.1595
     96  C          9.5210   -8.7900   11.5200 C.2    82  VAL82       0.2287
     97  O          9.5620   -8.4080   12.6960 O.2    82  VAL82      -0.2864
     98  CB        10.8020   -7.0820   10.0510 C.3    82  VAL82       0.0276
     99  CG1       11.3850   -6.3990   11.2830 C.3    82  VAL82       0.0022
    100  CG2       11.7890   -8.0600    9.4100 C.3    82  VAL82       0.0022
    101  N         20.9830  -11.2920   16.0870 N.3    97  VAL97      -0.1245
    102  CA        19.5380  -11.1080   16.0980 C.3    97  VAL97       0.1561
    103  C         19.0170  -11.5590   14.7400 C.2    97  VAL97       0.2260
    104  O         19.4610  -11.0520   13.7080 O.2    97  VAL97      -0.2867
    105  CB        19.1610   -9.6300   16.3760 C.3    97  VAL97       0.0252
    106  CG1       17.6440   -9.4450   16.3810 C.3    97  VAL97       0.0019
    107  CG2       19.7600   -9.1720   17.7140 C.3    97  VAL97       0.0019
    108  N         16.0000  -12.3580   11.9950 N.3    99  THR99      -0.1203
    109  CA        14.6470  -12.0790   11.4950 C.3    99  THR99       0.1994
    110  C         14.3720  -12.8270   10.1920 C.2    99  THR99       0.2618
    111  O         15.3000  -13.2890    9.5250 O.2    99  THR99      -0.2717
    112  CB        14.3740  -10.5610   11.2900 C.3    99  THR99       0.1784
    113  OG1       15.1270  -10.0600   10.1680 O.3    99  THR99      -0.2211
    114  CG2       14.7140   -9.7700   12.5470 C.3    99  THR99       0.0376
    115  N         13.0930  -12.9340    9.8330 N.am  100  GLU100     -0.1965
    116  CA        12.6840  -13.5280    8.5630 C.3   100  GLU100      0.1733
    117  C         13.3030  -12.7760    7.3830 C.2   100  GLU100      0.2616
    118  O         13.4300  -11.5510    7.4110 O.2   100  GLU100     -0.2715
    119  CB        11.1620  -13.5130    8.4370 C.3   100  GLU100      0.0429
    120  CG        10.5730  -12.1020    8.3620 C.3   100  GLU100      0.1163
    121  CD         9.0790  -12.0840    8.1170 C.2   100  GLU100      0.3649
    122  OE1        8.5930  -12.8770    7.2820 O.co2 100  GLU100     -0.2457
    123  OE2        8.3950  -11.2530    8.7550 O.co2 100  GLU100     -0.2457
    124  N         13.6900  -13.5260    6.3550 N.am  101  PHE101     -0.1960
    125  CA        14.1930  -12.9280    5.1270 C.3   101  PHE101      0.1771
    126  C         13.0230  -12.5930    4.2170 C.2   101  PHE101      0.2620
    127  O         12.1260  -13.4240    4.0050 O.2   101  PHE101     -0.2715
    128  CB        15.1500  -13.8860    4.4140 C.3   101  PHE101      0.0574
    129  CG        15.7890  -13.3090    3.1800 C.ar  101  PHE101     -0.0200
    130  CD1       16.7830  -12.3390    3.2850 C.ar  101  PHE101     -0.0042
    131  CD2       15.4090  -13.7510    1.9120 C.ar  101  PHE101     -0.0042
    132  CE1       17.3800  -11.8000    2.1470 C.ar  101  PHE101     -0.0003
    133  CE2       16.0040  -13.2170    0.7700 C.ar  101  PHE101     -0.0003
    134  CZ        16.9880  -12.2470    0.8890 C.ar  101  PHE101     -0.0000
    135  N         13.0580  -11.3770    3.6770 N.am  102  CYS102     -0.1954
    136  CA        12.0290  -10.8900    2.7630 C.3   102  CYS102      0.1843
    137  C         12.5990  -10.8050    1.3530 C.2   102  CYS102      0.2625
    138  O         13.3920   -9.9150    1.0400 O.2   102  CYS102     -0.2714
    139  CB        11.4880   -9.5410    3.2340 C.3   102  CYS102      0.0997
    140  SG        10.7140   -9.6570    4.8720 S.3   102  CYS102     -0.0797
    141  N         12.1630  -11.7460    0.5170 N.am  103  LYS103     -0.1977
    142  CA        12.7530  -12.0290   -0.7950 C.3   103  LYS103      0.1596
    143  C         12.9860  -10.8070   -1.6920 C.2   103  LYS103      0.2287
    144  O         14.0090  -10.7150   -2.3810 O.2   103  LYS103     -0.2864
    145  CB        11.8740  -13.0600   -1.5210 C.3   103  LYS103      0.0298
    146  CG        12.2850  -13.4100   -2.9340 C.3   103  LYS103      0.0038
    147  CD        11.3910  -14.5110   -3.4890 C.3   103  LYS103      0.0206
    148  CE        11.6070  -14.6920   -4.9800 C.3   103  LYS103      0.1093
    149  NZ        10.7980  -15.8290   -5.5060 N.3   103  LYS103     -0.1314
    150  N         13.1850   -7.5190   -0.8940 N.3   105  GLY105     -0.1225
    151  CA        13.9150   -6.3780   -0.3430 C.3   105  GLY105      0.1811
    152  C         13.0260   -5.1760   -0.0740 C.2   105  GLY105      0.2280
    153  O         11.8150   -5.3120    0.0610 O.2   105  GLY105     -0.2866
    154  N          1.5080   -1.3670   15.9070 N.3   152  LEU152     -0.1245
    155  CA         2.5790   -0.7100   16.6610 C.3   152  LEU152      0.1561
    156  C          2.0310    0.3270   17.6430 C.2   152  LEU152      0.2260
    157  O          2.4910    0.4030   18.7840 O.2   152  LEU152     -0.2867
    158  CB         3.6330   -0.1040   15.7270 C.3   152  LEU152      0.0270
    159  CG         4.5320   -1.1060   14.9890 C.3   152  LEU152      0.0019
    160  CD1        5.4720   -0.3750   14.0290 C.3   152  LEU152      0.0001
    161  CD2        5.3320   -1.9730   15.9830 C.3   152  LEU152      0.0001
    162  N          3.9690    2.1110   20.6700 N.3   157  CYS157     -0.1221
    163  CA         5.1770    2.4350   19.9210 C.3   157  CYS157      0.1808
    164  C          4.9640    3.6060   18.9710 C.2   157  CYS157      0.2601
    165  O          3.8450    3.8550   18.5150 O.2   157  CYS157     -0.2717
    166  CB         5.6340    1.2300   19.1030 C.3   157  CYS157      0.0970
    167  SG         6.1550   -0.1740   20.0840 S.3   157  CYS157     -0.0800
    168  N          6.0580    4.3110   18.6920 N.am  158  ILE158     -0.1965
    169  CA         6.1290    5.3410   17.6580 C.3   158  ILE158      0.1727
    170  C          7.3290    4.9860   16.7740 C.2   158  ILE158      0.2616
    171  O          8.4410    4.7870   17.2810 O.2   158  ILE158     -0.2715
    172  CB         6.3110    6.7560   18.2650 C.3   158  ILE158      0.0290
    173  CG1        5.1510    7.0950   19.2150 C.3   158  ILE158      0.0022
    174  CG2        6.4270    7.8150   17.1610 C.3   158  ILE158      0.0023
    175  CD1        5.4670    8.2090   20.2180 C.3   158  ILE158      0.0001
    176  N          7.1060    4.8910   15.4650 N.am  159  HIS159     -0.1973
    177  CA         8.1570    4.4410   14.5510 C.3   159  HIS159      0.1656
    178  C          9.2650    5.4850   14.3700 C.2   159  HIS159      0.2291
    179  O         10.4480    5.1680   14.5240 O.2   159  HIS159     -0.2864
    180  CB         7.5750    4.0320   13.1910 C.3   159  HIS159      0.0771
    181  CG         8.5510    3.3100   12.3130 C.ar  159  HIS159      0.0820
    182  ND1        9.6020    3.9470   11.6860 N.ar  159  HIS159     -0.2267
    183  CD2        8.6440    2.0040   11.9700 C.ar  159  HIS159      0.1154
    184  CE1       10.2960    3.0630   10.9900 C.ar  159  HIS159      0.1986
    185  NE2        9.7360    1.8770   11.1460 N.ar  159  HIS159     -0.2212
    186  N          9.6950   -3.8910    3.9180 N.3   168  LEU168     -0.1245
    187  CA        10.2560   -5.0450    3.2230 C.3   168  LEU168      0.1561
    188  C          9.1390   -5.8380    2.5570 C.2   168  LEU168      0.2260
    189  O          8.0560   -5.9850    3.1220 O.2   168  LEU168     -0.2867
    190  CB        11.0250   -5.9430    4.1990 C.3   168  LEU168      0.0270
    191  CG        12.3480   -5.3870    4.7370 C.3   168  LEU168      0.0019
    192  CD1       12.7700   -6.0860    6.0300 C.3   168  LEU168      0.0001
    193  CD2       13.4260   -5.4960    3.6810 C.3   168  LEU168      0.0001
    194  N          6.9390   -3.8670    8.1100 N.3   177  ILE177     -0.1231
    195  CA         7.5580   -2.6570    8.6270 C.3   177  ILE177      0.1692
    196  C          8.8410   -3.0250    9.3660 C.2   177  ILE177      0.2592
    197  O          8.8510   -3.9360   10.2040 O.2   177  ILE177     -0.2718
    198  CB         6.6130   -1.9100    9.6010 C.3   177  ILE177      0.0266
    199  CG1        5.3290   -1.4820    8.8780 C.3   177  ILE177      0.0019
    200  CG2        7.3140   -0.6890   10.2090 C.3   177  ILE177      0.0020
    201  CD1        4.2330   -1.0100    9.8160 C.3   177  ILE177      0.0001
    202  N          9.9210   -2.3220    9.0380 N.am  178  CYS178     -0.1956
    203  CA        11.1570   -2.4370    9.8090 C.3   178  CYS178      0.1843
    204  C         11.7580   -1.0670   10.1340 C.2   178  CYS178      0.2625
    205  O         11.2010   -0.0250    9.7810 O.2   178  CYS178     -0.2714
    206  CB        12.1790   -3.3220    9.0940 C.3   178  CYS178      0.0997
    207  SG        12.7520   -2.6930    7.5190 S.3   178  CYS178     -0.0797
    208  N         12.8950   -1.0890   10.8200 N.am  179  ASP179     -0.1957
    209  CA        13.6850    0.1080   11.0280 C.3   179  ASP179      0.1840
    210  C         15.1400   -0.2550   10.7790 C.2   179  ASP179      0.2622
    211  O         15.7810   -0.8940   11.6190 O.2   179  ASP179     -0.2715
    212  CB        13.4820    0.6500   12.4390 C.3   179  ASP179      0.1450
    213  CG        14.1770    1.9860   12.6650 C.2   179  ASP179      0.3671
    214  OD1       13.9630    2.5660   13.7470 O.co2 179  ASP179     -0.2456
    215  OD2       14.9290    2.4470   11.7770 O.co2 179  ASP179     -0.2456
    216  N         15.6350    0.1340    9.6080 N.am  180  PHE180     -0.1974
    217  CA        17.0180   -0.1270    9.2100 C.3   180  PHE180      0.1639
    218  C         18.0120    0.6970   10.0310 C.2   180  PHE180      0.2290
    219  O         19.2250    0.4780    9.9450 O.2   180  PHE180     -0.2864
    220  CB        17.2160    0.1530    7.7160 C.3   180  PHE180      0.0560
    221  CG        16.7270   -0.9440    6.8140 C.ar  180  PHE180     -0.0200
    222  CD1       17.4700   -2.1030    6.6400 C.ar  180  PHE180     -0.0042
    223  CD2       15.5350   -0.8050    6.1120 C.ar  180  PHE180     -0.0042
    224  CE1       17.0240   -3.1150    5.7920 C.ar  180  PHE180     -0.0003
    225  CE2       15.0810   -1.8130    5.2620 C.ar  180  PHE180     -0.0003
    226  CZ        15.8270   -2.9730    5.1060 C.ar  180  PHE180     -0.0000
@<TRIPOS>BOND
     1   149   148    1
     2   148   147    1
     3   147   146    1
     4   146   145    1
     5   144   143    2
     6   143   142    1
     7     8     7    1
     8     8     9    1
     9     7     6    1
    10   145   142    1
    11   150   151    1
    12   142   141    1
    13   151   152    1
    14     6     5    1
    15   152   153    2
    16     5     2    1
    17   141   137   am
    18   133   134   ar
    19   133   131   ar
    20   134   132   ar
    21   138   137    2
    22     2     1    1
    23     2     3    1
    24   137   136    1
    25   131   129   ar
    26    17    15    1
    27   132   130   ar
    28     3     4    2
    29   188   189    2
    30   188   187    1
    31   136   139    1
    32   136   135    1
    33    13    12    2
    34    11    12    1
    35    11    10    1
    36    11    14    1
    37   129   130   ar
    38   129   128    1
    39   187   186    1
    40   187   190    1
    41   139   140    1
    42    12    18   am
    43    15    14    1
    44    15    16    1
    45   135   126   am
    46   193   191    1
    47   127   126    2
    48   190   191    1
    49   126   125    1
    50    18    19    1
    51   128   125    1
    52   191   192    1
    53    19    20    1
    54   226   225   ar
    55   226   224   ar
    56   125   124    1
    57   225   223   ar
    58   224   222   ar
    59    20    21    2
    60   223   221   ar
    61    36    35    2
    62   124   117   am
    63   222   221   ar
    64   221   220    1
    65   122   121   ar
    66    35    34    1
    67   117   118    2
    68   117   116    1
    69    44    41    1
    70   207   206    1
    71   220   217    1
    72    40    41    1
    73    41    42    1
    74    38    37    1
    75   194   195    1
    76   121   120    1
    77   121   123   ar
    78    37    34    1
    79    37    39    1
    80   120   119    1
    81   119   116    1
    82    34    33    1
    83   116   115    1
    84   195   196    1
    85   195   198    1
    86   199   198    1
    87   199   201    1
    88   202   196   am
    89   202   203    1
    90   206   203    1
    91   217   216    1
    92   217   218    1
    93    42    43    2
    94   196   197    2
    95   100    98    1
    96   111   110    2
    97   198   200    1
    98   216   210   am
    99   205   204    2
   100   203   204    1
   101   115   110   am
   102   219   218    2
   103    98    95    1
   104    98    99    1
   105   204   208   am
   106   113   112    1
   107   110   109    1
   108    95    94    1
   109    95    96    1
   110    87    88    1
   111    94    89   am
   112   210   209    1
   113   210   211    2
   114   208   209    1
   115   184   185   ar
   116   184   182   ar
   117   209   212    1
   118    89    88    1
   119    89    90    2
   120   185   183   ar
   121    88    91    1
   122    32    31   ar
   123    32    30   ar
   124   112   109    1
   125   112   114    1
   126   109   108    1
   127    96    97    2
   128   182   181   ar
   129   215   213   ar
   130    31    29   ar
   131   183   181   ar
   132    45    46    1
   133    30    28   ar
   134   181   180    1
   135    46    49    1
   136    46    47    1
   137   212   213    1
   138    52    53    1
   139    52    51    1
   140   213   214   ar
   141    91    93    1
   142    91    92    1
   143    49    50    1
   144    29    27   ar
   145   180   177    1
   146    28    27   ar
   147    50    51    1
   148    47    48    2
   149   104   103    2
   150    27    26    1
   151   160   159    1
   152    22    23    1
   153   178   179    2
   154   178   177    1
   155   177   176    1
   156    24    23    1
   157    24    25    2
   158   103   102    1
   159   159   158    1
   160   159   161    1
   161    62    60   ar
   162    23    26    1
   163   176   170   am
   164   158   155    1
   165   154   155    1
   166    78    76    1
   167   101   102    1
   168   102   105    1
   169    60    61   ar
   170    60    59    1
   171    77    76    1
   172   105   106    1
   173   105   107    1
   174   155   156    1
   175   170   171    2
   176   170   169    1
   177    76    75    1
   178   174   172    1
   179    59    58    1
   180   156   157    2
   181   169   172    1
   182   169   168    1
   183    75    72    1
   184   172   173    1
   185    85    83    1
   186   165   164    2
   187    86    84    1
   188   168   164   am
   189    58    55    1
   190   164   163    1
   191   166   163    1
   192   166   167    1
   193    72    73    1
   194    72    71    1
   195   173   175    1
   196    83    84    1
   197    83    80    1
   198    74    73    2
   199    57    56    2
   200   163   162    1
   201    55    56    1
   202    55    54    1
   203    71    65   am
   204    81    82    2
   205    81    80    1
   206    69    67    1
   207    80    79    1
   208    65    66    2
   209    65    64    1
   210    67    64    1
   211    67    68    1
   212    64    63    1
   213    70    68    1
