@<TRIPOS>MOLECULE
tmp/3ewjB00.pdb
 210 205 0 0 0
SMALL
GASTEIGER

@<TRIPOS>ATOM
      1  N         42.0630   27.1050   36.7620 N.3   127  GLY127     -0.1210
      2  CA        42.4300   27.1670   38.1650 C.3   127  GLY127      0.1956
      3  C         43.1140   28.4390   38.6430 C.2   127  GLY127      0.2613
      4  O         43.7070   28.4650   39.7260 O.2   127  GLY127     -0.2717
      5  N         43.0040   29.5120   37.8680 N.am  128  THR128     -0.1938
      6  CA        43.5790   30.7920   38.2960 C.3   128  THR128      0.2028
      7  C         42.7700   31.3300   39.4680 C.2   128  THR128      0.2642
      8  O         41.5450   31.2350   39.4770 O.2   128  THR128     -0.2714
      9  CB        43.5900   31.7990   37.1410 C.3   128  THR128      0.1808
     10  OG1       44.4920   31.3410   36.1360 O.3   128  THR128     -0.2208
     11  CG2       44.0220   33.1620   37.6250 C.3   128  THR128      0.0379
     12  N         43.4540   31.9270   40.4370 N.am  129  LEU129     -0.1963
     13  CA        42.7970   32.4560   41.6390 C.3   129  LEU129      0.1728
     14  C         42.8770   33.9600   41.8280 C.2   129  LEU129      0.2617
     15  O         42.0930   34.5300   42.5710 O.2   129  LEU129     -0.2715
     16  CB        43.4070   31.8160   42.8700 C.3   129  LEU129      0.0311
     17  CG        43.1860   30.3060   42.9700 C.3   129  LEU129      0.0022
     18  CD1       44.2150   29.7250   43.9400 C.3   129  LEU129      0.0001
     19  CD2       41.7860   30.0810   43.4500 C.3   129  LEU129      0.0001
     20  N         43.8770   34.6050   41.2450 N.am  130  GLY130     -0.1940
     21  CA        44.0010   36.0400   41.4770 C.3   130  GLY130      0.2014
     22  C         44.9590   36.6380   40.4740 C.2   130  GLY130      0.2639
     23  O         45.5040   35.9190   39.6530 O.2   130  GLY130     -0.2714
     24  N         45.1460   37.9490   40.5290 N.am  131  LEU131     -0.1963
     25  CA        46.0450   38.6220   39.6020 C.3   131  LEU131      0.1728
     26  C         46.3890   39.9760   40.2010 C.2   131  LEU131      0.2616
     27  O         45.5910   40.5540   40.9430 O.2   131  LEU131     -0.2715
     28  CB        45.3470   38.8010   38.2530 C.3   131  LEU131      0.0311
     29  CG        46.2180   39.3790   37.1360 C.3   131  LEU131      0.0022
     30  CD1       47.2800   38.3540   36.7130 C.3   131  LEU131      0.0001
     31  CD2       45.3470   39.7970   35.9640 C.3   131  LEU131      0.0001
     32  N         47.5950   40.4640   39.9320 N.am  132  ALA132     -0.1977
     33  CA        47.9910   41.7560   40.4730 C.3   132  ALA132      0.1597
     34  C         49.1100   42.3490   39.6190 C.2   132  ALA132      0.2287
     35  O         49.8220   41.6190   38.9200 O.2   132  ALA132     -0.2864
     36  CB        48.4530   41.6130   41.9240 C.3   132  ALA132      0.0319
     37  N         36.9100   28.3320   43.1030 N.3   170  ASN170     -0.1240
     38  CA        37.7620   27.5950   42.1850 C.3   170  ASN170      0.1653
     39  C         37.1620   26.2120   41.9670 C.2   170  ASN170      0.2266
     40  O         36.7120   25.5590   42.9160 O.2   170  ASN170     -0.2867
     41  CB        39.1950   27.4940   42.7220 C.3   170  ASN170      0.1155
     42  CG        40.2090   27.2330   41.6320 C.2   170  ASN170      0.2627
     43  OD1       39.9450   27.4580   40.4540 O.2   170  ASN170     -0.2716
     44  ND2       41.3890   26.7770   42.0200 N.am  170  ASN170     -0.0877
     45  N         36.9620   28.1210   48.0750 N.3   175  ILE175     -0.1245
     46  CA        38.2570   27.6450   48.5390 C.3   175  ILE175      0.1561
     47  C         38.2650   27.8410   50.0500 C.2   175  ILE175      0.2260
     48  O         37.4300   28.5510   50.5960 O.2   175  ILE175     -0.2867
     49  CB        39.4330   28.3960   47.8740 C.3   175  ILE175      0.0252
     50  CG1       39.3740   29.8840   48.2320 C.3   175  ILE175      0.0019
     51  CG2       39.3900   28.1980   46.3270 C.3   175  ILE175      0.0019
     52  CD1       40.5830   30.6940   47.6740 C.3   175  ILE175      0.0001
     53  N         43.3770   29.1640   52.2870 N.3   179  GLU179     -0.1245
     54  CA        43.8210   29.2950   50.9020 C.3   179  GLU179      0.1567
     55  C         43.5800   30.7390   50.4090 C.2   179  GLU179      0.2260
     56  O         44.4310   31.3150   49.7080 O.2   179  GLU179     -0.2867
     57  CB        43.0680   28.2740   50.0200 C.3   179  GLU179      0.0388
     58  CG        43.5650   26.8480   50.2640 C.3   179  GLU179      0.1160
     59  CD        42.6850   25.7270   49.6830 C.2   179  GLU179      0.3649
     60  OE1       41.5100   25.9650   49.3200 O.co2 179  GLU179     -0.2457
     61  OE2       43.1550   24.5670   49.7180 O.co2 179  GLU179     -0.2457
     62  N         46.2570   32.9760   51.5510 N.3   182  LEU182     -0.1231
     63  CA        47.4760   32.7870   50.7440 C.3   182  LEU182      0.1693
     64  C         47.4080   33.5240   49.4000 C.2   182  LEU182      0.2591
     65  O         48.3900   34.1040   48.9650 O.2   182  LEU182     -0.2718
     66  CB        47.7290   31.3020   50.4730 C.3   182  LEU182      0.0284
     67  CG        48.0230   30.3130   51.6290 C.3   182  LEU182      0.0019
     68  CD1       48.0080   28.8730   51.1170 C.3   182  LEU182      0.0001
     69  CD2       49.3320   30.6160   52.3060 C.3   182  LEU182      0.0001
     70  N         46.2670   33.4430   48.7280 N.am  183  VAL183     -0.1980
     71  CA        46.0900   34.1080   47.4320 C.3   183  VAL183      0.1595
     72  C         46.2520   35.6090   47.6250 C.2   183  VAL183      0.2287
     73  O         46.9750   36.2710   46.8920 O.2   183  VAL183     -0.2864
     74  CB        44.6920   33.8090   46.8130 C.3   183  VAL183      0.0276
     75  CG1       44.4520   34.6700   45.5270 C.3   183  VAL183      0.0022
     76  CG2       44.5360   32.3340   46.4860 C.3   183  VAL183      0.0022
     77  N         49.8010   36.5260   48.3600 N.3   186  HIS186     -0.1226
     78  CA        50.5810   36.3650   47.1190 C.3   186  HIS186      0.1752
     79  C         50.3720   37.5410   46.1630 C.2   186  HIS186      0.2595
     80  O         51.3330   38.1090   45.6310 O.2   186  HIS186     -0.2718
     81  CB        50.1510   35.0540   46.4400 C.3   186  HIS186      0.0759
     82  CG        50.8800   34.7520   45.1660 C.ar  186  HIS186      0.0818
     83  ND1       51.9050   33.8320   45.1020 N.ar  186  HIS186     -0.2268
     84  CD2       50.6760   35.1800   43.8920 C.ar  186  HIS186      0.1154
     85  CE1       52.3250   33.7320   43.8530 C.ar  186  HIS186      0.1986
     86  NE2       51.5850   34.5220   43.0980 N.ar  186  HIS186     -0.2212
     87  N         49.1170   37.9330   45.9760 N.am  187  GLU187     -0.1979
     88  CA        48.7940   39.0290   45.0660 C.3   187  GLU187      0.1602
     89  C         49.3590   40.3530   45.6020 C.2   187  GLU187      0.2287
     90  O         49.9430   41.1390   44.8500 O.2   187  GLU187     -0.2864
     91  CB        47.2820   39.1140   44.8080 C.3   187  GLU187      0.0415
     92  CG        46.6650   37.8520   44.1460 C.3   187  GLU187      0.1163
     93  CD        47.4020   37.3790   42.9080 C.2   187  GLU187      0.3649
     94  OE1       48.1360   38.1670   42.2750 O.co2 187  GLU187     -0.2457
     95  OE2       47.2620   36.1910   42.5740 O.co2 187  GLU187     -0.2457
     96  N         53.0460   40.4910   44.9350 N.3   190  HIS190     -0.1241
     97  CA        53.3410   41.0750   43.6250 C.3   190  HIS190      0.1621
     98  C         53.2690   42.6190   43.7010 C.2   190  HIS190      0.2264
     99  O         54.1640   43.3270   43.2040 O.2   190  HIS190     -0.2867
    100  CB        52.3490   40.5630   42.5770 C.3   190  HIS190      0.0745
    101  CG        52.6460   39.1710   42.0980 C.ar  190  HIS190      0.0817
    102  ND1       53.8990   38.7870   41.6670 N.ar  190  HIS190     -0.2268
    103  CD2       51.8460   38.0900   41.9410 C.ar  190  HIS190      0.1154
    104  CE1       53.8590   37.5300   41.2590 C.ar  190  HIS190      0.1986
    105  NE2       52.6240   37.0850   41.4100 N.ar  190  HIS190     -0.2212
    106  N         57.7530   35.7090   41.1630 N.3   196  HIS196     -0.1241
    107  CA        57.6390   34.3360   41.6650 C.3   196  HIS196      0.1621
    108  C         58.9610   33.7760   42.1230 C.2   196  HIS196      0.2264
    109  O         60.0190   34.1250   41.5930 O.2   196  HIS196     -0.2867
    110  CB        57.0620   33.4300   40.5750 C.3   196  HIS196      0.0745
    111  CG        55.6090   33.6620   40.3220 C.ar  196  HIS196      0.0817
    112  ND1       54.9950   33.3590   39.1230 N.ar  196  HIS196     -0.2268
    113  CD2       54.6360   34.1460   41.1350 C.ar  196  HIS196      0.1154
    114  CE1       53.7080   33.6680   39.2010 C.ar  196  HIS196      0.1986
    115  NE2       53.4660   34.1350   40.4160 N.ar  196  HIS196     -0.2212
    116  N         57.2080   25.0690   50.1460 N.3   213  LYS213     -0.1231
    117  CA        57.4080   26.2790   49.3490 C.3   213  LYS213      0.1693
    118  C         56.9490   27.5340   50.0830 C.2   213  LYS213      0.2592
    119  O         56.1130   27.4730   51.0010 O.2   213  LYS213     -0.2718
    120  CB        56.6360   26.1730   48.0180 C.3   213  LYS213      0.0285
    121  CG        56.9160   24.8980   47.1670 C.3   213  LYS213      0.0035
    122  CD        58.3940   24.5940   47.0680 C.3   213  LYS213      0.0206
    123  CE        58.6280   23.2780   46.2540 C.3   213  LYS213      0.1093
    124  NZ        60.0840   22.8190   46.2890 N.3   213  LYS213     -0.1314
    125  N         57.4590   28.6740   49.6210 N.am  214  TYR214     -0.1962
    126  CA        57.0970   29.9670   50.1770 C.3   214  TYR214      0.1771
    127  C         55.9010   30.5410   49.4200 C.2   214  TYR214      0.2619
    128  O         55.4950   30.0000   48.4040 O.2   214  TYR214     -0.2715
    129  CB        58.2900   30.9140   50.1570 C.3   214  TYR214      0.0574
    130  CG        59.3460   30.5100   51.1630 C.ar  214  TYR214     -0.0198
    131  CD1       59.1110   30.6440   52.5270 C.ar  214  TYR214     -0.0009
    132  CD2       60.5770   29.9840   50.7530 C.ar  214  TYR214     -0.0009
    133  CE1       60.0700   30.2870   53.4550 C.ar  214  TYR214      0.0417
    134  CE2       61.5500   29.6280   51.6860 C.ar  214  TYR214      0.0417
    135  CZ        61.2900   29.7900   53.0330 C.ar  214  TYR214      0.1957
    136  OH        62.2240   29.4170   53.9830 O.3   214  TYR214     -0.2866
    137  N         55.3090   31.6050   49.9570 N.am  215  VAL215     -0.1977
    138  CA        54.0770   32.1800   49.3900 C.3   215  VAL215      0.1596
    139  C         54.1070   32.6390   47.9290 C.2   215  VAL215      0.2287
    140  O         53.0820   32.5960   47.2240 O.2   215  VAL215     -0.2864
    141  CB        53.4850   33.2530   50.3300 C.3   215  VAL215      0.0276
    142  CG1       54.2670   34.5310   50.2060 C.3   215  VAL215      0.0022
    143  CG2       52.0110   33.4760   50.0000 C.3   215  VAL215      0.0022
    144  N         55.5340   31.1170   45.5480 N.3   217  TYR217     -0.1228
    145  CA        55.7030   29.9590   44.6810 C.3   217  TYR217      0.1721
    146  C         54.7070   30.1410   43.5280 C.2   217  TYR217      0.2437
    147  O         53.6040   30.6620   43.7320 O.2   217  TYR217     -0.2733
    148  CB        55.4540   28.6500   45.4440 C.3   217  TYR217      0.0547
    149  CG        55.9720   27.4490   44.6720 C.ar  217  TYR217     -0.0200
    150  CD1       57.3480   27.2090   44.5500 C.ar  217  TYR217     -0.0009
    151  CD2       55.1010   26.6190   43.9770 C.ar  217  TYR217     -0.0009
    152  CE1       57.8210   26.1160   43.7890 C.ar  217  TYR217      0.0417
    153  CE2       55.5710   25.5200   43.2340 C.ar  217  TYR217      0.0417
    154  CZ        56.9340   25.2890   43.1490 C.ar  217  TYR217      0.1957
    155  OH        57.3940   24.2160   42.4090 O.3   217  TYR217     -0.2866
    156  N         55.1010   29.7800   42.2900 N.am  218  PRO218     -0.2718
    157  CA        54.2040   30.0860   41.1610 C.3   218  PRO218      0.1535
    158  C         52.9590   29.2330   41.0000 C.2   218  PRO218      0.2598
    159  O         52.1220   29.5360   40.1450 O.2   218  PRO218     -0.2715
    160  CB        55.1140   29.9120   39.9330 C.3   218  PRO218      0.0310
    161  CG        56.1470   28.9270   40.3680 C.3   218  PRO218      0.0237
    162  CD        56.4180   29.3120   41.8240 C.3   218  PRO218      0.0939
    163  N         52.8800   28.1310   41.7470 N.am  219  ILE219     -0.1964
    164  CA        51.7370   27.2190   41.6690 C.3   219  ILE219      0.1727
    165  C         50.9720   27.2510   42.9760 C.2   219  ILE219      0.2616
    166  O         51.5690   27.2470   44.0540 O.2   219  ILE219     -0.2715
    167  CB        52.1710   25.7480   41.4210 C.3   219  ILE219      0.0290
    168  CG1       53.0080   25.5970   40.1470 C.3   219  ILE219      0.0022
    169  CG2       50.9410   24.8470   41.3820 C.3   219  ILE219      0.0023
    170  CD1       52.4040   26.2770   38.9110 C.3   219  ILE219      0.0001
    171  N         49.6480   27.2120   42.8710 N.am  220  ALA220     -0.1963
    172  CA        48.7820   27.1570   44.0470 C.3   220  ALA220      0.1728
    173  C         48.1840   25.7570   44.2040 C.2   220  ALA220      0.2616
    174  O         47.1860   25.4090   43.5610 O.2   220  ALA220     -0.2715
    175  CB        47.6690   28.2060   43.9640 C.3   220  ALA220      0.0334
    176  N         48.8040   24.9550   45.0630 N.am  221  VAL221     -0.1963
    177  CA        48.3140   23.6080   45.3460 C.3   221  VAL221      0.1727
    178  C         48.8490   23.1500   46.6970 C.2   221  VAL221      0.2617
    179  O         49.9960   23.4310   47.0340 O.2   221  VAL221     -0.2715
    180  CB        48.6620   22.6040   44.2180 C.3   221  VAL221      0.0290
    181  CG1       50.1430   22.2720   44.2410 C.3   221  VAL221      0.0023
    182  CG2       47.8340   21.3280   44.3670 C.3   221  VAL221      0.0023
    183  N         47.9940   22.5140   47.4940 N.am  222  SER222     -0.1936
    184  CA        48.3990   22.0160   48.8080 C.3   222  SER222      0.2055
    185  C         48.9680   23.1200   49.7000 C.2   222  SER222      0.2643
    186  O         50.1130   23.0210   50.1480 O.2   222  SER222     -0.2714
    187  CB        49.4450   20.9050   48.6280 C.3   222  SER222      0.2130
    188  OG        49.7260   20.2390   49.8520 O.3   222  SER222     -0.2179
    189  N         48.2060   24.1850   49.9230 N.am  223  GLY223     -0.1954
    190  CA        48.7020   25.2850   50.7390 C.3   223  GLY223      0.1869
    191  C         48.6960   24.9720   52.2280 C.2   223  GLY223      0.2309
    192  O         48.2820   25.8220   53.0340 O.2   223  GLY223     -0.2863
    193  N         51.6320   23.5770   54.1660 N.3   225  HIS225     -0.1241
    194  CA        52.9590   23.3920   54.7610 C.3   225  HIS225      0.1621
    195  C         53.3850   24.6740   55.4570 C.2   225  HIS225      0.2264
    196  O         52.9280   25.7680   55.1120 O.2   225  HIS225     -0.2867
    197  CB        53.9810   22.9760   53.6920 C.3   225  HIS225      0.0745
    198  CG        53.5610   21.7650   52.9150 C.ar  225  HIS225      0.0817
    199  ND1       52.6370   21.8190   51.8900 N.ar  225  HIS225     -0.2268
    200  CD2       53.8910   20.4580   53.0550 C.ar  225  HIS225      0.1154
    201  CE1       52.4360   20.6010   51.4160 C.ar  225  HIS225      0.1986
    202  NE2       53.1810   19.7570   52.1080 N.ar  225  HIS225     -0.2212
    203  N         54.4660   27.9040   53.4210 N.3   228  ASN228     -0.1240
    204  CA        53.4980   28.4130   52.4500 C.3   228  ASN228      0.1653
    205  C         52.9810   29.8120   52.7250 C.2   228  ASN228      0.2266
    206  O         52.6330   30.5390   51.7980 O.2   228  ASN228     -0.2867
    207  CB        52.2880   27.4790   52.3390 C.3   228  ASN228      0.1155
    208  CG        52.6390   26.1040   51.8400 C.2   228  ASN228      0.2627
    209  OD1       51.8030   25.1990   51.8910 O.2   228  ASN228     -0.2716
    210  ND2       53.8820   25.9080   51.4290 N.am  228  ASN228     -0.0877
@<TRIPOS>BOND
     1    31    29    1
     2    10     9    1
     3    30    29    1
     4     1     2    1
     5    29    28    1
     6     9    11    1
     7     9     6    1
     8     5     6    1
     9     5     3   am
    10     2     3    1
    11    28    25    1
    12     6     7    1
    13     3     4    2
    14   170   168    1
    15    35    34    2
    16   112   114   ar
    17   112   111   ar
    18   114   115   ar
    19     7     8    2
    20     7    12   am
    21    25    26    1
    22    25    24    1
    23    34    33    1
    24    23    22    2
    25    32    26   am
    26    32    33    1
    27   160   161    1
    28   160   157    1
    29   159   158    2
    30   168   167    1
    31    26    27    2
    32   111   110    1
    33   111   113   ar
    34   161   162    1
    35   115   113   ar
    36    12    13    1
    37    43    42    2
    38    33    36    1
    39    22    24   am
    40    22    21    1
    41   110   107    1
    42   158   157    1
    43   158   163   am
    44   157   156    1
    45   106   107    1
    46    20    21    1
    47    20    14   am
    48   104   105   ar
    49   104   102   ar
    50   169   167    1
    51   105   103   ar
    52   167   164    1
    53   109   108    2
    54    42    44   am
    55    42    41    1
    56    13    14    1
    57    13    16    1
    58   107   108    1
    59   102   101   ar
    60   164   163    1
    61   164   165    1
    62   162   156    1
    63    14    15    2
    64   103   101   ar
    65    39    38    1
    66    39    40    2
    67   101   100    1
    68    38    41    1
    69    38    37    1
    70    94    93   ar
    71   156   146   am
    72   155   154    1
    73    95    93   ar
    74   100    97    1
    75    16    17    1
    76   171   165   am
    77   171   172    1
    78    93    92    1
    79    17    19    1
    80    17    18    1
    81   165   166    2
    82    86    85   ar
    83    86    84   ar
    84   154   153   ar
    85   154   152   ar
    86    99    98    2
    87   153   151   ar
    88   146   147    2
    89   146   145    1
    90   174   173    2
    91    97    98    1
    92    97    96    1
    93   152   150   ar
    94    85    83   ar
    95    84    82   ar
    96   175   172    1
    97   151   149   ar
    98   172   173    1
    99    92    91    1
   100   173   176   am
   101   180   181    1
   102   180   182    1
   103   180   177    1
   104   150   149   ar
   105   149   148    1
   106   145   148    1
   107   145   144    1
   108    91    88    1
   109    90    89    2
   110   176   177    1
   111    88    89    1
   112    88    87    1
   113    83    82   ar
   114    82    81    1
   115   177   178    1
   116    75    74    1
   117    80    79    2
   118    87    79   am
   119    79    78    1
   120   123   124    1
   121   123   122    1
   122    51    49    1
   123    81    78    1
   124    76    74    1
   125   178   179    2
   126   178   183   am
   127    74    71    1
   128    73    72    2
   129   122   121    1
   130    78    77    1
   131   121   120    1
   132   140   139    2
   133    71    72    1
   134    71    70    1
   135   183   184    1
   136    52    50    1
   137    49    50    1
   138    49    46    1
   139   139   138    1
   140   120   117    1
   141    45    46    1
   142   128   127    2
   143    46    47    1
   144   187   184    1
   145   187   188    1
   146    70    64   am
   147   184   185    1
   148    65    64    2
   149    60    59   ar
   150   117   118    1
   151   117   116    1
   152   138   137    1
   153   138   141    1
   154    64    63    1
   155   127   137   am
   156   127   126    1
   157   125   118   am
   158   125   126    1
   159    59    61   ar
   160    59    58    1
   161   185   189   am
   162   185   186    2
   163    56    55    2
   164   189   190    1
   165   143   141    1
   166    57    58    1
   167    57    54    1
   168    47    48    2
   169   118   119    2
   170   129   126    1
   171   129   130    1
   172   142   141    1
   173    55    54    1
   174    66    63    1
   175    66    67    1
   176   190   191    1
   177    63    62    1
   178   132   130   ar
   179   132   134   ar
   180    54    53    1
   181    68    67    1
   182   130   131   ar
   183   201   199   ar
   184   201   202   ar
   185   210   208   am
   186    67    69    1
   187   134   135   ar
   188   206   205    2
   189   208   209    2
   190   208   207    1
   191   199   198   ar
   192   202   200   ar
   193   191   192    2
   194   207   204    1
   195   204   205    1
   196   204   203    1
   197   131   133   ar
   198   198   200   ar
   199   198   197    1
   200   135   133   ar
   201   135   136    1
   202   197   194    1
   203   193   194    1
   204   194   195    1
   205   196   195    2
