@<TRIPOS>MOLECULE
tmp/3ewkA00.pdb
 231 222 0 0 0
SMALL
GASTEIGER

@<TRIPOS>ATOM
      1  N         23.2660  -60.7120   -6.7520 N.3     3  SER3       -0.1217
      2  CA        24.0940  -60.9400   -7.9530 C.3     3  SER3        0.1889
      3  C         25.4870  -60.2790   -7.8570 C.2     3  SER3        0.2288
      4  O         25.7390  -59.3690   -7.0220 O.2     3  SER3       -0.2866
      5  CB        23.3520  -60.4970   -9.2090 C.3     3  SER3        0.2089
      6  OG        23.2420  -59.1190   -9.1260 O.3     3  SER3       -0.2183
      7  N         28.7460  -59.0040  -10.6760 N.3     5  THR5       -0.1218
      8  CA        29.1170  -58.6600  -12.0360 C.3     5  THR5        0.1862
      9  C         30.5790  -58.3260  -12.1020 C.2     5  THR5        0.2287
     10  O         31.1960  -58.0570  -11.0450 O.2     5  THR5       -0.2866
     11  CB        28.2860  -57.4590  -12.5900 C.3     5  THR5        0.1770
     12  OG1       28.7830  -56.2070  -12.0540 O.3     5  THR5       -0.2211
     13  CG2       26.7680  -57.6260  -12.3100 C.3     5  THR5        0.0375
     14  N         33.4860  -55.6330  -13.8440 N.3     7  LEU7       -0.1231
     15  CA        33.4720  -54.2110  -13.8140 C.3     7  LEU7        0.1693
     16  C         32.5040  -53.5920  -14.8200 C.2     7  LEU7        0.2592
     17  O         32.1320  -52.3990  -14.6830 O.2     7  LEU7       -0.2718
     18  CB        34.8870  -53.7030  -14.0290 C.3     7  LEU7        0.0284
     19  CG        35.8270  -53.6400  -12.7660 C.3     7  LEU7        0.0019
     20  CD1       37.1030  -52.8570  -13.1220 C.3     7  LEU7        0.0001
     21  CD2       35.1670  -52.9700  -11.5090 C.3     7  LEU7        0.0001
     22  N         32.1060  -54.3640  -15.8440 N.am    8  GLN8       -0.1966
     23  CA        31.3110  -53.7720  -16.8780 C.3     8  GLN8        0.1733
     24  C         29.8640  -54.0640  -16.6800 C.2     8  GLN8        0.2616
     25  O         29.0430  -53.5080  -17.4320 O.2     8  GLN8       -0.2715
     26  CB        31.7380  -54.1880  -18.2910 C.3     8  GLN8        0.0408
     27  CG        33.0330  -53.5630  -18.7410 C.3     8  GLN8        0.0908
     28  CD        34.2350  -54.1890  -18.0780 C.2     8  GLN8        0.2608
     29  OE1       34.3520  -55.4570  -17.9360 O.2     8  GLN8       -0.2717
     30  NE2       35.1620  -53.3270  -17.6520 N.am    8  GLN8       -0.0878
     31  N         29.5250  -54.9020  -15.6720 N.am    9  GLY9       -0.1955
     32  CA        28.1170  -55.1080  -15.3820 C.3     9  GLY9        0.1869
     33  C         27.6360  -56.4480  -15.9000 C.2     9  GLY9        0.2309
     34  O         26.4950  -56.7900  -15.7740 O.2     9  GLY9       -0.2863
     35  N         24.2330  -58.6750  -19.5880 N.3    33  ASP33      -0.1225
     36  CA        24.4540  -57.3420  -19.0050 C.3    33  ASP33       0.1805
     37  C         23.3740  -57.1860  -17.9390 C.2    33  ASP33       0.2598
     38  O         22.1930  -57.5520  -18.1860 O.2    33  ASP33      -0.2718
     39  CB        24.2440  -56.2370  -20.0440 C.3    33  ASP33       0.1424
     40  CG        24.8060  -54.8970  -19.6090 C.2    33  ASP33       0.3668
     41  OD1       24.4630  -54.2830  -18.4720 O.co2  33  ASP33      -0.2456
     42  OD2       25.6410  -54.4470  -20.4510 O.co2  33  ASP33      -0.2456
     43  N         23.7240  -56.5850  -16.8030 N.am   34  HIS34      -0.1961
     44  CA        22.7240  -56.3960  -15.7230 C.3    34  HIS34       0.1787
     45  C         21.6340  -55.4440  -16.1910 C.2    34  HIS34       0.2620
     46  O         20.5250  -55.3810  -15.6200 O.2    34  HIS34      -0.2715
     47  CB        23.3380  -55.9020  -14.4170 C.3    34  HIS34       0.0785
     48  CG        22.6230  -56.4230  -13.2220 C.ar   34  HIS34       0.0821
     49  ND1       23.2320  -57.2440  -12.2910 N.ar   34  HIS34      -0.2267
     50  CD2       21.3230  -56.3070  -12.8430 C.ar   34  HIS34       0.1154
     51  CE1       22.3380  -57.5940  -11.3820 C.ar   34  HIS34       0.1986
     52  NE2       21.1800  -57.0220  -11.6800 N.ar   34  HIS34      -0.2212
     53  N         21.9400  -54.7170  -17.2640 N.am   35  ARG35      -0.1977
     54  CA        20.8630  -54.0570  -18.0040 C.3    35  ARG35       0.1597
     55  C         19.7040  -55.0050  -18.4340 C.2    35  ARG35       0.2287
     56  O         18.6140  -54.5530  -18.6850 O.2    35  ARG35      -0.2864
     57  CB        21.4720  -53.3360  -19.1810 C.3    35  ARG35       0.0334
     58  CG        20.5920  -52.4810  -20.0220 C.3    35  ARG35       0.0492
     59  CD        21.3000  -52.2970  -21.3660 C.3    35  ARG35       0.2205
     60  NE        22.7210  -51.9180  -21.1930 N.pl3  35  ARG35      -0.0865
     61  CZ        23.0050  -50.6790  -20.8550 C.cat  35  ARG35       0.5346
     62  NH1       21.9320  -49.8950  -20.7400 N.pl3  35  ARG35       0.1354
     63  NH2       24.2620  -50.2310  -20.6690 N.pl3  35  ARG35       0.1354
     64  N         17.5950  -56.7010  -16.7830 N.3    37  VAL37      -0.1231
     65  CA        16.4290  -56.3420  -15.9520 C.3    37  VAL37       0.1692
     66  C         16.1010  -54.8510  -15.9040 C.2    37  VAL37       0.2592
     67  O         15.1410  -54.4680  -15.1960 O.2    37  VAL37      -0.2718
     68  CB        16.5620  -56.8790  -14.4940 C.3    37  VAL37       0.0266
     69  CG1       17.0190  -58.3130  -14.5320 C.3    37  VAL37       0.0020
     70  CG2       17.5800  -56.0410  -13.6310 C.3    37  VAL37       0.0020
     71  N         16.8290  -54.0040  -16.6420 N.am   38  ASN38      -0.1960
     72  CA        16.5320  -52.5610  -16.5590 C.3    38  ASN38       0.1819
     73  C         15.0490  -52.3070  -16.9390 C.2    38  ASN38       0.2622
     74  O         14.3980  -53.1620  -17.5110 O.2    38  ASN38      -0.2715
     75  CB        17.5270  -51.6840  -17.3480 C.3    38  ASN38       0.1195
     76  CG        17.2640  -50.1650  -17.1810 C.2    38  ASN38       0.2630
     77  OD1       17.9970  -49.4250  -16.5280 O.2    38  ASN38      -0.2716
     78  ND2       16.1990  -49.7180  -17.7510 N.am   38  ASN38      -0.0877
     79  N         14.4610  -51.1730  -16.6130 N.am   39  SER39      -0.1950
     80  CA        13.0280  -51.0270  -16.9210 C.3    39  SER39       0.1924
     81  C         12.6630  -49.7170  -17.6620 C.2    39  SER39       0.2314
     82  O         11.5830  -49.5950  -18.2220 O.2    39  SER39      -0.2863
     83  CB        12.2060  -51.1850  -15.6640 C.3    39  SER39       0.2116
     84  OG        12.4550  -50.0600  -14.8690 O.3    39  SER39      -0.2180
     85  N         13.9610  -45.5590  -14.3930 N.3    42  HIS42      -0.1241
     86  CA        14.9540  -44.6140  -13.8420 C.3    42  HIS42       0.1621
     87  C         15.6340  -43.7530  -14.9200 C.2    42  HIS42       0.2264
     88  O         15.9310  -44.2450  -16.0230 O.2    42  HIS42      -0.2867
     89  CB        15.9870  -45.3560  -12.9740 C.3    42  HIS42       0.0745
     90  CG        15.3770  -46.0450  -11.7930 C.ar   42  HIS42       0.0817
     91  ND1       15.1710  -47.4080  -11.7460 N.ar   42  HIS42      -0.2268
     92  CD2       14.8920  -45.5560  -10.6230 C.ar   42  HIS42       0.1154
     93  CE1       14.5700  -47.7290  -10.6110 C.ar   42  HIS42       0.1986
     94  NE2       14.4070  -46.6260   -9.9040 N.ar   42  HIS42      -0.2212
     95  N         18.8220  -41.4160  -16.4110 N.3    44  LYS44      -0.1245
     96  CA        20.2110  -41.7580  -16.6120 C.3    44  LYS44       0.1561
     97  C         21.0780  -41.2270  -15.4780 C.2    44  LYS44       0.2260
     98  O         22.2230  -41.7060  -15.2550 O.2    44  LYS44      -0.2867
     99  CB        20.7190  -41.2190  -17.9770 C.3    44  LYS44       0.0271
    100  CG        19.9130  -41.6640  -19.2140 C.3    44  LYS44       0.0035
    101  CD        20.4280  -42.9650  -19.8380 C.3    44  LYS44       0.0206
    102  CE        19.4420  -43.6820  -20.8280 C.3    44  LYS44       0.1093
    103  NZ        18.1410  -44.1930  -20.1990 N.3    44  LYS44      -0.1314
    104  N         21.2980  -43.7000  -12.7010 N.3    47  ILE47      -0.1231
    105  CA        22.2130  -44.7950  -13.0460 C.3    47  ILE47       0.1692
    106  C         23.6340  -44.3120  -12.9800 C.2    47  ILE47       0.2591
    107  O         24.4990  -44.9930  -12.4310 O.2    47  ILE47      -0.2718
    108  CB        21.8460  -45.4960  -14.4670 C.3    47  ILE47       0.0266
    109  CG1       21.0640  -46.7960  -14.2730 C.3    47  ILE47       0.0019
    110  CG2       23.0900  -45.8400  -15.2670 C.3    47  ILE47       0.0020
    111  CD1       19.6500  -46.6180  -13.8310 C.3    47  ILE47       0.0001
    112  N         23.8580  -43.1290  -13.5500 N.am   48  ARG48      -0.1980
    113  CA        25.1920  -42.4580  -13.5560 C.3    48  ARG48       0.1597
    114  C         25.7340  -42.1660  -12.1590 C.2    48  ARG48       0.2287
    115  O         26.9010  -42.4160  -11.9050 O.2    48  ARG48      -0.2864
    116  CB        25.1590  -41.1710  -14.3600 C.3    48  ARG48       0.0334
    117  CG        26.4890  -40.3890  -14.3530 C.3    48  ARG48       0.0492
    118  CD        26.4200  -39.1260  -15.2010 C.3    48  ARG48       0.2205
    119  NE        25.5770  -39.3130  -16.4010 N.pl3  48  ARG48      -0.0865
    120  CZ        24.4110  -38.6860  -16.6370 C.cat  48  ARG48       0.5346
    121  NH1       23.9250  -37.7810  -15.7790 N.pl3  48  ARG48       0.1354
    122  NH2       23.7300  -38.9580  -17.7520 N.pl3  48  ARG48       0.1354
    123  N         24.8370  -43.9480   -9.4580 N.3    50  MET50      -0.1230
    124  CA        25.1370  -45.3010   -8.9360 C.3    50  MET50       0.1702
    125  C         26.5810  -45.8030   -9.3050 C.2    50  MET50       0.2592
    126  O         27.3990  -46.1370   -8.4360 O.2    50  MET50      -0.2718
    127  CB        24.0560  -46.2210   -9.4270 C.3    50  MET50       0.0401
    128  CG        23.9820  -47.5440   -8.7860 C.3    50  MET50       0.0596
    129  SD        25.4040  -48.4770   -9.2850 S.3    50  MET50      -0.1393
    130  CE        24.8260  -49.3800  -10.7450 C.3    50  MET50       0.0692
    131  N         26.9030  -45.7200  -10.6010 N.am   51  TRP51      -0.1962
    132  CA        28.1520  -46.1850  -11.1790 C.3    51  TRP51       0.1771
    133  C         29.2750  -45.2760  -10.7630 C.2    51  TRP51       0.2619
    134  O         30.4350  -45.7250  -10.5780 O.2    51  TRP51      -0.2715
    135  CB        28.0480  -46.1260  -12.7140 C.3    51  TRP51       0.0590
    136  CG        27.4440  -47.3450  -13.3380 C.ar   51  TRP51       0.0006
    137  CD1       26.2250  -47.4520  -13.8870 C.ar   51  TRP51       0.0946
    138  CD2       28.0740  -48.6270  -13.4800 C.ar   51  TRP51       0.0152
    139  NE1       26.0110  -48.7420  -14.3090 N.ar   51  TRP51      -0.2442
    140  CE2       27.1600  -49.4650  -14.1110 C.ar   51  TRP51       0.0810
    141  CE3       29.3580  -49.1400  -13.1470 C.ar   51  TRP51       0.0012
    142  CZ2       27.4660  -50.7800  -14.4300 C.ar   51  TRP51       0.0191
    143  CZ3       29.6360  -50.4490  -13.4180 C.ar   51  TRP51       0.0001
    144  CH2       28.6960  -51.2580  -14.0770 C.ar   51  TRP51       0.0015
    145  N         28.9570  -43.9820  -10.6770 N.am   52  ARG52      -0.1977
    146  CA        29.9180  -43.0250  -10.1350 C.3    52  ARG52       0.1597
    147  C         30.2250  -43.2540   -8.6830 C.2    52  ARG52       0.2287
    148  O         31.3510  -43.0080   -8.2790 O.2    52  ARG52      -0.2864
    149  CB        29.5140  -41.5880  -10.3500 C.3    52  ARG52       0.0334
    150  CG        29.9470  -41.0730  -11.7340 C.3    52  ARG52       0.0492
    151  CD        30.5610  -39.6590  -11.6410 C.3    52  ARG52       0.2205
    152  NE        30.0200  -38.7490  -12.6630 N.pl3  52  ARG52      -0.0865
    153  CZ        29.3180  -37.6380  -12.3960 C.cat  52  ARG52       0.5346
    154  NH1       29.0940  -37.2720  -11.1310 N.pl3  52  ARG52       0.1354
    155  NH2       28.8630  -36.8710  -13.4030 N.pl3  52  ARG52       0.1354
    156  N         29.9280  -46.4770   -6.9950 N.3    54  ILE54      -0.1231
    157  CA        30.5750  -47.8150   -6.8240 C.3    54  ILE54       0.1692
    158  C         31.9790  -47.9490   -7.4350 C.2    54  ILE54       0.2592
    159  O         32.8350  -48.6810   -6.9270 O.2    54  ILE54      -0.2718
    160  CB        29.6460  -49.0010   -7.3300 C.3    54  ILE54       0.0266
    161  CG1       29.3390  -48.8900   -8.8610 C.3    54  ILE54       0.0019
    162  CG2       28.4030  -49.1130   -6.4540 C.3    54  ILE54       0.0020
    163  CD1       28.8720  -50.1600   -9.4850 C.3    54  ILE54       0.0001
    164  N         32.2030  -47.2550   -8.5450 N.am   55  SER55      -0.1952
    165  CA        33.4790  -47.3630   -9.2580 C.3    55  SER55       0.1924
    166  C         34.6020  -46.6060   -8.5490 C.2    55  SER55       0.2314
    167  O         35.7980  -46.9080   -8.7330 O.2    55  SER55      -0.2863
    168  CB        33.3160  -46.8740  -10.6800 C.3    55  SER55       0.2116
    169  OG        32.7790  -45.5760  -10.6910 O.3    55  SER55      -0.2180
    170  N         15.3570  -50.0730   -6.9540 N.3    64  PHE64      -0.1227
    171  CA        15.3200  -50.3130   -8.3790 C.3    64  PHE64       0.1736
    172  C         13.9550  -50.8070   -8.7790 C.2    64  PHE64       0.2596
    173  O         13.4130  -51.7490   -8.1970 O.2    64  PHE64      -0.2718
    174  CB        16.3690  -51.3480   -8.7940 C.3    64  PHE64       0.0547
    175  CG        17.6970  -50.7570   -9.1200 C.ar   64  PHE64      -0.0202
    176  CD1       18.8480  -51.1640   -8.4300 C.ar   64  PHE64      -0.0042
    177  CD2       17.8090  -49.7970  -10.1050 C.ar   64  PHE64      -0.0042
    178  CE1       20.0860  -50.5820   -8.7030 C.ar   64  PHE64      -0.0003
    179  CE2       19.0550  -49.1930  -10.3740 C.ar   64  PHE64      -0.0003
    180  CZ        20.1860  -49.5920   -9.7000 C.ar   64  PHE64      -0.0000
    181  N         13.3890  -50.1520   -9.7720 N.am   65  CYS65      -0.1956
    182  CA        12.2340  -50.7080  -10.4090 C.3    65  CYS65       0.1843
    183  C         12.7570  -51.4880  -11.6230 C.2    65  CYS65       0.2625
    184  O         13.3550  -50.9040  -12.5550 O.2    65  CYS65      -0.2714
    185  CB        11.3130  -49.5730  -10.8280 C.3    65  CYS65       0.0997
    186  SG         9.7890  -50.0910  -11.6340 S.3    65  CYS65      -0.0797
    187  N         12.5520  -52.8080  -11.5900 N.am   66  ASN66      -0.1972
    188  CA        13.1030  -53.6860  -12.6390 C.3    66  ASN66       0.1688
    189  C         12.0130  -54.3670  -13.4830 C.2    66  ASN66       0.2292
    190  O         10.8730  -54.3540  -13.0880 O.2    66  ASN66      -0.2864
    191  CB        14.0760  -54.7150  -12.0250 C.3    66  ASN66       0.1181
    192  CG        15.3910  -54.0920  -11.5230 C.2    66  ASN66       0.2629
    193  OD1       15.7830  -52.9640  -11.8870 O.2    66  ASN66      -0.2716
    194  ND2       16.0990  -54.8620  -10.7170 N.am   66  ASN66      -0.0877
    195  N         24.7790  -52.0560   -3.2580 N.3    80  ILE80      -0.1245
    196  CA        25.8790  -52.5340   -4.1460 C.3    80  ILE80       0.1561
    197  C         27.2340  -52.1530   -3.5870 C.2    80  ILE80       0.2260
    198  O         27.5310  -50.9690   -3.2900 O.2    80  ILE80      -0.2867
    199  CB        25.7650  -52.0400   -5.6550 C.3    80  ILE80       0.0252
    200  CG1       24.3590  -52.3080   -6.1560 C.3    80  ILE80       0.0019
    201  CG2       26.8970  -52.6900   -6.5480 C.3    80  ILE80       0.0019
    202  CD1       24.0910  -51.8780   -7.5670 C.3    80  ILE80       0.0001
    203  N         31.5160  -56.5360   -8.3490 N.3    93  TYR93      -0.1241
    204  CA        30.4200  -55.8050   -7.7130 C.3    93  TYR93       0.1605
    205  C         29.4170  -56.7650   -7.1770 C.2    93  TYR93       0.2264
    206  O         29.0070  -57.6610   -7.9090 O.2    93  TYR93      -0.2867
    207  CB        29.7530  -54.9040   -8.7130 C.3    93  TYR93       0.0534
    208  CG        30.6090  -53.7270   -9.0730 C.ar   93  TYR93      -0.0201
    209  CD1       30.8710  -53.4100  -10.4320 C.ar   93  TYR93      -0.0009
    210  CD2       31.2150  -52.9490   -8.0950 C.ar   93  TYR93      -0.0009
    211  CE1       31.6710  -52.2980  -10.8090 C.ar   93  TYR93       0.0417
    212  CE2       32.0380  -51.8060   -8.4680 C.ar   93  TYR93       0.0417
    213  CZ        32.2600  -51.4950   -9.8380 C.ar   93  TYR93       0.1957
    214  OH        33.0680  -50.4120  -10.2350 O.3    93  TYR93      -0.2866
    215  N         25.7030  -57.2070   -5.4100 N.3    95  SER95      -0.1217
    216  CA        24.4260  -56.5550   -5.1770 C.3    95  SER95       0.1889
    217  C         23.5200  -57.4700   -4.3750 C.2    95  SER95       0.2288
    218  O         23.1920  -58.5780   -4.8090 O.2    95  SER95      -0.2866
    219  CB        23.7380  -56.1190   -6.4810 C.3    95  SER95       0.2089
    220  OG        22.4880  -55.5140   -6.2050 O.3    95  SER95      -0.2183
    221  N         19.9390  -57.3530   -2.3540 N.3    97  ARG97      -0.1245
    222  CA        18.6420  -56.6660   -2.5650 C.3    97  ARG97       0.1563
    223  C         17.4600  -57.3930   -1.9090 C.2    97  ARG97       0.2260
    224  O         17.2780  -58.6320   -2.1020 O.2    97  ARG97      -0.2867
    225  CB        18.2900  -56.6960   -4.0480 C.3    97  ARG97       0.0307
    226  CG        19.0370  -55.7830   -4.9190 C.3    97  ARG97       0.0489
    227  CD        18.8210  -56.2290   -6.3610 C.3    97  ARG97       0.2205
    228  NE        19.7770  -57.2690   -6.7030 N.pl3  97  ARG97      -0.0865
    229  CZ        19.6610  -58.1090   -7.7160 C.cat  97  ARG97       0.5346
    230  NH1       18.6080  -58.0850   -8.5000 N.pl3  97  ARG97       0.1354
    231  NH2       20.5890  -58.9960   -7.8950 N.pl3  97  ARG97       0.1354
@<TRIPOS>BOND
     1    59    60    1
     2    59    58    1
     3    60    61    2
     4    61    62    1
     5    61    63    1
     6   102   103    1
     7   102   101    1
     8    42    40   ar
     9    39    40    1
    10    39    36    1
    11    58    57    1
    12   101   100    1
    13    40    41   ar
    14    35    36    1
    15   100    99    1
    16    57    54    1
    17    36    37    1
    18    27    26    1
    19    27    28    1
    20    56    55    2
    21    55    54    1
    22    26    23    1
    23    82    81    2
    24    38    37    2
    25    28    29    2
    26    28    30   am
    27    54    53    1
    28    99    96    1
    29    37    43   am
    30   122   120    1
    31    78    76   am
    32    81    80    1
    33    74    73    2
    34    25    24    2
    35    75    76    1
    36    75    72    1
    37    53    45   am
    38    76    77    2
    39    73    79   am
    40    73    72    1
    41    80    79    1
    42    80    83    1
    43    23    24    1
    44    23    22    1
    45    43    44    1
    46    64    65    1
    47    24    31   am
    48    71    72    1
    49    71    66   am
    50   120   119    2
    51   120   121    1
    52    96    95    1
    53    96    97    1
    54   119   118    1
    55    45    44    1
    56    45    46    2
    57    88    87    2
    58    65    66    1
    59    65    68    1
    60    66    67    2
    61    33    34    2
    62    33    32    1
    63    22    16   am
    64    44    47    1
    65    31    32    1
    66    83    84    1
    67    97    98    2
    68   110   108    1
    69   118   117    1
    70    87    86    1
    71    16    17    2
    72    16    15    1
    73    69    68    1
    74    68    70    1
    75   108   109    1
    76   108   105    1
    77   142   140   ar
    78   142   144   ar
    79    47    48    1
    80    85    86    1
    81   116   117    1
    82   116   113    1
    83   139   140   ar
    84   139   137   ar
    85   109   111    1
    86   140   138   ar
    87   144   143   ar
    88    18    15    1
    89    18    19    1
    90   137   136   ar
    91    14    15    1
    92    86    89    1
    93   113   112    1
    94   113   114    1
    95   112   106   am
    96   189   190    2
    97   189   188    1
    98   138   136   ar
    99   138   141   ar
   100   143   141   ar
   101   155   153    1
   102   136   135    1
   103    48    50   ar
   104    48    49   ar
   105    20    19    1
   106   105   106    1
   107   105   104    1
   108   106   107    2
   109    89    90    1
   110    50    52   ar
   111    19    21    1
   112   135   132    1
   113   152   153    2
   114   152   151    1
   115   188   191    1
   116   188   187    1
   117    11    13    1
   118    11    12    1
   119    11     8    1
   120   184   183    2
   121   153   154    1
   122    49    51   ar
   123   114   115    2
   124     9     8    1
   125     9    10    2
   126     8     7    1
   127   191   192    1
   128   193   192    2
   129    90    91   ar
   130    90    92   ar
   131    91    93   ar
   132   150   151    1
   133   150   149    1
   134    52    51   ar
   135   186   185    1
   136   183   187   am
   137   183   182    1
   138   192   194   am
   139   132   133    1
   140   132   131    1
   141   185   182    1
   142   211   209   ar
   143   211   213   ar
   144   133   145   am
   145   133   134    2
   146   130   129    1
   147   169   168    1
   148   168   165    1
   149   145   146    1
   150    92    94   ar
   151    93    94   ar
   152   131   125   am
   153   209   208   ar
   154   182   181    1
   155   179   177   ar
   156   179   180   ar
   157   149   146    1
   158   214   213    1
   159   146   147    1
   160   177   175   ar
   161   213   212   ar
   162   181   172   am
   163   180   178   ar
   164   163   161    1
   165   123   124    1
   166   127   124    1
   167   127   128    1
   168   125   124    1
   169   125   126    2
   170   129   128    1
   171   165   166    1
   172   165   164    1
   173     5     6    1
   174     5     2    1
   175   175   174    1
   176   175   176   ar
   177   208   207    1
   178   208   210   ar
   179   161   160    1
   180   174   171    1
   181   172   171    1
   182   172   173    2
   183   167   166    2
   184   207   204    1
   185   178   176   ar
   186   147   148    2
   187   164   158   am
   188   230   229    1
   189   212   210   ar
   190   171   170    1
   191   203   204    1
   192     2     3    1
   193     2     1    1
   194   206   205    2
   195   231   229    1
   196     3     4    2
   197   229   228    2
   198   204   205    1
   199   202   200    1
   200   158   159    2
   201   158   157    1
   202   160   157    1
   203   160   162    1
   204   156   157    1
   205   228   227    1
   206   201   199    1
   207   219   220    1
   208   219   216    1
   209   227   226    1
   210   200   199    1
   211   199   196    1
   212   215   216    1
   213   216   217    1
   214   226   225    1
   215   218   217    2
   216   196   197    1
   217   196   195    1
   218   225   222    1
   219   197   198    2
   220   222   221    1
   221   222   223    1
   222   224   223    2
