@<TRIPOS>MOLECULE
tmp/3ewpA00.pdb
 171 167 0 0 0
SMALL
GASTEIGER

@<TRIPOS>ATOM
      1  N         37.3440    9.6790  -10.1960 N.3    22  GLY22      -0.1210
      2  CA        37.2300   11.0330  -10.6810 C.3    22  GLY22       0.1956
      3  C         37.8270   12.0270   -9.7150 C.2    22  GLY22       0.2612
      4  O         38.4650   11.6360   -8.7180 O.2    22  GLY22      -0.2717
      5  N         37.5320   13.3040   -9.9790 N.am   23  ASP23      -0.1959
      6  CA        37.9980   14.4000   -9.1580 C.3    23  ASP23       0.1840
      7  C         37.4700   14.3030   -7.7310 C.2    23  ASP23       0.2621
      8  O         36.3610   13.8170   -7.5080 O.2    23  ASP23      -0.2715
      9  CB        37.5100   15.7310   -9.7170 C.3    23  ASP23       0.1450
     10  CG        38.0040   16.0100  -11.1100 C.2    23  ASP23       0.3671
     11  OD1       39.1270   15.5550  -11.4800 O.co2  23  ASP23      -0.2456
     12  OD2       37.2460   16.7240  -11.8140 O.co2  23  ASP23      -0.2456
     13  N         38.2510   14.8100   -6.7880 N.am   24  LEU24      -0.1977
     14  CA        37.8620   14.8040   -5.3770 C.3    24  LEU24       0.1596
     15  C         36.3890   15.2590   -5.1150 C.2    24  LEU24       0.2287
     16  O         35.6430   14.6190   -4.3820 O.2    24  LEU24      -0.2864
     17  CB        38.8570   15.6730   -4.5650 C.3    24  LEU24       0.0297
     18  CG        38.5580   15.7750   -3.0650 C.3    24  LEU24       0.0022
     19  CD1       38.8970   14.4450   -2.3590 C.3    24  LEU24       0.0001
     20  CD2       39.2990   16.9240   -2.4050 C.3    24  LEU24       0.0001
     21  N         46.6470   11.2160    1.3700 N.3    43  ALA43      -0.1231
     22  CA        47.9270   10.5790    1.0320 C.3    43  ALA43       0.1694
     23  C         48.9350   11.6970    1.2070 C.2    43  ALA43       0.2592
     24  O         49.1260   12.5180    0.3040 O.2    43  ALA43      -0.2718
     25  CB        47.9010   10.0030   -0.4420 C.3    43  ALA43       0.0304
     26  N         49.5150   11.7680    2.4090 N.am   44  ALA44      -0.1966
     27  CA        50.3050   12.9140    2.8460 C.3    44  ALA44       0.1728
     28  C         51.8390   12.6890    2.7450 C.2    44  ALA44       0.2616
     29  O         52.2860   11.5740    2.4900 O.2    44  ALA44      -0.2715
     30  CB        49.9460   13.2580    4.3050 C.3    44  ALA44       0.0334
     31  N         52.6240   13.7660    2.9570 N.am   45  ASN45      -0.1972
     32  CA        54.0540   13.6290    3.3450 C.3    45  ASN45       0.1688
     33  C         54.1920   13.9590    4.8160 C.2    45  ASN45       0.2292
     34  O         53.2320   14.5050    5.4300 O.2    45  ASN45      -0.2864
     35  CB        55.0360   14.4720    2.4570 C.3    45  ASN45       0.1181
     36  CG        54.7240   15.9530    2.4640 C.2    45  ASN45       0.2629
     37  OD1       54.6300   16.5760    3.5010 O.2    45  ASN45      -0.2716
     38  ND2       54.6010   16.5230    1.3050 N.am   45  ASN45      -0.0877
     39  N         51.1690   19.0980    1.6880 N.3    50  HIS50      -0.1226
     40  CA        49.9870   19.0640    0.7680 C.3    50  HIS50       0.1752
     41  C         50.2440   19.7670   -0.5630 C.2    50  HIS50       0.2597
     42  O         49.3390   20.4060   -1.1080 O.2    50  HIS50      -0.2718
     43  CB        48.6720   19.5810    1.4390 C.3    50  HIS50       0.0759
     44  CG        48.3970   18.9230    2.7720 C.ar   50  HIS50       0.0818
     45  ND1       47.9280   19.6030    3.8810 N.ar   50  HIS50      -0.2268
     46  CD2       48.6850   17.6750    3.2030 C.ar   50  HIS50       0.1154
     47  CE1       47.8420   18.7700    4.9140 C.ar   50  HIS50       0.1986
     48  NE2       48.3280   17.6010    4.5330 N.ar   50  HIS50      -0.2212
     49  N         51.4570   19.6310   -1.1010 N.am   51  GLY51      -0.1942
     50  CA        51.8760   20.4950   -2.2370 C.3    51  GLY51       0.2014
     51  C         51.3980   20.0290   -3.6070 C.2    51  GLY51       0.2639
     52  O         51.4270   20.8210   -4.5870 O.2    51  GLY51      -0.2714
     53  N         51.0000   18.7540   -3.7130 N.am   52  GLY52      -0.1939
     54  CA        50.5160   18.1940   -4.9760 C.3    52  GLY52       0.2014
     55  C         49.5330   17.0370   -4.7450 C.2    52  GLY52       0.2639
     56  O         49.1610   16.7670   -3.6220 O.2    52  GLY52      -0.2714
     57  N         49.1260   16.3680   -5.8150 N.am   53  GLY53      -0.1939
     58  CA        48.3220   15.1460   -5.7220 C.3    53  GLY53       0.2014
     59  C         46.9910   15.3210   -5.0490 C.2    53  GLY53       0.2639
     60  O         46.4230   16.4220   -5.0260 O.2    53  GLY53      -0.2714
     61  N         46.4780   14.2480   -4.4530 N.am   54  VAL54      -0.1963
     62  CA        45.2390   14.3810   -3.6810 C.3    54  VAL54       0.1727
     63  C         45.3770   15.2680   -2.4180 C.2    54  VAL54       0.2616
     64  O         44.3690   15.8760   -1.9680 O.2    54  VAL54      -0.2715
     65  CB        44.5830   13.0110   -3.3540 C.3    54  VAL54       0.0290
     66  CG1       45.2980   12.3590   -2.1680 C.3    54  VAL54       0.0023
     67  CG2       43.0660   13.1900   -3.0280 C.3    54  VAL54       0.0023
     68  N         46.5950   15.3760   -1.8700 N.am   55  ALA55      -0.1977
     69  CA        46.8150   16.1990   -0.6700 C.3    55  ALA55       0.1597
     70  C         46.4670   17.6670   -0.9640 C.2    55  ALA55       0.2287
     71  O         45.8250   18.3570   -0.1550 O.2    55  ALA55      -0.2864
     72  CB        48.2200   16.0680   -0.1700 C.3    55  ALA55       0.0319
     73  N         44.4360   18.8030   -3.3720 N.3    57  ALA57      -0.1245
     74  CA        42.9910   18.9270   -3.5650 C.3    57  ALA57       0.1562
     75  C         42.2620   18.9580   -2.2070 C.2    57  ALA57       0.2260
     76  O         41.3540   19.7910   -1.9910 O.2    57  ALA57      -0.2867
     77  CB        42.4500   17.8060   -4.4680 C.3    57  ALA57       0.0290
     78  N         52.2070    7.2070    3.1500 N.3   100  GLY100     -0.1225
     79  CA        52.5110    5.8920    2.5900 C.3   100  GLY100      0.1811
     80  C         54.0020    5.7180    2.2740 C.2   100  GLY100      0.2280
     81  O         54.7720    6.6820    2.2730 O.2   100  GLY100     -0.2866
     82  N         42.0390    6.9500   -0.7000 N.3   130  PRO130     -0.2102
     83  CA        42.6360    6.9160   -2.0230 C.3   130  PRO130      0.1504
     84  C         43.5830    5.7410   -2.1030 C.2   130  PRO130      0.2575
     85  O         43.8010    5.0420   -1.0870 O.2   130  PRO130     -0.2718
     86  CB        43.4210    8.2480   -2.0930 C.3   130  PRO130      0.0282
     87  CG        43.9130    8.4440   -0.6340 C.3   130  PRO130      0.0208
     88  CD        42.8200    7.7690    0.2580 C.3   130  PRO130      0.0893
     89  N         44.1330    5.5090   -3.2900 N.am  131  VAL131     -0.1980
     90  CA        45.1030    4.4430   -3.4620 C.3   131  VAL131      0.1595
     91  C         46.4530    5.0310   -3.0180 C.2   131  VAL131      0.2287
     92  O         47.1290    5.7430   -3.7860 O.2   131  VAL131     -0.2864
     93  CB        45.1380    3.8770   -4.9000 C.3   131  VAL131      0.0276
     94  CG1       46.1980    2.7600   -4.9900 C.3   131  VAL131      0.0022
     95  CG2       43.7740    3.3410   -5.3140 C.3   131  VAL131      0.0022
     96  N         50.1780    6.0040   -2.0390 N.3   133  SER133     -0.1202
     97  CA        51.5170    5.7550   -2.5730 C.3   133  SER133      0.2020
     98  C         51.5870    5.5500   -4.0680 C.2   133  SER133      0.2619
     99  O         52.7000    5.4210   -4.6000 O.2   133  SER133     -0.2717
    100  CB        52.1620    4.5480   -1.8800 C.3   133  SER133      0.2103
    101  OG        52.4070    4.9410   -0.5680 O.3   133  SER133     -0.2182
    102  N         50.4490    5.5630   -4.7460 N.am  134  SER134     -0.1937
    103  CA        50.3550    5.2090   -6.1950 C.3   134  SER134      0.2055
    104  C         50.4980    6.3890   -7.1810 C.2   134  SER134      0.2644
    105  O         50.4160    6.1900   -8.4140 O.2   134  SER134     -0.2714
    106  CB        49.0230    4.5270   -6.4710 C.3   134  SER134      0.2130
    107  OG        47.9620    5.4290   -6.2420 O.3   134  SER134     -0.2179
    108  N         50.6450    7.5990   -6.6310 N.am  135  GLY135     -0.1939
    109  CA        50.8400    8.8250   -7.4320 C.3   135  GLY135      0.2014
    110  C         52.3190    9.1630   -7.4120 C.2   135  GLY135      0.2639
    111  O         53.1350    8.4620   -8.0050 O.2   135  GLY135     -0.2714
    112  N         52.6820   10.2000   -6.6820 N.am  136  ILE136     -0.1963
    113  CA        54.0570   10.7090   -6.7260 C.3   136  ILE136      0.1727
    114  C         55.0240    9.8720   -5.8480 C.2   136  ILE136      0.2616
    115  O         56.2700    9.9320   -5.9910 O.2   136  ILE136     -0.2715
    116  CB        54.1100   12.2480   -6.4300 C.3   136  ILE136      0.0290
    117  CG1       55.0150   12.5870   -5.2450 C.3   136  ILE136      0.0022
    118  CG2       52.6680   12.8810   -6.3630 C.3   136  ILE136      0.0023
    119  CD1       55.5470   14.0540   -5.1990 C.3   136  ILE136      0.0001
    120  N         54.4480    9.0380   -4.9810 N.am  137  PHE137     -0.1974
    121  CA        55.2420    8.0760   -4.2400 C.3   137  PHE137      0.1639
    122  C         55.6860    6.8750   -5.0730 C.2   137  PHE137      0.2290
    123  O         56.5670    6.0950   -4.6590 O.2   137  PHE137     -0.2864
    124  CB        54.5870    7.7210   -2.9070 C.3   137  PHE137      0.0560
    125  CG        54.8400    8.7600   -1.8230 C.ar  137  PHE137     -0.0200
    126  CD1       55.4000    9.9850   -2.1340 C.ar  137  PHE137     -0.0042
    127  CD2       54.5030    8.5150   -0.5160 C.ar  137  PHE137     -0.0042
    128  CE1       55.6600   10.9470   -1.1340 C.ar  137  PHE137     -0.0003
    129  CE2       54.7310    9.4700    0.4820 C.ar  137  PHE137     -0.0003
    130  CZ        55.3110   10.6830    0.1790 C.ar  137  PHE137     -0.0000
    131  N         38.8100    5.4460   -3.9220 N.3   162  PHE162     -0.1227
    132  CA        38.7560    6.3560   -5.0380 C.3   162  PHE162      0.1736
    133  C         40.1110    6.5900   -5.6990 C.2   162  PHE162      0.2596
    134  O         41.1690    6.3750   -5.0940 O.2   162  PHE162     -0.2718
    135  CB        38.0880    7.6730   -4.6510 C.3   162  PHE162      0.0547
    136  CG        38.9240    8.5590   -3.7570 C.ar  162  PHE162     -0.0202
    137  CD1       39.7470    9.5600   -4.2980 C.ar  162  PHE162     -0.0042
    138  CD2       38.8780    8.4260   -2.3810 C.ar  162  PHE162     -0.0042
    139  CE1       40.5100   10.4150   -3.4440 C.ar  162  PHE162     -0.0003
    140  CE2       39.6430    9.2620   -1.5480 C.ar  162  PHE162     -0.0003
    141  CZ        40.4500   10.2790   -2.1010 C.ar  162  PHE162     -0.0000
    142  N         40.0560    7.0830   -6.9340 N.am  163  SER163     -0.1938
    143  CA        41.2650    7.3940   -7.6920 C.3   163  SER163      0.2055
    144  C         40.8490    8.2200   -8.8680 C.2   163  SER163      0.2643
    145  O         39.7000    8.1560   -9.3050 O.2   163  SER163     -0.2714
    146  CB        41.9320    6.0980   -8.1900 C.3   163  SER163      0.2130
    147  OG        43.1410    6.3550   -8.8890 O.3   163  SER163     -0.2179
    148  N         41.7860    8.9870   -9.4170 N.am  164  LEU164     -0.1963
    149  CA        41.5370    9.6210  -10.7350 C.3   164  LEU164      0.1728
    150  C         41.4920    8.5460  -11.8300 C.2   164  LEU164      0.2616
    151  O         40.9130    8.7410  -12.8990 O.2   164  LEU164     -0.2715
    152  CB        42.6620   10.6040  -11.0540 C.3   164  LEU164      0.0311
    153  CG        42.7000   11.8100  -10.1460 C.3   164  LEU164      0.0022
    154  CD1       43.9960   12.5870  -10.3320 C.3   164  LEU164      0.0001
    155  CD2       41.5180   12.6640  -10.4670 C.3   164  LEU164      0.0001
    156  N         42.1060    7.4030  -11.5370 N.am  165  SER165     -0.1950
    157  CA        42.3980    6.3850  -12.5430 C.3   165  SER165      0.1924
    158  C         41.3700    5.2390  -12.6170 C.2   165  SER165      0.2314
    159  O         41.1980    4.4490  -11.6620 O.2   165  SER165     -0.2863
    160  CB        43.8230    5.8290  -12.3590 C.3   165  SER165      0.2116
    161  OG        44.0580    4.8110  -13.3240 O.3   165  SER165     -0.2180
    162  N         42.7700    1.7690  -11.9040 N.3   168  HIS168     -0.1241
    163  CA        42.8980    1.4240  -10.4700 C.3   168  HIS168      0.1621
    164  C         41.5900    0.7870   -9.9960 C.2   168  HIS168      0.2264
    165  O         41.5660   -0.2660   -9.3220 O.2   168  HIS168     -0.2867
    166  CB        43.1460    2.7150   -9.6430 C.3   168  HIS168      0.0745
    167  CG        44.4980    3.3290   -9.8410 C.ar  168  HIS168      0.0817
    168  ND1       44.9330    4.4170   -9.1120 N.ar  168  HIS168     -0.2268
    169  CD2       45.5090    3.0160  -10.6900 C.ar  168  HIS168      0.1154
    170  CE1       46.1580    4.7340   -9.4930 C.ar  168  HIS168      0.1986
    171  NE2       46.5310    3.8980  -10.4510 N.ar  168  HIS168     -0.2212
@<TRIPOS>BOND
     1   161   160    1
     2   151   150    2
     3   158   157    1
     4   158   159    2
     5   157   160    1
     6   157   156    1
     7   162   163    1
     8   150   156   am
     9   150   149    1
    10    12    10   ar
    11    11    10   ar
    12    10     9    1
    13   152   149    1
    14   152   153    1
    15   149   148    1
    16   169   171   ar
    17   169   167   ar
    18     2     1    1
    19     2     3    1
    20   163   164    1
    21   163   166    1
    22   155   153    1
    23   171   170   ar
    24   154   153    1
    25   164   165    2
    26     5     3   am
    27     5     6    1
    28   167   166    1
    29   167   168   ar
    30     9     6    1
    31     3     4    2
    32   170   168   ar
    33   148   144   am
    34   145   144    2
    35     6     7    1
    36   147   146    1
    37   144   143    1
    38   105   104    2
    39   146   143    1
    40   111   110    2
    41     7     8    2
    42     7    13   am
    43   143   142    1
    44   109   110    1
    45   109   108    1
    46   110   112   am
    47   104   108   am
    48   104   103    1
    49   142   133   am
    50    13    14    1
    51   113   112    1
    52   113   116    1
    53   113   114    1
    54   106   107    1
    55   106   103    1
    56   116   118    1
    57   116   117    1
    58   103   102    1
    59   115   114    2
    60   114   120   am
    61    57    58    1
    62    57    55   am
    63    58    59    1
    64   133   134    2
    65   133   132    1
    66    14    15    1
    67    14    17    1
    68    95    93    1
    69   117   119    1
    70    15    16    2
    71   122   123    2
    72   122   121    1
    73    59    60    2
    74    59    61   am
    75   132   135    1
    76   132   131    1
    77    94    93    1
    78   120   121    1
    79    54    55    1
    80    54    53    1
    81    93    90    1
    82   102    98   am
    83    55    56    2
    84   135   136    1
    85    99    98    2
    86    52    51    2
    87    17    18    1
    88    77    74    1
    89    61    62    1
    90   137   136   ar
    91   137   139   ar
    92   121   124    1
    93    98    97    1
    94    92    91    2
    95   136   138   ar
    96    53    51   am
    97    62    65    1
    98    62    63    1
    99    51    50    1
   100    74    73    1
   101    74    75    1
   102    90    89    1
   103    90    91    1
   104   139   141   ar
   105    65    67    1
   106    65    66    1
   107    89    84   am
   108    18    20    1
   109    18    19    1
   110   124   125    1
   111    97    96    1
   112    97   100    1
   113    63    64    2
   114    63    68   am
   115   138   140   ar
   116    50    49    1
   117    75    76    2
   118   126   125   ar
   119   126   128   ar
   120    84    83    1
   121    84    85    2
   122   141   140   ar
   123    86    83    1
   124    86    87    1
   125    83    82    1
   126   100   101    1
   127    68    69    1
   128   125   127   ar
   129   128   130   ar
   130    42    41    2
   131    49    41   am
   132    70    69    1
   133    70    71    2
   134    82    88    1
   135    69    72    1
   136    87    88    1
   137    41    40    1
   138   127   129   ar
   139    25    22    1
   140   130   129   ar
   141    24    23    2
   142    40    43    1
   143    40    39    1
   144    22    23    1
   145    22    21    1
   146    23    26   am
   147    38    36   am
   148    43    44    1
   149    81    80    2
   150    80    79    1
   151    26    27    1
   152    35    36    1
   153    35    32    1
   154    36    37    2
   155    29    28    2
   156    79    78    1
   157    28    27    1
   158    28    31   am
   159    44    46   ar
   160    44    45   ar
   161    27    30    1
   162    31    32    1
   163    46    48   ar
   164    32    33    1
   165    45    47   ar
   166    48    47   ar
   167    33    34    2
