@<TRIPOS>MOLECULE
tmp/3ewrA00.pdb
 190 187 0 0 0
SMALL
GASTEIGER

@<TRIPOS>ATOM
      1  N          8.9500   -2.5660    4.9480 N.3    18  GLY18      -0.1210
      2  CA        10.2040   -3.1770    4.6130 C.3    18  GLY18       0.1956
      3  C         11.1740   -3.1990    5.7750 C.2    18  GLY18       0.2612
      4  O         10.9490   -2.5620    6.8170 O.2    18  GLY18      -0.2717
      5  N         12.2690   -3.9060    5.5970 N.am   19  ASP19      -0.1959
      6  CA        13.4200   -3.6890    6.4670 C.3    19  ASP19       0.1840
      7  C         14.1250   -2.3410    6.1650 C.2    19  ASP19       0.2621
      8  O         13.7580   -1.6070    5.1890 O.2    19  ASP19      -0.2715
      9  CB        14.4000   -4.8840    6.4130 C.3    19  ASP19       0.1450
     10  CG        15.0270   -5.1170    5.0000 C.2    19  ASP19       0.3671
     11  OD1       15.0060   -4.2390    4.1190 O.co2  19  ASP19      -0.2456
     12  OD2       15.5730   -6.2070    4.7850 O.co2  19  ASP19      -0.2456
     13  N         15.1510   -2.0310    6.9670 N.am   20  VAL20      -0.1977
     14  CA        15.9310   -0.7990    6.7910 C.3    20  VAL20       0.1596
     15  C         16.4170   -0.4910    5.3690 C.2    20  VAL20       0.2287
     16  O         16.1500    0.5990    4.8330 O.2    20  VAL20      -0.2864
     17  CB        17.1190   -0.7070    7.7650 C.3    20  VAL20       0.0276
     18  CG1       17.9810    0.5070    7.4250 C.3    20  VAL20       0.0022
     19  CG2       16.5980   -0.5930    9.2030 C.3    20  VAL20       0.0022
     20  N         14.1330    4.4150   16.4440 N.3    35  ALA35      -0.1231
     21  CA        13.5390    4.1640   17.7510 C.3    35  ALA35       0.1694
     22  C         14.6200    3.7690   18.7550 C.2    35  ALA35       0.2592
     23  O         14.8420    2.5950   19.0000 O.2    35  ALA35      -0.2718
     24  CB        12.4090    3.1160   17.6690 C.3    35  ALA35       0.0304
     25  N         15.2550    4.7860   19.3600 N.am   36  ALA36      -0.1966
     26  CA        16.4320    4.6170   20.1980 C.3    36  ALA36       0.1728
     27  C         16.0620    4.4700   21.6820 C.2    36  ALA36       0.2616
     28  O         14.9130    4.7030   22.1030 O.2    36  ALA36      -0.2715
     29  CB        17.3810    5.8010   20.0120 C.3    36  ALA36       0.0334
     30  N         17.0620    4.0810   22.4640 N.am   37  ASN37      -0.1972
     31  CA        16.9430    4.1090   23.9170 C.3    37  ASN37       0.1688
     32  C         17.8050    5.2580   24.4140 C.2    37  ASN37       0.2292
     33  O         18.6020    5.8120   23.6440 O.2    37  ASN37      -0.2864
     34  CB        17.3060    2.7430   24.5660 C.3    37  ASN37       0.1181
     35  CG        18.7330    2.2840   24.2390 C.2    37  ASN37       0.2629
     36  OD1       19.6780    3.0340   24.3910 O.2    37  ASN37      -0.2716
     37  ND2       18.8760    1.0280   23.8330 N.am   37  ASN37      -0.0877
     38  N         22.4770    3.1430   22.4440 N.3    41  ALA41      -0.1231
     39  CA        23.1460    1.8790   22.4350 C.3    41  ALA41       0.1694
     40  C         22.2310    1.0150   21.5840 C.2    41  ALA41       0.2592
     41  O         21.1590    0.5420   22.0270 O.2    41  ALA41      -0.2718
     42  CB        23.2270    1.3130   23.8570 C.3    41  ALA41       0.0304
     43  N         22.6150    0.8570   20.3420 N.am   42  HIS42      -0.1962
     44  CA        21.7660    0.2660   19.3350 C.3    42  HIS42       0.1787
     45  C         21.8460   -1.2750   19.2660 C.2    42  HIS42       0.2621
     46  O         22.3490   -1.8360   18.3420 O.2    42  HIS42      -0.2715
     47  CB        22.0660    0.8900   17.9620 C.3    42  HIS42       0.0785
     48  CG        22.1700    2.3880   17.9740 C.ar   42  HIS42       0.0821
     49  ND1       21.1360    3.2020   18.3650 N.ar   42  HIS42      -0.2267
     50  CD2       23.1810    3.2110   17.6400 C.ar   42  HIS42       0.1154
     51  CE1       21.5080    4.4550   18.2820 C.ar   42  HIS42       0.1986
     52  NE2       22.7430    4.4870   17.8360 N.ar   42  HIS42      -0.2212
     53  N         21.2910   -1.9510   20.2410 N.am   43  GLY43      -0.1940
     54  CA        21.4760   -3.3770   20.3440 C.3    43  GLY43       0.2014
     55  C         20.5520   -4.3050   19.6110 C.2    43  GLY43       0.2639
     56  O         20.8660   -5.4410   19.3970 O.2    43  GLY43      -0.2714
     57  N         19.3970   -3.7820   19.2600 N.am   44  GLY44      -0.1939
     58  CA        18.3000   -4.5680   18.7800 C.3    44  GLY44       0.2014
     59  C         17.3920   -3.8120   17.8550 C.2    44  GLY44       0.2639
     60  O         17.5180   -2.6450   17.6850 O.2    44  GLY44      -0.2714
     61  N         16.4880   -4.5480   17.2560 N.am   45  GLY45      -0.1939
     62  CA        15.5200   -4.0370   16.3410 C.3    45  GLY45       0.2014
     63  C         16.0070   -3.0860   15.2930 C.2    45  GLY45       0.2639
     64  O         17.0040   -3.2470   14.6550 O.2    45  GLY45      -0.2714
     65  N         15.2320   -2.0540   15.1350 N.am   46  LEU46      -0.1963
     66  CA        15.4810   -1.1160   14.0760 C.3    46  LEU46       0.1728
     67  C         16.8560   -0.4460   14.3180 C.2    46  LEU46       0.2616
     68  O         17.6490   -0.2380   13.3790 O.2    46  LEU46      -0.2715
     69  CB        14.3570   -0.0600   14.0950 C.3    46  LEU46       0.0311
     70  CG        14.6300    1.2230   13.3110 C.3    46  LEU46       0.0022
     71  CD1       14.6950    0.9160   11.7690 C.3    46  LEU46       0.0001
     72  CD2       13.5880    2.3420   13.6480 C.3    46  LEU46       0.0001
     73  N         17.1270   -0.1290   15.5910 N.am   47  ALA47      -0.1977
     74  CA        18.3850    0.5290   15.9550 C.3    47  ALA47       0.1597
     75  C         19.6300   -0.2250   15.4480 C.2    47  ALA47       0.2287
     76  O         20.4830    0.3730   14.8080 O.2    47  ALA47      -0.2864
     77  CB        18.4580    0.8380   17.4760 C.3    47  ALA47       0.0319
     78  N         19.7030   -2.5560   13.0720 N.3    49  ALA49      -0.1245
     79  CA        19.6000   -2.6050   11.6120 C.3    49  ALA49       0.1562
     80  C         20.0300   -1.2910   10.9900 C.2    49  ALA49       0.2260
     81  O         20.7580   -1.2990   10.0150 O.2    49  ALA49      -0.2867
     82  CB        18.1780   -3.0330   11.1540 C.3    49  ALA49       0.0290
     83  N         11.9200    6.8420   22.3290 N.3    92  GLY92      -0.1225
     84  CA        10.5410    6.5340   22.6070 C.3    92  GLY92       0.1811
     85  C         10.4630    5.9680   24.0260 C.2    92  GLY92       0.2280
     86  O         11.4760    5.5300   24.5810 O.2    92  GLY92      -0.2866
     87  N          9.3620    4.8750   12.1930 N.3   120  PRO120     -0.2102
     88  CA         8.6290    3.7200   12.7210 C.3   120  PRO120      0.1504
     89  C          7.5190    4.1550   13.6910 C.2   120  PRO120      0.2576
     90  O          7.4020    5.3640   14.0610 O.2   120  PRO120     -0.2718
     91  CB         9.7210    2.9210   13.4560 C.3   120  PRO120      0.0282
     92  CG        10.6860    4.0010   13.9050 C.3   120  PRO120      0.0208
     93  CD        10.6930    5.0240   12.8200 C.3   120  PRO120      0.0893
     94  N          6.6760    3.1820   14.0390 N.am  121  ILE121     -0.1966
     95  CA         5.7100    3.3600   15.0650 C.3   121  ILE121      0.1727
     96  C          6.5500    3.0920   16.3530 C.2   121  ILE121      0.2616
     97  O          6.9530    1.9500   16.6480 O.2   121  ILE121     -0.2715
     98  CB         4.4970    2.4000   14.8850 C.3   121  ILE121      0.0290
     99  CG1        3.7470    2.7440   13.5820 C.3   121  ILE121      0.0022
    100  CG2        3.5720    2.4790   16.1130 C.3   121  ILE121      0.0023
    101  CD1        2.6330    1.7280   13.2710 C.3   121  ILE121      0.0001
    102  N          6.8830    4.1870   17.0300 N.am  122  LEU122     -0.1963
    103  CA         7.6990    4.1260   18.2350 C.3   122  LEU122      0.1728
    104  C          7.1750    3.1430   19.2900 C.2   122  LEU122      0.2617
    105  O          5.9520    3.0140   19.5060 O.2   122  LEU122     -0.2715
    106  CB         7.8400    5.5270   18.8630 C.3   122  LEU122      0.0311
    107  CG         8.5860    6.5630   18.0170 C.3   122  LEU122      0.0022
    108  CD1        8.4610    7.8800   18.6700 C.3   122  LEU122      0.0001
    109  CD2       10.0980    6.1960   17.6770 C.3   122  LEU122      0.0001
    110  N          8.1360    2.4930   19.9420 N.am  123  SER123     -0.1936
    111  CA         7.9080    1.7370   21.1480 C.3   123  SER123      0.2055
    112  C          7.1270    0.4540   20.9630 C.2   123  SER123      0.2643
    113  O          6.8730   -0.2200   21.9390 O.2   123  SER123     -0.2714
    114  CB         7.2780    2.6300   22.2250 C.3   123  SER123      0.2130
    115  OG         8.1520    3.7220   22.4650 O.3   123  SER123     -0.2179
    116  N          6.7420    0.1290   19.7220 N.am  124  CYS124     -0.1953
    117  CA         5.8790   -1.0340   19.4960 C.3   124  CYS124      0.1843
    118  C          6.6260   -2.3680   19.3400 C.2   124  CYS124      0.2626
    119  O          6.0070   -3.4300   19.1990 O.2   124  CYS124     -0.2714
    120  CB         4.8410   -0.7910   18.3820 C.3   124  CYS124      0.0997
    121  SG         5.4380   -0.8870   16.7110 S.3   124  CYS124     -0.0797
    122  N          7.9450   -2.3340   19.4140 N.am  125  GLY125     -0.1940
    123  CA         8.6770   -3.5560   19.2950 C.3   125  GLY125      0.2014
    124  C          9.1560   -3.9800   20.6590 C.2   125  GLY125      0.2639
    125  O          8.3520   -4.3720   21.4830 O.2   125  GLY125     -0.2714
    126  N         10.4580   -3.8070   20.9070 N.am  126  ILE126     -0.1963
    127  CA        11.0410   -4.3030   22.1440 C.3   126  ILE126      0.1727
    128  C         10.5310   -3.5260   23.3440 C.2   126  ILE126      0.2616
    129  O         10.4730   -4.0590   24.4420 O.2   126  ILE126     -0.2715
    130  CB        12.6190   -4.5060   22.0960 C.3   126  ILE126      0.0290
    131  CG1       13.3580   -3.6710   23.1390 C.3   126  ILE126      0.0022
    132  CG2       13.1970   -4.4700   20.5830 C.3   126  ILE126      0.0023
    133  CD1       14.7910   -4.0620   23.3570 C.3   126  ILE126      0.0001
    134  N         10.0920   -2.2790   23.1140 N.am  127  PHE127     -0.1974
    135  CA         9.5020   -1.5050   24.2090 C.3   127  PHE127      0.1639
    136  C          8.0970   -1.8960   24.6110 C.2   127  PHE127      0.2290
    137  O          7.5930   -1.4340   25.6590 O.2   127  PHE127     -0.2864
    138  CB         9.6320    0.0080   23.9590 C.3   127  PHE127      0.0560
    139  CG        10.9830    0.5660   24.2970 C.ar  127  PHE127     -0.0200
    140  CD1       11.9590   -0.2220   24.9450 C.ar  127  PHE127     -0.0042
    141  CD2       11.2890    1.8970   23.9960 C.ar  127  PHE127     -0.0042
    142  CE1       13.2280    0.3180   25.2970 C.ar  127  PHE127     -0.0003
    143  CE2       12.5320    2.4310   24.3530 C.ar  127  PHE127     -0.0003
    144  CZ        13.5120    1.6310   24.9770 C.ar  127  PHE127     -0.0000
    145  N          6.9680    3.5760    8.5050 N.3   150  PHE150     -0.1227
    146  CA         7.2010    2.2050    8.0760 C.3   150  PHE150      0.1736
    147  C          6.9610    1.2190    9.1900 C.2   150  PHE150      0.2595
    148  O          7.2010    1.5500   10.3680 O.2   150  PHE150     -0.2718
    149  CB         8.5750    2.0340    7.3980 C.3   150  PHE150      0.0547
    150  CG         9.7500    2.1120    8.3310 C.ar  150  PHE150     -0.0202
    151  CD1       10.2550    3.3610    8.7560 C.ar  150  PHE150     -0.0042
    152  CD2       10.3980    0.9320    8.7480 C.ar  150  PHE150     -0.0042
    153  CE1       11.3780    3.4530    9.5790 C.ar  150  PHE150     -0.0003
    154  CE2       11.5060    0.9920    9.5550 C.ar  150  PHE150     -0.0003
    155  CZ        12.0040    2.2810    9.9970 C.ar  150  PHE150     -0.0000
    156  N          6.4680    0.0310    8.7790 N.am  151  VAL151     -0.1966
    157  CA         6.5050   -1.1820    9.5880 C.3   151  VAL151      0.1727
    158  C          7.2970   -2.3150    8.9070 C.2   151  VAL151      0.2616
    159  O          7.6270   -2.2560    7.6950 O.2   151  VAL151     -0.2715
    160  CB         5.0790   -1.6950   10.0500 C.3   151  VAL151      0.0290
    161  CG1        4.2780   -0.6010   10.8160 C.3   151  VAL151      0.0023
    162  CG2        4.2860   -2.2530    8.8960 C.3   151  VAL151      0.0023
    163  N          7.5420   -3.3650    9.6780 N.am  152  TYR152     -0.1960
    164  CA         8.4550   -4.4230    9.2570 C.3   152  TYR152      0.1771
    165  C          7.7640   -5.7550    8.9030 C.2   152  TYR152      0.2620
    166  O          7.9380   -6.2820    7.7880 O.2   152  TYR152     -0.2715
    167  CB         9.6040   -4.5290   10.2880 C.3   152  TYR152      0.0574
    168  CG        10.5930   -5.6570   10.1020 C.ar  152  TYR152     -0.0198
    169  CD1       11.2250   -5.8690    8.8740 C.ar  152  TYR152     -0.0009
    170  CD2       10.9200   -6.5040   11.1730 C.ar  152  TYR152     -0.0009
    171  CE1       12.1280   -6.8890    8.6950 C.ar  152  TYR152      0.0417
    172  CE2       11.8240   -7.5430   11.0040 C.ar  152  TYR152      0.0417
    173  CZ        12.4290   -7.7200    9.7570 C.ar  152  TYR152      0.1957
    174  OH        13.3450   -8.7180    9.5620 O.3   152  TYR152     -0.2866
    175  N          6.9660   -6.2900    9.8200 N.am  153  THR153     -0.1951
    176  CA         6.4100   -7.6230    9.6270 C.3   153  THR153      0.1897
    177  C          5.0060   -7.5640    9.0200 C.2   153  THR153      0.2313
    178  O          4.3460   -6.5390    9.0870 O.2   153  THR153     -0.2863
    179  CB         6.3900   -8.4580   10.9290 C.3   153  THR153      0.1794
    180  OG1        5.2820   -8.0500   11.7260 O.3   153  THR153     -0.2208
    181  CG2        7.6940   -8.3130   11.7290 C.3   153  THR153      0.0378
    182  N          2.4240   -6.5310   11.5960 N.3   156  GLU156     -0.1245
    183  CA         2.2950   -5.0830   11.7920 C.3   156  GLU156      0.1567
    184  C          1.5130   -4.4530   10.6440 C.2   156  GLU156      0.2260
    185  O          0.7620   -3.4970   10.8380 O.2   156  GLU156     -0.2867
    186  CB         3.6830   -4.4260   11.9080 C.3   156  GLU156      0.0388
    187  CG         4.5080   -4.9230   13.1170 C.3   156  GLU156      0.1160
    188  CD         5.8560   -4.2090   13.2000 C.2   156  GLU156      0.3649
    189  OE1        6.6610   -4.3800   12.2590 O.co2 156  GLU156     -0.2457
    190  OE2        6.0760   -3.4470   14.1850 O.co2 156  GLU156     -0.2457
@<TRIPOS>BOND
     1    11    10   ar
     2     2     1    1
     3     2     3    1
     4    12    10   ar
     5    16    15    2
     6    10     9    1
     7     8     7    2
     8    15    14    1
     9     5     3   am
    10     5     6    1
    11     3     4    2
    12     7     6    1
    13     7    13   am
    14     9     6    1
    15    14    13    1
    16    14    17    1
    17   149   146    1
    18   149   150    1
    19    18    17    1
    20   159   158    2
    21    17    19    1
    22   166   165    2
    23   146   145    1
    24   146   147    1
    25   150   152   ar
    26   150   151   ar
    27   171   169   ar
    28   171   173   ar
    29   152   154   ar
    30   151   153   ar
    31   156   147   am
    32   156   157    1
    33   169   168   ar
    34   162   160    1
    35   165   164    1
    36   165   175   am
    37   158   157    1
    38   158   163   am
    39   177   178    2
    40   177   176    1
    41   147   148    2
    42   164   163    1
    43   164   167    1
    44   154   155   ar
    45   174   173    1
    46   153   155   ar
    47   157   160    1
    48   176   175    1
    49   176   179    1
    50   173   172   ar
    51    81    80    2
    52   160   161    1
    53   168   167    1
    54   168   170   ar
    55   184   185    2
    56   184   183    1
    57   179   180    1
    58   179   181    1
    59    80    79    1
    60   172   170   ar
    61    82    79    1
    62   182   183    1
    63    79    78    1
    64    71    70    1
    65   183   186    1
    66   186   187    1
    67    87    88    1
    68    87    93    1
    69   189   188   ar
    70    88    91    1
    71    88    89    1
    72    93    92    1
    73   187   188    1
    74   188   190   ar
    75   101    99    1
    76    70    72    1
    77    70    69    1
    78    68    67    2
    79    91    92    1
    80    99    98    1
    81    89    94   am
    82    89    90    2
    83    94    95    1
    84    66    69    1
    85    66    67    1
    86    66    65    1
    87    67    73   am
    88    64    63    2
    89    76    75    2
    90    98    95    1
    91    98   100    1
    92    95    96    1
    93    65    63   am
    94    63    62    1
    95    75    74    1
    96    73    74    1
    97    74    77    1
    98    62    61    1
    99    96    97    2
   100    96   102   am
   101    20    21    1
   102   121   120    1
   103   102   103    1
   104    61    59   am
   105    50    52   ar
   106    50    48   ar
   107    24    21    1
   108   109   107    1
   109    60    59    2
   110    21    22    1
   111    52    51   ar
   112    59    58    1
   113    47    48    1
   114    47    44    1
   115    48    49   ar
   116   107   108    1
   117   107   106    1
   118   103   106    1
   119   103   104    1
   120    51    49   ar
   121    46    45    2
   122   120   117    1
   123    22    23    2
   124    22    25   am
   125    58    57    1
   126   119   118    2
   127    57    55   am
   128    45    44    1
   129    45    53   am
   130   104   105    2
   131   104   110   am
   132   123   122    1
   133   123   124    1
   134    44    43    1
   135   118   122   am
   136   118   117    1
   137    25    26    1
   138    56    55    2
   139   117   116    1
   140    55    54    1
   141   116   112   am
   142   110   111    1
   143    29    26    1
   144    26    27    1
   145    53    54    1
   146    43    40   am
   147   132   130    1
   148   124   126   am
   149   124   125    2
   150   126   127    1
   151   112   111    1
   152   112   113    2
   153   111   114    1
   154    40    41    2
   155    40    39    1
   156    27    28    2
   157    27    30   am
   158   130   127    1
   159   130   131    1
   160   127   128    1
   161   114   115    1
   162    83    84    1
   163    39    38    1
   164    39    42    1
   165    30    31    1
   166    84    85    1
   167   134   128   am
   168   134   135    1
   169   131   133    1
   170   128   129    2
   171    33    32    2
   172    37    35   am
   173    31    32    1
   174    31    34    1
   175   138   135    1
   176   138   139    1
   177   141   139   ar
   178   141   143   ar
   179    85    86    2
   180   135   136    1
   181    35    36    2
   182    35    34    1
   183   139   140   ar
   184   143   144   ar
   185   136   137    2
   186   140   142   ar
   187   144   142   ar
