@<TRIPOS>MOLECULE
tmp/3exbA00.pdb
 149 145 0 0 0
SMALL
GASTEIGER

@<TRIPOS>ATOM
      1  N         28.5570   86.3490   48.3680 N.3   172  HIS172     -0.1226
      2  CA        29.4610   87.2810   47.7290 C.3   172  HIS172      0.1752
      3  C         29.9070   86.8550   46.3450 C.2   172  HIS172      0.2596
      4  O         30.7260   87.5380   45.7050 O.2   172  HIS172     -0.2718
      5  CB        30.6550   87.5490   48.6500 C.3   172  HIS172      0.0759
      6  CG        30.3510   88.5790   49.6820 C.ar  172  HIS172      0.0818
      7  ND1       31.2750   89.0220   50.6020 N.ar  172  HIS172     -0.2268
      8  CD2       29.2030   89.2540   49.9440 C.ar  172  HIS172      0.1154
      9  CE1       30.7160   89.9450   51.3650 C.ar  172  HIS172      0.1986
     10  NE2       29.4590   90.1030   50.9840 N.ar  172  HIS172     -0.2212
     11  N         29.3570   85.7370   45.8610 N.am  173  ALA173     -0.1966
     12  CA        29.4400   85.5110   44.4240 C.3   173  ALA173      0.1728
     13  C         28.5660   86.5110   43.6480 C.2   173  ALA173      0.2616
     14  O         28.7720   86.7110   42.4520 O.2   173  ALA173     -0.2715
     15  CB        28.9960   84.0780   44.0850 C.3   173  ALA173      0.0334
     16  N         27.6010   87.1140   44.3340 N.am  174  LEU174     -0.1963
     17  CA        26.5830   87.9340   43.6560 C.3   174  LEU174      0.1728
     18  C         26.9210   89.4320   43.6290 C.2   174  LEU174      0.2617
     19  O         27.4140   89.9840   44.6190 O.2   174  LEU174     -0.2715
     20  CB        25.2560   87.7810   44.3910 C.3   174  LEU174      0.0311
     21  CG        24.6880   86.3720   44.5560 C.3   174  LEU174      0.0022
     22  CD1       23.5400   86.3940   45.5760 C.3   174  LEU174      0.0001
     23  CD2       24.2280   85.8500   43.1690 C.3   174  LEU174      0.0001
     24  N         26.6130   90.1000   42.5250 N.am  175  GLY175     -0.1940
     25  CA        26.6630   91.5560   42.5140 C.3   175  GLY175      0.2014
     26  C         28.0920   92.0940   42.6500 C.2   175  GLY175      0.2639
     27  O         29.0460   91.4700   42.1820 O.2   175  GLY175     -0.2714
     28  N         28.2270   93.2700   43.2590 N.am  176  LYS176     -0.1963
     29  CA        29.5420   93.9170   43.3240 C.3   176  LYS176      0.1728
     30  C         29.5590   94.9540   44.4230 C.2   176  LYS176      0.2616
     31  O         28.5170   95.3560   44.9270 O.2   176  LYS176     -0.2715
     32  CB        29.8640   94.6020   41.9820 C.3   176  LYS176      0.0311
     33  CG        28.9670   95.7860   41.6560 C.3   176  LYS176      0.0038
     34  CD        29.2500   96.3130   40.2420 C.3   176  LYS176      0.0206
     35  CE        28.4090   97.5230   39.9160 C.3   176  LYS176      0.1093
     36  NZ        28.6230   97.9790   38.4930 N.3   176  LYS176     -0.1314
     37  N         30.7550   95.4100   44.7670 N.am  177  THR177     -0.1951
     38  CA        30.8990   96.5520   45.6410 C.3   177  THR177      0.1897
     39  C         30.8570   97.8190   44.8030 C.2   177  THR177      0.2313
     40  O         31.1140   97.7940   43.5940 O.2   177  THR177     -0.2863
     41  CB        32.2290   96.4800   46.4210 C.3   177  THR177      0.1794
     42  OG1       33.3410   96.6230   45.5220 O.3   177  THR177     -0.2208
     43  CG2       32.3500   95.1010   47.1180 C.3   177  THR177      0.0378
     44  N         33.5500   93.6220   37.3080 N.3   188  GLY188     -0.1210
     45  CA        32.5890   92.6580   36.8040 C.3   188  GLY188      0.1956
     46  C         31.6890   92.1630   37.9180 C.2   188  GLY188      0.2612
     47  O         31.9420   92.3970   39.1030 O.2   188  GLY188     -0.2717
     48  N         30.6270   91.4700   37.5400 N.am  189  ALA189     -0.1965
     49  CA        29.6850   90.9920   38.5190 C.3   189  ALA189      0.1728
     50  C         28.8350   89.8980   37.9150 C.2   189  ALA189      0.2616
     51  O         28.7600   89.7370   36.7030 O.2   189  ALA189     -0.2715
     52  CB        28.8110   92.1350   39.0290 C.3   189  ALA189      0.0334
     53  N         28.2240   89.1260   38.7950 N.am  190  ASN190     -0.1972
     54  CA        27.3590   88.0510   38.3440 C.3   190  ASN190      0.1688
     55  C         26.0650   88.0690   39.1140 C.2   190  ASN190      0.2292
     56  O         25.9830   88.5570   40.2340 O.2   190  ASN190     -0.2864
     57  CB        28.0130   86.6780   38.4620 C.3   190  ASN190      0.1181
     58  CG        27.2490   85.5920   37.6920 C.2   190  ASN190      0.2629
     59  OD1       26.5160   85.9840   36.6390 O.2   190  ASN190     -0.2716
     60  ND2       27.3360   84.4190   38.0330 N.am  190  ASN190     -0.0877
     61  N         23.9000   85.1600   38.9170 N.3   192  VAL192     -0.1245
     62  CA        23.5150   83.7650   39.0240 C.3   192  VAL192      0.1561
     63  C         24.1240   83.1410   40.2730 C.2   192  VAL192      0.2260
     64  O         25.3400   83.2380   40.5300 O.2   192  VAL192     -0.2867
     65  CB        23.9260   82.9650   37.7570 C.3   192  VAL192      0.0252
     66  CG1       23.4900   81.4700   37.8980 C.3   192  VAL192      0.0019
     67  CG2       23.3010   83.5850   36.5370 C.3   192  VAL192      0.0019
     68  N         30.6460   79.8340   43.0320 N.3   196  GLU196     -0.1231
     69  CA        31.8840   80.3480   42.4540 C.3   196  GLU196      0.1699
     70  C         32.7250   81.2060   43.4110 C.2   196  GLU196      0.2592
     71  O         33.9070   81.3790   43.1800 O.2   196  GLU196     -0.2718
     72  CB        31.5920   81.0650   41.1370 C.3   196  GLU196      0.0402
     73  CG        31.2200   80.0090   40.1050 C.3   196  GLU196      0.1161
     74  CD        30.8360   80.5750   38.7750 C.2   196  GLU196      0.3649
     75  OE1       30.3640   79.7730   37.9280 O.co2 196  GLU196     -0.2457
     76  OE2       31.0080   81.8040   38.5770 O.co2 196  GLU196     -0.2457
     77  N         32.1330   81.7330   44.4790 N.am  197  PHE197     -0.1976
     78  CA        32.9030   82.5250   45.4410 C.3   197  PHE197      0.1639
     79  C         34.0530   81.6930   45.9590 C.2   197  PHE197      0.2290
     80  O         35.2010   82.1810   46.0580 O.2   197  PHE197     -0.2864
     81  CB        31.9630   82.9570   46.5810 C.3   197  PHE197      0.0560
     82  CG        32.6420   83.6260   47.7560 C.ar  197  PHE197     -0.0200
     83  CD1       33.0480   84.9540   47.6910 C.ar  197  PHE197     -0.0042
     84  CD2       32.8340   82.9270   48.9440 C.ar  197  PHE197     -0.0042
     85  CE1       33.6040   85.5940   48.8140 C.ar  197  PHE197     -0.0003
     86  CE2       33.4260   83.5470   50.0580 C.ar  197  PHE197     -0.0003
     87  CZ        33.7970   84.8840   49.9900 C.ar  197  PHE197     -0.0000
     88  N         36.6970   80.8900   43.2510 N.3   200  ASN200     -0.1240
     89  CA        37.5480   82.0560   42.9790 C.3   200  ASN200      0.1653
     90  C         38.5260   82.2420   44.1310 C.2   200  ASN200      0.2266
     91  O         39.7150   82.4840   43.9030 O.2   200  ASN200     -0.2867
     92  CB        36.6990   83.3140   42.7680 C.3   200  ASN200      0.1155
     93  CG        35.9140   83.2510   41.4820 C.2   200  ASN200      0.2627
     94  OD1       36.2910   82.5300   40.5710 O.2   200  ASN200     -0.2716
     95  ND2       34.8250   84.0150   41.3960 N.am  200  ASN200     -0.0877
     96  N         42.1540   88.6860   36.5400 N.3   222  SER222     -0.1202
     97  CA        40.9250   88.3630   35.8300 C.3   222  SER222      0.2020
     98  C         39.8700   89.4300   36.0350 C.2   222  SER222      0.2619
     99  O         38.8270   89.4010   35.3850 O.2   222  SER222     -0.2717
    100  CB        40.3550   87.0460   36.3420 C.3   222  SER222      0.2103
    101  OG        41.2850   85.9990   36.1700 O.3   222  SER222     -0.2182
    102  N         40.1310   90.3540   36.9540 N.am  223  GLY223     -0.1942
    103  CA        39.1720   91.3970   37.2780 C.3   223  GLY223      0.2014
    104  C         38.2970   91.0620   38.4840 C.2   223  GLY223      0.2639
    105  O         37.3370   91.7760   38.7550 O.2   223  GLY223     -0.2714
    106  N         38.6090   89.9750   39.1900 N.am  224  TYR224     -0.1959
    107  CA        37.8470   89.5870   40.3970 C.3   224  TYR224      0.1771
    108  C         38.3480   90.3980   41.5930 C.2   224  TYR224      0.2619
    109  O         39.4770   90.8990   41.5810 O.2   224  TYR224     -0.2715
    110  CB        37.9800   88.0850   40.7180 C.3   224  TYR224      0.0574
    111  CG        37.4450   87.1420   39.6540 C.ar  224  TYR224     -0.0198
    112  CD1       38.2880   86.5850   38.7000 C.ar  224  TYR224     -0.0009
    113  CD2       36.1070   86.7910   39.6160 C.ar  224  TYR224     -0.0009
    114  CE1       37.8040   85.7170   37.7230 C.ar  224  TYR224      0.0417
    115  CE2       35.6130   85.9290   38.6310 C.ar  224  TYR224      0.0417
    116  CZ        36.4710   85.3960   37.6950 C.ar  224  TYR224      0.1957
    117  OH        35.9930   84.5450   36.7250 O.3   224  TYR224     -0.2866
    118  N         37.5120   90.5290   42.6220 N.am  225  MET225     -0.1963
    119  CA        37.9690   91.1100   43.8840 C.3   225  MET225      0.1736
    120  C         37.4100   90.3630   45.0720 C.2   225  MET225      0.2616
    121  O         36.3990   89.6350   44.9710 O.2   225  MET225     -0.2715
    122  CB        37.6470   92.6130   43.9720 C.3   225  MET225      0.0427
    123  CG        36.1470   92.9310   43.9630 C.3   225  MET225      0.0599
    124  SD        35.3300   92.7340   45.5700 S.3   225  MET225     -0.1393
    125  CE        35.9590   94.1560   46.4650 C.3   225  MET225      0.0692
    126  N         38.1060   90.5050   46.1970 N.am  226  MET226     -0.1963
    127  CA        37.6500   90.0030   47.4690 C.3   226  MET226      0.1736
    128  C         37.8840   91.0700   48.5350 C.2   226  MET226      0.2616
    129  O         38.9140   91.7410   48.5440 O.2   226  MET226     -0.2715
    130  CB        38.3980   88.7230   47.8690 C.3   226  MET226      0.0427
    131  CG        38.1650   87.4820   46.9540 C.3   226  MET226      0.0599
    132  SD        36.4960   86.8490   47.2750 S.3   226  MET226     -0.1393
    133  CE        36.4010   85.6040   45.9940 C.3   226  MET226      0.0692
    134  N         36.9450   91.2050   49.4600 N.am  227  LEU227     -0.1977
    135  CA        37.1720   92.0160   50.6620 C.3   227  LEU227      0.1596
    136  C         38.1980   91.3470   51.5630 C.2   227  LEU227      0.2287
    137  O         38.3520   90.1260   51.5370 O.2   227  LEU227     -0.2864
    138  CB        35.8690   92.1100   51.4520 C.3   227  LEU227      0.0297
    139  CG        34.7450   92.7150   50.6360 C.3   227  LEU227      0.0022
    140  CD1       33.4250   92.4940   51.4120 C.3   227  LEU227      0.0001
    141  CD2       34.9880   94.1730   50.4640 C.3   227  LEU227      0.0001
    142  N         36.5380   88.5410   53.1720 N.3   230  ASP230     -0.1239
    143  CA        36.3870   87.3800   52.2610 C.3   230  ASP230      0.1674
    144  C         37.6740   86.5650   52.2540 C.2   230  ASP230      0.2266
    145  O         37.6790   85.3360   52.4500 O.2   230  ASP230     -0.2867
    146  CB        36.1440   87.8290   50.8180 C.3   230  ASP230      0.1410
    147  CG        34.7980   88.5080   50.6060 C.2   230  ASP230      0.3668
    148  OD1       33.8060   88.1650   51.2730 O.co2 230  ASP230     -0.2456
    149  OD2       34.7420   89.3850   49.7120 O.co2 230  ASP230     -0.2456
@<TRIPOS>BOND
     1    99    98    2
     2    97    98    1
     3    97   100    1
     4    97    96    1
     5    98   102   am
     6   101   100    1
     7    67    65    1
     8    59    58    2
     9    51    50    2
    10   117   116    1
    11    45    44    1
    12    45    46    1
    13   102   103    1
    14   103   104    1
    15    48    46   am
    16    48    49    1
    17    58    60   am
    18    58    57    1
    19   116   114   ar
    20   116   115   ar
    21   114   112   ar
    22    65    66    1
    23    65    62    1
    24    50    49    1
    25    50    53   am
    26    46    47    2
    27    75    74   ar
    28    54    57    1
    29    54    53    1
    30    54    55    1
    31   104   105    2
    32   104   106   am
    33    36    35    1
    34    49    52    1
    35    76    74   ar
    36   115   113   ar
    37   112   111   ar
    38    74    73    1
    39    61    62    1
    40    62    63    1
    41    55    56    2
    42   106   107    1
    43   113   111   ar
    44   111   110    1
    45    35    34    1
    46    73    72    1
    47    34    33    1
    48    63    64    2
    49   107   110    1
    50   107   108    1
    51    94    93    2
    52    72    69    1
    53    95    93   am
    54    93    92    1
    55   109   108    2
    56   108   118   am
    57    33    32    1
    58    32    29    1
    59    27    26    2
    60    14    13    2
    61    69    68    1
    62    69    70    1
    63    25    24    1
    64    25    26    1
    65    24    18   am
    66   118   119    1
    67    26    28   am
    68    92    89    1
    69    89    88    1
    70    89    90    1
    71    23    21    1
    72    71    70    2
    73    28    29    1
    74    29    30    1
    75    70    77   am
    76    40    39    2
    77    18    17    1
    78    18    19    2
    79    13    16   am
    80    13    12    1
    81    17    16    1
    82    17    20    1
    83   119   122    1
    84   119   120    1
    85    91    90    2
    86   123   122    1
    87   123   124    1
    88    15    12    1
    89    20    21    1
    90    30    37   am
    91    30    31    2
    92    12    11    1
    93    77    78    1
    94    21    22    1
    95    37    38    1
    96    39    38    1
    97   121   120    2
    98   120   126   am
    99    78    79    1
   100    78    81    1
   101    42    41    1
   102   124   125    1
   103    38    41    1
   104     4     3    2
   105    11     3   am
   106    79    80    2
   107   133   132    1
   108   126   127    1
   109     3     2    1
   110    41    43    1
   111    81    82    1
   112   131   132    1
   113   131   130    1
   114   127   130    1
   115   127   128    1
   116    83    82   ar
   117    83    85   ar
   118     2     1    1
   119     2     5    1
   120    82    84   ar
   121   128   129    2
   122   128   134   am
   123     5     6    1
   124    85    87   ar
   125    84    86   ar
   126   134   135    1
   127     6     8   ar
   128     6     7   ar
   129   149   147   ar
   130     8    10   ar
   131    87    86   ar
   132   141   139    1
   133     7     9   ar
   134   147   146    1
   135   147   148   ar
   136   139   140    1
   137   139   138    1
   138   135   138    1
   139   135   136    1
   140   146   143    1
   141    10     9   ar
   142   137   136    2
   143   144   143    1
   144   144   145    2
   145   143   142    1
