@<TRIPOS>MOLECULE
tmp/3exeA00.pdb
 164 157 0 0 0
SMALL
GASTEIGER

@<TRIPOS>ATOM
      1  N         38.0530   18.0770   62.1130 N.3    63  PHE63      -0.1241
      2  CA        36.8570   18.9000   61.9440 C.3    63  PHE63       0.1605
      3  C         36.7070   19.9810   62.9940 C.2    63  PHE63       0.2264
      4  O         36.9800   19.7430   64.1720 O.2    63  PHE63      -0.2867
      5  CB        35.6050   18.0110   61.9200 C.3    63  PHE63       0.0534
      6  CG        35.4330   17.3330   60.6440 C.ar   63  PHE63      -0.0203
      7  CD1       35.1100   18.0690   59.5120 C.ar   63  PHE63      -0.0042
      8  CD2       35.6440   15.9740   60.5390 C.ar   63  PHE63      -0.0042
      9  CE1       34.9870   17.4450   58.3190 C.ar   63  PHE63      -0.0003
     10  CE2       35.5100   15.3460   59.3650 C.ar   63  PHE63      -0.0003
     11  CZ        35.1750   16.0600   58.2730 C.ar   63  PHE63      -0.0000
     12  N         33.5500   22.9210   63.2290 N.3    65  HIS65      -0.1241
     13  CA        32.4220   23.6120   62.5730 C.3    65  HIS65       0.1621
     14  C         31.9840   24.6750   63.5730 C.2    65  HIS65       0.2264
     15  O         31.6390   24.3250   64.6970 O.2    65  HIS65      -0.2867
     16  CB        31.2650   22.6250   62.3550 C.3    65  HIS65       0.0745
     17  CG        31.6300   21.4350   61.5240 C.ar   65  HIS65       0.0817
     18  ND1       32.1040   20.2600   62.0670 N.ar   65  HIS65      -0.2268
     19  CD2       31.5090   21.2130   60.1930 C.ar   65  HIS65       0.1154
     20  CE1       32.2620   19.3580   61.1060 C.ar   65  HIS65       0.1986
     21  NE2       31.8810   19.8970   59.9650 N.ar   65  HIS65      -0.2212
     22  N         24.7240   32.1110   64.7840 N.3    70  GLN70      -0.1245
     23  CA        23.5720   31.2880   65.1770 C.3    70  GLN70       0.1566
     24  C         23.3000   31.2720   66.6720 C.2    70  GLN70       0.2260
     25  O         22.5320   30.4340   67.1260 O.2    70  GLN70      -0.2867
     26  CB        23.6820   29.8170   64.6550 C.3    70  GLN70       0.0367
     27  CG        24.1850   29.7320   63.1990 C.3    70  GLN70       0.0905
     28  CD        24.1030   28.3680   62.5640 C.2    70  GLN70       0.2608
     29  OE1       23.7520   27.3440   63.2030 O.2    70  GLN70      -0.2717
     30  NE2       24.3580   28.3350   61.3060 N.am   70  GLN70      -0.0878
     31  N         26.8550   18.1700   64.3350 N.3    91  TYR91      -0.1227
     32  CA        28.2760   18.3980   64.7120 C.3    91  TYR91       0.1736
     33  C         28.5470   19.9240   65.0610 C.2    91  TYR91       0.2595
     34  O         29.6170   20.2840   65.5510 O.2    91  TYR91      -0.2718
     35  CB        29.1910   17.9470   63.5470 C.3    91  TYR91       0.0548
     36  CG        28.5590   18.4070   62.2710 C.ar   91  TYR91      -0.0200
     37  CD1       28.7280   19.7510   61.8520 C.ar   91  TYR91      -0.0009
     38  CD2       27.7160   17.5680   61.5580 C.ar   91  TYR91      -0.0009
     39  CE1       28.0670   20.2450   60.7660 C.ar   91  TYR91       0.0417
     40  CE2       27.0510   18.0300   60.4360 C.ar   91  TYR91       0.0417
     41  CZ        27.2220   19.3710   60.0590 C.ar   91  TYR91       0.1957
     42  OH        26.5660   19.8520   58.9820 O.3    91  TYR91      -0.2866
     43  N         27.6340   20.8210   64.6970 N.am   92  ARG92      -0.1980
     44  CA        27.9330   22.2560   64.8490 C.3    92  ARG92       0.1597
     45  C         27.4130   22.6440   66.2390 C.2    92  ARG92       0.2287
     46  O         26.4700   23.4250   66.3640 O.2    92  ARG92      -0.2864
     47  CB        27.2960   23.0880   63.7140 C.3    92  ARG92       0.0334
     48  CG        27.7740   24.5970   63.6250 C.3    92  ARG92       0.0492
     49  CD        27.0710   25.3750   62.4960 C.3    92  ARG92       0.2205
     50  NE        27.2700   24.6670   61.2080 N.pl3  92  ARG92      -0.0865
     51  CZ        28.3660   24.7270   60.4530 C.cat  92  ARG92       0.5346
     52  NH1       29.4450   25.4870   60.7790 N.pl3  92  ARG92       0.1354
     53  NH2       28.4280   23.9770   59.3790 N.pl3  92  ARG92       0.1354
     54  N         28.0380   13.0720   64.0470 N.3   138  GLY138     -0.1210
     55  CA        28.7180   13.5010   62.8290 C.3   138  GLY138      0.1956
     56  C         28.1400   12.8790   61.5680 C.2   138  GLY138      0.2612
     57  O         28.5330   13.2450   60.4900 O.2   138  GLY138     -0.2717
     58  N         27.1970   11.9410   61.6860 N.am  139  ILE139     -0.1965
     59  CA        26.5480   11.4270   60.4750 C.3   139  ILE139      0.1727
     60  C         25.2260   12.2070   60.1620 C.2   139  ILE139      0.2616
     61  O         24.2530   12.2090   60.9600 O.2   139  ILE139     -0.2715
     62  CB        26.3080    9.8490   60.5450 C.3   139  ILE139      0.0290
     63  CG1       27.6340    9.0920   60.7990 C.3   139  ILE139      0.0022
     64  CG2       25.5460    9.3610   59.2420 C.3   139  ILE139      0.0023
     65  CD1       28.7470    9.3810   59.6730 C.3   139  ILE139      0.0001
     66  N         25.1890   12.8930   59.0260 N.am  140  VAL140     -0.1977
     67  CA        24.0300   13.7310   58.7280 C.3   140  VAL140      0.1596
     68  C         22.6960   12.9530   58.7980 C.2   140  VAL140      0.2287
     69  O         22.5580   11.9100   58.1830 O.2   140  VAL140     -0.2864
     70  CB        24.2120   14.5150   57.3610 C.3   140  VAL140      0.0276
     71  CG1       22.8360   15.1970   56.9330 C.3   140  VAL140      0.0022
     72  CG2       25.2500   15.5840   57.5400 C.3   140  VAL140      0.0022
     73  N         20.1310   20.2960   60.2320 N.3   168  GLY168     -0.1210
     74  CA        20.2940   21.4450   59.3520 C.3   168  GLY168      0.1956
     75  C         19.4380   21.3780   58.0930 C.2   168  GLY168      0.2612
     76  O         18.8050   20.3480   57.7970 O.2   168  GLY168     -0.2717
     77  N         19.4590   22.4450   57.3060 N.am  169  ASP169     -0.1959
     78  CA        18.7280   22.4440   56.0440 C.3   169  ASP169      0.1840
     79  C         19.2440   21.3440   55.1050 C.2   169  ASP169      0.2623
     80  O         18.4750   20.7180   54.3730 O.2   169  ASP169     -0.2715
     81  CB        18.8140   23.8360   55.3320 C.3   169  ASP169      0.1450
     82  CG        20.2490   24.3250   55.1940 C.2   169  ASP169      0.3671
     83  OD1       20.8070   24.1530   54.1060 O.co2 169  ASP169     -0.2456
     84  OD2       20.7960   24.7920   56.2290 O.co2 169  ASP169     -0.2456
     85  N         20.5560   21.0720   55.1080 N.am  170  GLY170     -0.1940
     86  CA        21.0260   20.0280   54.1920 C.3   170  GLY170      0.2014
     87  C         20.5100   18.6490   54.6060 C.2   170  GLY170      0.2638
     88  O         20.0530   17.8320   53.7740 O.2   170  GLY170     -0.2714
     89  N         20.5760   18.4060   55.9170 N.am  171  ALA171     -0.1977
     90  CA        20.1040   17.1680   56.5540 C.3   171  ALA171      0.1597
     91  C         18.6050   16.9160   56.3210 C.2   171  ALA171      0.2287
     92  O         18.1850   15.7630   56.3320 O.2   171  ALA171     -0.2864
     93  CB        20.4000   17.2290   58.0820 C.3   171  ALA171      0.0319
     94  N         17.2510   13.9920   54.3070 N.3   174  GLN174     -0.1245
     95  CA        17.6070   12.6190   54.7210 C.3   174  GLN174      0.1566
     96  C         16.3210   11.8110   54.9340 C.2   174  GLN174      0.2260
     97  O         15.3800   12.2320   55.6390 O.2   174  GLN174     -0.2867
     98  CB        18.4210   12.5830   55.9820 C.3   174  GLN174      0.0367
     99  CG        19.9190   12.8610   55.7510 C.3   174  GLN174      0.0905
    100  CD        20.6430   11.5220   55.5290 C.2   174  GLN174      0.2608
    101  OE1       20.4480   10.5740   56.3140 O.2   174  GLN174     -0.2717
    102  NE2       21.4370   11.4220   54.4460 N.am  174  GLN174     -0.0878
    103  N         17.4430   23.8130   61.6730 N.3   196  GLU196     -0.1245
    104  CA        18.2860   25.0150   61.7070 C.3   196  GLU196      0.1567
    105  C         18.6940   25.3480   60.2880 C.2   196  GLU196      0.2260
    106  O         19.6330   24.7310   59.7040 O.2   196  GLU196     -0.2867
    107  CB        19.5710   24.7990   62.5080 C.3   196  GLU196      0.0388
    108  CG        19.4360   24.5780   64.0240 C.3   196  GLU196      0.1160
    109  CD        20.8230   24.7230   64.7540 C.2   196  GLU196      0.3649
    110  OE1       21.7690   23.9520   64.4080 O.co2 196  GLU196     -0.2457
    111  OE2       20.9790   25.6190   65.6520 O.co2 196  GLU196     -0.2457
    112  N         20.4140   27.6260   57.9650 N.3   198  ASN198     -0.1240
    113  CA        21.3390   28.7200   57.6640 C.3   198  ASN198      0.1653
    114  C         21.6270   28.8790   56.1610 C.2   198  ASN198      0.2266
    115  O         22.6290   29.4870   55.7640 O.2   198  ASN198     -0.2867
    116  CB        22.6470   28.5140   58.4650 C.3   198  ASN198      0.1155
    117  CG        23.2870   27.1890   58.1410 C.2   198  ASN198      0.2627
    118  OD1       22.9590   26.6010   57.1210 O.2   198  ASN198     -0.2716
    119  ND2       24.1800   26.7250   58.9680 N.am  198  ASN198     -0.0877
    120  N         22.5140   26.9890   53.7170 N.3   200  TYR200     -0.1227
    121  CA        23.4840   26.2120   52.9530 C.3   200  TYR200      0.1736
    122  C         23.7060   24.8940   53.6400 C.2   200  TYR200      0.2596
    123  O         23.7440   24.8160   54.8800 O.2   200  TYR200     -0.2718
    124  CB        24.8500   26.9640   52.8530 C.3   200  TYR200      0.0548
    125  CG        24.6970   28.3300   52.1930 C.ar  200  TYR200     -0.0200
    126  CD1       24.5510   28.4380   50.8000 C.ar  200  TYR200     -0.0009
    127  CD2       24.6640   29.4980   52.9600 C.ar  200  TYR200     -0.0009
    128  CE1       24.3270   29.6540   50.1810 C.ar  200  TYR200      0.0417
    129  CE2       24.4790   30.7580   52.3460 C.ar  200  TYR200      0.0417
    130  CZ        24.3040   30.8140   50.9480 C.ar  200  TYR200      0.1957
    131  OH        24.1360   32.0240   50.3010 O.3   200  TYR200     -0.2866
    132  N         23.8820   23.8630   52.8360 N.am  201  GLY201     -0.1942
    133  CA        24.2190   22.5610   53.3530 C.3   201  GLY201      0.2014
    134  C         25.6030   22.3440   52.7800 C.2   201  GLY201      0.2638
    135  O         25.7350   21.9260   51.6250 O.2   201  GLY201     -0.2714
    136  N         26.6190   22.6510   53.5810 N.am  202  MET202     -0.1976
    137  CA        28.0100   22.6750   53.1310 C.3   202  MET202      0.1605
    138  C         28.1600   23.7550   52.0590 C.2   202  MET202      0.2287
    139  O         28.0450   24.9190   52.3630 O.2   202  MET202     -0.2864
    140  CB        28.5140   21.2880   52.6940 C.3   202  MET202      0.0413
    141  CG        30.0320   21.2840   52.3320 C.3   202  MET202      0.0598
    142  SD        30.7280   19.6150   52.3780 S.3   202  MET202     -0.1393
    143  CE        32.3620   19.7560   51.6670 C.3   202  MET202      0.0692
    144  N         25.1940   31.3200   59.2510 N.3   261  ARG261     -0.1245
    145  CA        26.5680   31.1200   59.7860 C.3   261  ARG261      0.1563
    146  C         27.5880   32.0280   59.1200 C.2   261  ARG261      0.2260
    147  O         27.7090   32.0650   57.8840 O.2   261  ARG261     -0.2867
    148  CB        26.9920   29.6430   59.7360 C.3   261  ARG261      0.0307
    149  CG        27.0660   29.0890   58.3210 C.3   261  ARG261      0.0489
    150  CD        27.8710   27.7550   58.3030 C.3   261  ARG261      0.2205
    151  NE        27.5810   26.9490   57.0810 N.pl3 261  ARG261     -0.0865
    152  CZ        28.0140   27.2490   55.8720 C.cat 261  ARG261      0.5346
    153  NH1       28.7670   28.3380   55.7250 N.pl3 261  ARG261      0.1354
    154  NH2       27.7310   26.4490   54.8000 N.pl3 261  ARG261      0.1354
    155  N         31.4100   26.2750   55.9780 N.3   265  HIS265     -0.1241
    156  CA        30.8820   25.0260   56.5640 C.3   265  HIS265      0.1621
    157  C         31.7430   24.4890   57.6960 C.2   265  HIS265      0.2264
    158  O         31.2350   24.0580   58.7160 O.2   265  HIS265     -0.2867
    159  CB        30.7680   23.9130   55.5370 C.3   265  HIS265      0.0745
    160  CG        30.2740   22.6310   56.1380 C.ar  265  HIS265      0.0817
    161  ND1       29.0250   22.5230   56.7210 N.ar  265  HIS265     -0.2268
    162  CD2       30.8780   21.4280   56.3050 C.ar  265  HIS265      0.1154
    163  CE1       28.8870   21.3040   57.2140 C.ar  265  HIS265      0.1986
    164  NE2       29.9820   20.6150   56.9570 N.ar  265  HIS265     -0.2212
@<TRIPOS>BOND
     1   128   126   ar
     2   128   130   ar
     3   131   130    1
     4   126   125   ar
     5   130   129   ar
     6   135   134    2
     7   143   142    1
     8   138   139    2
     9   138   137    1
    10   125   124    1
    11   125   127   ar
    12   141   142    1
    13   141   140    1
    14   129   127   ar
    15   140   137    1
    16   134   133    1
    17   134   136   am
    18   132   133    1
    19   132   122   am
    20   124   121    1
    21   121   122    1
    22   121   120    1
    23   137   136    1
    24   122   123    2
    25    88    87    2
    26    83    82   ar
    27    86    87    1
    28    86    85    1
    29    94    95    1
    30    80    79    2
    31   102   100   am
    32    87    89   am
    33    95    96    1
    34    95    98    1
    35   154   152    1
    36    96    97    2
    37    79    85   am
    38    79    78    1
    39    82    81    1
    40    82    84   ar
    41    81    78    1
    42   100    99    1
    43   100   101    2
    44   159   160    1
    45   159   156    1
    46   153   152    1
    47    99    98    1
    48   115   114    2
    49   152   151    2
    50    89    90    1
    51   155   156    1
    52    78    77    1
    53   160   162   ar
    54   160   161   ar
    55   114   113    1
    56   162   164   ar
    57    91    92    2
    58    91    90    1
    59    90    93    1
    60   156   157    1
    61   161   163   ar
    62    71    70    1
    63   164   163   ar
    64   151   150    1
    65   118   117    2
    66    77    75   am
    67    70    72    1
    68    70    67    1
    69   113   112    1
    70   113   116    1
    71   157   158    2
    72    76    75    2
    73   147   146    2
    74    75    74    1
    75   117   116    1
    76   117   119   am
    77    69    68    2
    78    11     9   ar
    79    11    10   ar
    80   150   149    1
    81     9     7   ar
    82   149   148    1
    83    67    68    1
    84    67    66    1
    85    42    41    1
    86    66    60   am
    87   146   145    1
    88    64    62    1
    89   144   145    1
    90    74    73    1
    91    10     8   ar
    92    53    51    1
    93     7     6   ar
    94    65    63    1
    95   106   105    2
    96   148   145    1
    97    21    19   ar
    98    21    20   ar
    99    41    40   ar
   100    41    39   ar
   101    60    59    1
   102    60    61    2
   103    19    17   ar
   104   105   104    1
   105    40    38   ar
   106    51    52    1
   107    51    50    2
   108    59    62    1
   109    59    58    1
   110    57    56    2
   111     8     6   ar
   112    62    63    1
   113     6     5    1
   114    39    37   ar
   115    20    18   ar
   116    50    49    1
   117    30    28   am
   118    17    18   ar
   119    17    16    1
   120    38    36   ar
   121    56    58   am
   122    56    55    1
   123   103   104    1
   124   104   107    1
   125    37    36   ar
   126     5     2    1
   127     2     1    1
   128     2     3    1
   129    36    35    1
   130    16    13    1
   131    49    48    1
   132   107   108    1
   133    28    27    1
   134    28    29    2
   135    13    12    1
   136    13    14    1
   137    55    54    1
   138     3     4    2
   139    27    26    1
   140    35    32    1
   141    14    15    2
   142    48    47    1
   143    47    44    1
   144   108   109    1
   145    31    32    1
   146   110   109   ar
   147    26    23    1
   148    43    44    1
   149    43    33   am
   150    32    33    1
   151   109   111   ar
   152    22    23    1
   153    44    45    1
   154    33    34    2
   155    23    24    1
   156    45    46    2
   157    24    25    2
