@<TRIPOS>MOLECULE
tmp/3exmA00.pdb
 171 166 0 0 0
SMALL
GASTEIGER

@<TRIPOS>ATOM
      1  N        -12.3110    4.2360  -20.7970 N.3    23  ILE23      -0.1245
      2  CA       -12.1750    4.8940  -19.4910 C.3    23  ILE23       0.1561
      3  C        -12.9680    4.0140  -18.5200 C.2    23  ILE23       0.2260
      4  O        -14.1470    3.7190  -18.7670 O.2    23  ILE23      -0.2867
      5  CB       -12.7690    6.3060  -19.5040 C.3    23  ILE23       0.0252
      6  CG1      -11.8450    7.2330  -20.3090 C.3    23  ILE23       0.0019
      7  CG2      -12.9460    6.8100  -18.0690 C.3    23  ILE23       0.0019
      8  CD1      -12.4520    8.5970  -20.5480 C.3    23  ILE23       0.0001
      9  N        -13.4680    3.8520  -14.2610 N.3    25  ARG25      -0.1245
     10  CA       -13.1150    4.4800  -12.9800 C.3    25  ARG25       0.1563
     11  C        -13.9000    3.7970  -11.8640 C.2    25  ARG25       0.2260
     12  O        -15.1380    3.9610  -11.7720 O.2    25  ARG25      -0.2867
     13  CB       -13.4570    5.9790  -13.0310 C.3    25  ARG25       0.0307
     14  CG       -12.4630    6.7650  -13.8610 C.3    25  ARG25       0.0489
     15  CD       -13.0880    8.0470  -14.4350 C.3    25  ARG25       0.2205
     16  NE       -12.1490    8.6600  -15.3700 N.pl3  25  ARG25      -0.0865
     17  CZ       -12.3450    9.8220  -15.9950 C.cat  25  ARG25       0.5346
     18  NH1      -13.4350   10.5480  -15.7720 N.pl3  25  ARG25       0.1354
     19  NH2      -11.4110   10.2660  -16.8320 N.pl3  25  ARG25       0.1354
     20  N         -3.1940    5.7490  -11.9730 N.3    77  GLN77      -0.1231
     21  CA        -3.9420    6.2340  -10.8060 C.3    77  GLN77       0.1698
     22  C         -4.6040    7.5940  -11.0700 C.2    77  GLN77       0.2592
     23  O         -4.0910    8.4080  -11.8550 O.2    77  GLN77      -0.2718
     24  CB        -3.0430    6.3100   -9.5710 C.3    77  GLN77       0.0381
     25  CG        -2.7100    4.9530   -8.9690 C.3    77  GLN77       0.0905
     26  CD        -1.7810    5.0650   -7.7650 C.2    77  GLN77       0.2608
     27  OE1       -1.7730    6.0730   -7.0470 O.2    77  GLN77      -0.2717
     28  NE2       -0.9630    4.0410   -7.5640 N.am   77  GLN77      -0.0878
     29  N         -5.7350    7.8320  -10.4100 N.am   78  TRP78      -0.1962
     30  CA        -6.3870    9.1470  -10.4500 C.3    78  TRP78       0.1771
     31  C         -5.4890   10.1500   -9.7250 C.2    78  TRP78       0.2620
     32  O         -5.2890   10.0250   -8.5040 O.2    78  TRP78      -0.2715
     33  CB        -7.7460    9.1030   -9.7400 C.3    78  TRP78       0.0590
     34  CG        -8.5240   10.3640   -9.8920 C.ar   78  TRP78       0.0006
     35  CD1       -8.6550   11.3710   -8.9610 C.ar   78  TRP78       0.0946
     36  CD2       -9.2580   10.7840  -11.0540 C.ar   78  TRP78       0.0152
     37  NE1       -9.4380   12.3890   -9.4830 N.ar   78  TRP78      -0.2442
     38  CE2       -9.8250   12.0490  -10.7580 C.ar   78  TRP78       0.0810
     39  CE3       -9.4730   10.2210  -12.3300 C.ar   78  TRP78       0.0012
     40  CZ2      -10.6270   12.7560  -11.6850 C.ar   78  TRP78       0.0191
     41  CZ3      -10.2710   10.9150  -13.2470 C.ar   78  TRP78       0.0001
     42  CH2      -10.8290   12.1770  -12.9270 C.ar   78  TRP78       0.0015
     43  N         -4.9480   11.1100  -10.4740 N.am   79  PHE79      -0.1960
     44  CA        -4.0600   12.1100   -9.8740 C.3    79  PHE79       0.1771
     45  C         -4.8180   13.2500   -9.1920 C.2    79  PHE79       0.2620
     46  O         -5.9760   13.4980   -9.4700 O.2    79  PHE79      -0.2715
     47  CB        -3.0540   12.6790  -10.8940 C.3    79  PHE79       0.0574
     48  CG        -3.6740   13.5490  -11.9530 C.ar   79  PHE79      -0.0200
     49  CD1       -4.0480   14.8630  -11.6740 C.ar   79  PHE79      -0.0042
     50  CD2       -3.8430   13.0620  -13.2580 C.ar   79  PHE79      -0.0042
     51  CE1       -4.6490   15.6790  -12.6580 C.ar   79  PHE79      -0.0003
     52  CE2       -4.4310   13.8790  -14.2530 C.ar   79  PHE79      -0.0003
     53  CZ        -4.8340   15.1780  -13.9490 C.ar   79  PHE79      -0.0000
     54  N         -4.1210   13.9690   -8.3310 N.am   80  GLY80      -0.1940
     55  CA        -4.7180   15.1440   -7.7000 C.3    80  GLY80       0.2014
     56  C         -5.8450   14.7850   -6.7440 C.2    80  GLY80       0.2639
     57  O         -5.8790   13.7040   -6.1390 O.2    80  GLY80      -0.2714
     58  N         -6.7680   15.7240   -6.5850 N.am   81  THR81      -0.1950
     59  CA        -7.8810   15.5640   -5.6490 C.3    81  THR81       0.1897
     60  C         -9.0150   14.7170   -6.2670 C.2    81  THR81       0.2313
     61  O         -9.1350   14.5780   -7.5090 O.2    81  THR81      -0.2863
     62  CB        -8.4220   16.9570   -5.2540 C.3    81  THR81       0.1794
     63  OG1       -8.7810   17.6220   -6.4550 O.3    81  THR81      -0.2208
     64  CG2       -7.3470   17.7680   -4.5370 C.3    81  THR81       0.0378
     65  N        -12.9200   13.5080   -7.2110 N.3    83  VAL83      -0.1245
     66  CA       -14.0240   14.1640   -7.8730 C.3    83  VAL83       0.1561
     67  C        -15.3510   13.5200   -7.4840 C.2    83  VAL83       0.2260
     68  O        -15.4390   12.3000   -7.3500 O.2    83  VAL83      -0.2867
     69  CB       -13.7750   14.1030   -9.3860 C.3    83  VAL83       0.0252
     70  CG1      -15.0420   14.2820  -10.2010 C.3    83  VAL83       0.0019
     71  CG2      -12.6800   15.1400   -9.7320 C.3    83  VAL83       0.0019
     72  N        -19.6440   17.1380  -12.6820 N.3    96  TRP96      -0.1241
     73  CA       -18.5730   16.6990  -11.7760 C.3    96  TRP96       0.1605
     74  C        -18.0790   17.9090  -10.9990 C.2    96  TRP96       0.2264
     75  O        -17.9950   19.0090  -11.5500 O.2    96  TRP96      -0.2867
     76  CB       -17.3950   16.0790  -12.5310 C.3    96  TRP96       0.0550
     77  CG       -17.7540   15.0480  -13.6050 C.ar   96  TRP96       0.0003
     78  CD1      -18.9770   14.4680  -13.8670 C.ar   96  TRP96       0.0946
     79  CD2      -16.8250   14.4880  -14.5250 C.ar   96  TRP96       0.0152
     80  NE1      -18.8570   13.5950  -14.9640 N.ar   96  TRP96      -0.2442
     81  CE2      -17.5410   13.5940  -15.3710 C.ar   96  TRP96       0.0810
     82  CE3      -15.4430   14.6900  -14.7470 C.ar   96  TRP96       0.0012
     83  CZ2      -16.9030   12.8690  -16.3990 C.ar   96  TRP96       0.0191
     84  CZ3      -14.8100   13.9690  -15.7680 C.ar   96  TRP96       0.0001
     85  CH2      -15.5520   13.0810  -16.5950 C.ar   96  TRP96       0.0015
     86  N        -14.9980   19.6860   -8.9200 N.3    98  PHE98      -0.1241
     87  CA       -13.5530   19.7230   -8.7360 C.3    98  PHE98       0.1605
     88  C        -13.1710   20.6980   -7.6230 C.2    98  PHE98       0.2264
     89  O        -13.6690   21.8430   -7.6030 O.2    98  PHE98      -0.2867
     90  CB       -12.8610   20.1700  -10.0300 C.3    98  PHE98       0.0534
     91  CG       -12.8670   19.1160  -11.1190 C.ar   98  PHE98      -0.0203
     92  CD1      -11.7490   18.3210  -11.3290 C.ar   98  PHE98      -0.0042
     93  CD2      -13.9720   18.9370  -11.9270 C.ar   98  PHE98      -0.0042
     94  CE1      -11.7410   17.3280  -12.3230 C.ar   98  PHE98      -0.0003
     95  CE2      -13.9650   17.9670  -12.9510 C.ar   98  PHE98      -0.0003
     96  CZ       -12.8560   17.1700  -13.1320 C.ar   98  PHE98      -0.0000
     97  N        -18.2540   20.8860  -13.5210 N.3   109  TYR109     -0.1241
     98  CA       -17.8500   20.5240  -14.8560 C.3   109  TYR109      0.1605
     99  C        -19.0120   19.7440  -15.4760 C.2   109  TYR109      0.2264
    100  O        -19.3740   18.6830  -14.9830 O.2   109  TYR109     -0.2867
    101  CB       -16.6220   19.6170  -14.7510 C.3   109  TYR109      0.0534
    102  CG       -16.0740   19.1430  -16.0460 C.ar  109  TYR109     -0.0201
    103  CD1      -15.3690   20.0290  -16.8630 C.ar  109  TYR109     -0.0009
    104  CD2      -16.1830   17.8000  -16.4370 C.ar  109  TYR109     -0.0009
    105  CE1      -14.8010   19.6090  -18.0640 C.ar  109  TYR109      0.0417
    106  CE2      -15.6050   17.3620  -17.6590 C.ar  109  TYR109      0.0417
    107  CZ       -14.9400   18.2940  -18.4550 C.ar  109  TYR109      0.1957
    108  OH       -14.3580   17.8950  -19.6470 O.3   109  TYR109     -0.2866
    109  N        -20.3110   17.4660  -18.1340 N.3   111  ASN111     -0.1240
    110  CA       -19.8000   16.5570  -19.1350 C.3   111  ASN111      0.1653
    111  C        -20.9540   16.0820  -20.0210 C.2   111  ASN111      0.2266
    112  O        -21.7540   15.2050  -19.6400 O.2   111  ASN111     -0.2867
    113  CB       -19.1430   15.3490  -18.4810 C.3   111  ASN111      0.1155
    114  CG       -18.3150   14.5810  -19.4620 C.2   111  ASN111      0.2627
    115  OD1      -17.2780   15.0640  -19.8950 O.2   111  ASN111     -0.2716
    116  ND2      -18.7790   13.3860  -19.8470 N.am  111  ASN111     -0.0877
    117  N        -18.5910    9.8210  -24.4290 N.3   127  ASP127     -0.1239
    118  CA       -18.3920   11.2560  -24.1780 C.3   127  ASP127      0.1674
    119  C        -18.7660   12.0100  -25.4440 C.2   127  ASP127      0.2266
    120  O        -18.5070   11.5270  -26.5550 O.2   127  ASP127     -0.2867
    121  CB       -16.9250   11.5110  -23.8420 C.3   127  ASP127      0.1410
    122  CG       -16.6840   12.9000  -23.2720 C.2   127  ASP127      0.3668
    123  OD1      -16.8290   13.0630  -22.0470 O.co2 127  ASP127     -0.2456
    124  OD2      -16.3000   13.8040  -24.0580 O.co2 127  ASP127     -0.2456
    125  N        -17.6450   15.1790  -26.1780 N.3   129  PHE129     -0.1241
    126  CA       -16.5220   16.0870  -26.5160 C.3   129  PHE129      0.1605
    127  C        -16.7040   17.4730  -25.9130 C.2   129  PHE129      0.2264
    128  O        -15.8810   17.9040  -25.1250 O.2   129  PHE129     -0.2867
    129  CB       -16.2790   16.1940  -28.0300 C.3   129  PHE129      0.0534
    130  CG       -16.0310   14.8620  -28.6850 C.ar  129  PHE129     -0.0203
    131  CD1      -14.7590   14.2980  -28.6770 C.ar  129  PHE129     -0.0042
    132  CD2      -17.0760   14.1610  -29.2530 C.ar  129  PHE129     -0.0042
    133  CE1      -14.5300   13.0290  -29.2730 C.ar  129  PHE129     -0.0003
    134  CE2      -16.8580   12.8950  -29.8610 C.ar  129  PHE129     -0.0003
    135  CZ       -15.5850   12.3510  -29.8550 C.ar  129  PHE129     -0.0000
    136  N        -17.7990   20.2850  -23.4330 N.3   131  ASP131     -0.1239
    137  CA       -18.0680   20.3670  -21.9870 C.3   131  ASP131      0.1674
    138  C        -18.3910   21.8100  -21.5980 C.2   131  ASP131      0.2266
    139  O        -18.2790   22.7220  -22.4220 O.2   131  ASP131     -0.2867
    140  CB       -16.8530   19.9110  -21.1660 C.3   131  ASP131      0.1410
    141  CG       -15.9460   18.9910  -21.9420 C.2   131  ASP131      0.3668
    142  OD1      -16.2840   17.8000  -22.0050 O.co2 131  ASP131     -0.2456
    143  OD2      -14.9490   19.4980  -22.5220 O.co2 131  ASP131     -0.2456
    144  N        -15.9640   24.3580  -22.8210 N.3   143  ARG143     -0.1231
    145  CA       -14.6480   23.7270  -22.9480 C.3   143  ARG143      0.1694
    146  C        -14.6560   22.8100  -24.1700 C.2   143  ARG143      0.2592
    147  O        -15.6960   22.2110  -24.5160 O.2   143  ARG143     -0.2718
    148  CB       -14.2950   22.9120  -21.6990 C.3   143  ARG143      0.0321
    149  CG       -14.5100   23.6260  -20.3780 C.3   143  ARG143      0.0489
    150  CD       -13.2550   23.7310  -19.5250 C.3   143  ARG143      0.2205
    151  NE       -12.4660   22.4960  -19.4440 N.pl3 143  ARG143     -0.0865
    152  CZ       -12.1250   21.9070  -18.3010 C.cat 143  ARG143      0.5346
    153  NH1      -12.5110   22.4350  -17.1350 N.pl3 143  ARG143      0.1354
    154  NH2      -11.3980   20.7910  -18.3230 N.pl3 143  ARG143      0.1354
    155  N        -13.4970   22.7250  -24.8270 N.am  144  ASP144     -0.1974
    156  CA       -13.2900   21.7830  -25.9530 C.3   144  ASP144      0.1709
    157  C        -14.2410   21.9100  -27.1480 C.2   144  ASP144      0.2293
    158  O        -14.5280   20.9180  -27.8320 O.2   144  ASP144     -0.2864
    159  CB       -13.2720   20.3440  -25.4310 C.3   144  ASP144      0.1436
    160  CG       -12.0990   20.0910  -24.4990 C.2   144  ASP144      0.3671
    161  OD1      -12.1650   19.1350  -23.7190 O.co2 144  ASP144     -0.2456
    162  OD2      -11.1120   20.8540  -24.5760 O.co2 144  ASP144     -0.2456
    163  N        -12.2580   20.4670  -30.0620 N.3   147  GLU147     -0.1245
    164  CA       -12.3030   19.0020  -30.1000 C.3   147  GLU147      0.1567
    165  C        -13.6520   18.4710  -30.5850 C.2   147  GLU147      0.2260
    166  O        -13.7120   17.5210  -31.3770 O.2   147  GLU147     -0.2867
    167  CB       -11.8860   18.4300  -28.7550 C.3   147  GLU147      0.0388
    168  CG       -10.4190   18.7530  -28.4760 C.3   147  GLU147      0.1160
    169  CD        -9.9230   18.2180  -27.1560 C.2   147  GLU147      0.3649
    170  OE1      -10.7460   17.9190  -26.2640 O.co2 147  GLU147     -0.2457
    171  OE2       -8.6840   18.0960  -27.0140 O.co2 147  GLU147     -0.2457
@<TRIPOS>BOND
     1   166   165    2
     2   165   164    1
     3   164   163    1
     4   164   167    1
     5   134   135   ar
     6   134   132   ar
     7   135   133   ar
     8   133   131   ar
     9   132   130   ar
    10   167   168    1
    11   130   131   ar
    12   130   129    1
    13   168   169    1
    14   129   126    1
    15   158   157    2
    16   169   171   ar
    17   169   170   ar
    18   157   156    1
    19   120   119    2
    20   126   125    1
    21   126   127    1
    22   156   159    1
    23   156   155    1
    24   127   128    2
    25   119   118    1
    26   159   160    1
    27   155   146   am
    28   162   160   ar
    29   147   146    2
    30   160   161   ar
    31   117   118    1
    32   118   121    1
    33   146   145    1
    34   124   122   ar
    35   121   122    1
    36   136   137    1
    37   122   123   ar
    38   145   144    1
    39   145   148    1
    40   143   141   ar
    41   139   138    2
    42   142   141   ar
    43   137   138    1
    44   137   140    1
    45   141   140    1
    46   148   149    1
    47     1     2    1
    48     8     6    1
    49   149   150    1
    50     6     5    1
    51   111   112    2
    52   111   110    1
    53   115   114    2
    54   116   114   am
    55   108   107    1
    56   150   151    1
    57     5     2    1
    58     5     7    1
    59     2     3    1
    60   114   113    1
    61   151   152    2
    62   110   113    1
    63   110   109    1
    64     4     3    2
    65   107   105   ar
    66   107   106   ar
    67   154   152    1
    68   152   153    1
    69   105   103   ar
    70   106   104   ar
    71   103   102   ar
    72    19    17    1
    73    85    83   ar
    74    85    84   ar
    75   104   102   ar
    76    83    81   ar
    77   102   101    1
    78    17    18    1
    79    17    16    2
    80    84    82   ar
    81    99   100    2
    82    99    98    1
    83    81    80   ar
    84    81    79   ar
    85    16    15    1
    86    80    78   ar
    87    98   101    1
    88    98    97    1
    89    82    79   ar
    90    79    77   ar
    91    15    14    1
    92     9    10    1
    93    52    53   ar
    94    52    50   ar
    95    53    51   ar
    96    78    77   ar
    97    14    13    1
    98    77    76    1
    99    50    48   ar
   100    41    42   ar
   101    41    39   ar
   102    96    95   ar
   103    96    94   ar
   104    13    10    1
   105    10    11    1
   106    95    93   ar
   107    42    40   ar
   108    72    73    1
   109    51    49   ar
   110    76    73    1
   111    39    36   ar
   112    94    92   ar
   113    20    21    1
   114    48    49   ar
   115    48    47    1
   116    93    91   ar
   117    11    12    2
   118    23    22    2
   119    73    74    1
   120    40    38   ar
   121    75    74    2
   122    92    91   ar
   123    91    90    1
   124    22    21    1
   125    22    29   am
   126    36    38   ar
   127    36    34   ar
   128    47    44    1
   129    21    24    1
   130    38    37   ar
   131    43    44    1
   132    43    31   am
   133    30    29    1
   134    30    33    1
   135    30    31    1
   136    70    69    1
   137    90    87    1
   138    34    33    1
   139    34    35   ar
   140    44    45    1
   141    71    69    1
   142    31    32    2
   143    24    25    1
   144    37    35   ar
   145    46    45    2
   146    69    66    1
   147    45    54   am
   148    25    26    1
   149    86    87    1
   150    87    88    1
   151    54    55    1
   152    66    67    1
   153    66    65    1
   154    26    28   am
   155    26    27    2
   156    55    56    1
   157    88    89    2
   158    61    60    2
   159    67    68    2
   160    56    58   am
   161    56    57    2
   162    58    59    1
   163    63    62    1
   164    60    59    1
   165    59    62    1
   166    62    64    1
