@<TRIPOS>MOLECULE
tmp/3exnA00.pdb
 203 200 0 0 0
SMALL
GASTEIGER

@<TRIPOS>ATOM
      1  N          2.6950    7.4520   21.1500 N.3    28  TYR28      -0.1241
      2  CA         1.6670    7.2280   20.1480 C.3    28  TYR28       0.1605
      3  C          0.2620    7.0380   20.7500 C.2    28  TYR28       0.2264
      4  O         -0.6940    7.6450   20.2980 O.2    28  TYR28      -0.2867
      5  CB         2.0110    6.0330   19.2760 C.3    28  TYR28       0.0534
      6  CG         0.8970    5.6780   18.3590 C.ar   28  TYR28      -0.0201
      7  CD1        0.4980    6.5570   17.3360 C.ar   28  TYR28      -0.0009
      8  CD2        0.2120    4.4810   18.4970 C.ar   28  TYR28      -0.0009
      9  CE1       -0.5850    6.2320   16.4950 C.ar   28  TYR28       0.0417
     10  CE2       -0.8490    4.1630   17.6620 C.ar   28  TYR28       0.0417
     11  CZ        -1.2260    5.0210   16.6670 C.ar   28  TYR28       0.1957
     12  OH        -2.2940    4.6450   15.8720 O.3    28  TYR28      -0.2866
     13  N         -3.1930    0.4030    4.4460 N.3    83  LEU83      -0.1231
     14  CA        -2.3300    0.3190    5.6180 C.3    83  LEU83       0.1693
     15  C         -3.1010    0.9990    6.7750 C.2    83  LEU83       0.2593
     16  O         -3.4280    2.1940    6.7160 O.2    83  LEU83      -0.2718
     17  CB        -0.9590    1.0220    5.3380 C.3    83  LEU83       0.0284
     18  CG         0.0800    1.0830    6.4860 C.3    83  LEU83       0.0019
     19  CD1        0.6640   -0.2520    6.6650 C.3    83  LEU83       0.0001
     20  CD2        1.1770    2.1340    6.0910 C.3    83  LEU83       0.0001
     21  N         -3.3820    0.2310    7.8460 N.am   84  SER84      -0.1938
     22  CA        -4.0770    0.7430    9.0490 C.3    84  SER84       0.2055
     23  C         -3.1610    1.1370   10.1900 C.2    84  SER84       0.2643
     24  O         -3.5490    1.9340   11.0260 O.2    84  SER84      -0.2714
     25  CB        -5.1170   -0.2900    9.5620 C.3    84  SER84       0.2130
     26  OG        -4.5040   -1.4830   10.0410 O.3    84  SER84      -0.2179
     27  N         -1.9540    0.5920   10.2180 N.am   85  LEU85      -0.1963
     28  CA        -0.9790    0.9500   11.2480 C.3    85  LEU85       0.1728
     29  C          0.4560    0.6560   10.7890 C.2    85  LEU85       0.2616
     30  O          0.7900   -0.4770   10.3770 O.2    85  LEU85      -0.2715
     31  CB        -1.2860    0.2030   12.5590 C.3    85  LEU85       0.0311
     32  CG        -0.4590    0.5820   13.7760 C.3    85  LEU85       0.0022
     33  CD1       -0.5370    2.0930   14.0490 C.3    85  LEU85       0.0001
     34  CD2       -0.9340   -0.2570   14.9710 C.3    85  LEU85       0.0001
     35  N          1.2980    1.6910   10.8800 N.am   86  LEU86      -0.1963
     36  CA         2.7550    1.5430   10.7990 C.3    86  LEU86       0.1728
     37  C          3.3530    2.2230   12.0530 C.2    86  LEU86       0.2616
     38  O          3.1670    3.4010   12.2940 O.2    86  LEU86      -0.2715
     39  CB         3.2900    2.2040    9.5280 C.3    86  LEU86       0.0311
     40  CG         4.8160    2.2450    9.3520 C.3    86  LEU86       0.0022
     41  CD1        5.5640    0.8610    9.4430 C.3    86  LEU86       0.0001
     42  CD2        5.1810    2.9470    8.0220 C.3    86  LEU86       0.0001
     43  N          4.0080    1.4380   12.8750 N.am   87  LEU87      -0.1963
     44  CA         4.5660    1.9270   14.1060 C.3    87  LEU87       0.1728
     45  C          6.0590    1.5190   14.2060 C.2    87  LEU87       0.2616
     46  O          6.3900    0.3570   14.0720 O.2    87  LEU87      -0.2715
     47  CB         3.7480    1.3730   15.2900 C.3    87  LEU87       0.0311
     48  CG         4.2770    1.6870   16.7040 C.3    87  LEU87       0.0022
     49  CD1        4.4830    3.1840   16.8720 C.3    87  LEU87       0.0001
     50  CD2        3.2730    1.1800   17.7660 C.3    87  LEU87       0.0001
     51  N          6.9340    2.4860   14.4330 N.am   88  ILE88      -0.1977
     52  CA         8.3380    2.2080   14.7930 C.3    88  ILE88       0.1596
     53  C          8.4760    2.5210   16.2690 C.2    88  ILE88       0.2287
     54  O          8.0450    3.5870   16.7600 O.2    88  ILE88      -0.2864
     55  CB         9.3320    3.0620   13.9410 C.3    88  ILE88       0.0276
     56  CG1        9.1400    2.8510   12.4330 C.3    88  ILE88       0.0022
     57  CG2       10.7940    2.8240   14.3850 C.3    88  ILE88       0.0022
     58  CD1        9.3810    1.3870   11.9890 C.3    88  ILE88       0.0001
     59  N         13.6590    3.9050   18.2750 N.3    92  HIS92      -0.1226
     60  CA        14.2440    3.6360   16.9540 C.3    92  HIS92       0.1752
     61  C         13.6870    4.5380   15.8520 C.2    92  HIS92       0.2596
     62  O         13.9520    4.3220   14.6590 O.2    92  HIS92      -0.2718
     63  CB        14.0150    2.1530   16.5880 C.3    92  HIS92       0.0759
     64  CG        14.9440    1.2100   17.2840 C.ar   92  HIS92       0.0818
     65  ND1       14.6820    0.6900   18.5360 N.ar   92  HIS92      -0.2268
     66  CD2       16.1350    0.6860   16.9030 C.ar   92  HIS92       0.1154
     67  CE1       15.6850   -0.0900   18.9080 C.ar   92  HIS92       0.1986
     68  NE2       16.5780   -0.1120   17.9350 N.ar   92  HIS92      -0.2212
     69  N         12.9270    5.5750   16.2490 N.am   93  GLN93      -0.1965
     70  CA        12.3450    6.5030   15.2890 C.3    93  GLN93       0.1733
     71  C         13.4040    7.4470   14.6880 C.2    93  GLN93       0.2617
     72  O         14.4790    7.6500   15.2560 O.2    93  GLN93      -0.2715
     73  CB        11.1550    7.3040   15.9120 C.3    93  GLN93       0.0408
     74  CG         9.8590    6.4870   16.0900 C.3    93  GLN93       0.0908
     75  CD         8.7550    7.1670   16.8650 C.2    93  GLN93       0.2608
     76  OE1        8.8710    8.3340   17.2460 O.2    93  GLN93      -0.2717
     77  NE2        7.6630    6.4430   17.1070 N.am   93  GLN93      -0.0878
     78  N         13.0940    8.0020   13.5210 N.am   94  GLY94      -0.1940
     79  CA        13.9830    8.9770   12.8770 C.3    94  GLY94       0.2014
     80  C         15.2890    8.4580   12.2440 C.2    94  GLY94       0.2639
     81  O         16.2380    9.2360   12.0570 O.2    94  GLY94      -0.2714
     82  N         15.3460    7.1630   11.9190 N.am   95  ARG95      -0.1963
     83  CA        16.5440    6.5310   11.3510 C.3    95  ARG95       0.1729
     84  C         16.2020    5.9050    9.9990 C.2    95  ARG95       0.2617
     85  O         16.9580    5.1090    9.4810 O.2    95  ARG95      -0.2715
     86  CB        17.0980    5.4270   12.2560 C.3    95  ARG95       0.0348
     87  CG        17.1130    5.7490   13.7440 C.3    95  ARG95       0.0492
     88  CD        17.9400    4.7340   14.5480 C.3    95  ARG95       0.2205
     89  NE        17.7950    3.3600   14.0380 N.pl3  95  ARG95      -0.0865
     90  CZ        18.5970    2.3420   14.3650 C.cat  95  ARG95       0.5346
     91  NH1       18.3990    1.1420   13.8480 N.pl3  95  ARG95       0.1354
     92  NH2       19.6040    2.5190   15.2080 N.pl3  95  ARG95       0.1354
     93  N         15.0600    6.2590    9.4400 N.am   96  GLY96      -0.1940
     94  CA        14.6360    5.7200    8.1600 C.3    96  GLY96       0.2014
     95  C         13.9500    4.3740    8.1600 C.2    96  GLY96       0.2639
     96  O         13.6430    3.8510    7.0700 O.2    96  GLY96      -0.2714
     97  N         13.6720    3.8050    9.3290 N.am   97  LEU97      -0.1963
     98  CA        13.0590    2.4740    9.3740 C.3    97  LEU97       0.1728
     99  C         11.5880    2.4420    8.8870 C.2    97  LEU97       0.2617
    100  O         11.1610    1.4440    8.2700 O.2    97  LEU97      -0.2715
    101  CB        13.1730    1.8840   10.7560 C.3    97  LEU97       0.0311
    102  CG        14.5760    1.6710   11.2960 C.3    97  LEU97       0.0022
    103  CD1       14.4970    1.2660   12.7240 C.3    97  LEU97       0.0001
    104  CD2       15.4010    0.6050   10.5110 C.3    97  LEU97       0.0001
    105  N         10.8570    3.5410    9.0940 N.am   98  GLY98      -0.1940
    106  CA         9.4580    3.6580    8.6370 C.3    98  GLY98       0.2014
    107  C          9.4380    3.5910    7.1250 C.2    98  GLY98       0.2638
    108  O          8.6570    2.8110    6.5320 O.2    98  GLY98      -0.2714
    109  N         10.3320    4.3570    6.4910 N.am   99  ARG99      -0.1977
    110  CA        10.3970    4.3410    5.0290 C.3    99  ARG99       0.1597
    111  C         10.8140    2.9550    4.4870 C.2    99  ARG99       0.2287
    112  O         10.2460    2.4490    3.5300 O.2    99  ARG99      -0.2864
    113  CB        11.3750    5.4190    4.4850 C.3    99  ARG99       0.0334
    114  CG        11.5170    5.2900    2.9700 C.3    99  ARG99       0.0492
    115  CD        12.3470    6.4120    2.3070 C.3    99  ARG99       0.2205
    116  NE        12.6130    6.0910    0.9010 N.pl3  99  ARG99      -0.0865
    117  CZ        11.7360    6.1960   -0.1140 C.cat  99  ARG99       0.5346
    118  NH1       10.4850    6.6310    0.0710 N.pl3  99  ARG99       0.1354
    119  NH2       12.1140    5.8660   -1.3510 N.pl3  99  ARG99       0.1354
    120  N         -3.5650    4.6910    3.0020 N.3   117  ALA117     -0.1231
    121  CA        -3.1140    4.8100    4.4140 C.3   117  ALA117      0.1694
    122  C         -4.1730    5.6490    5.1410 C.2   117  ALA117      0.2592
    123  O         -4.6140    6.6760    4.6110 O.2   117  ALA117     -0.2718
    124  CB        -1.7650    5.4920    4.4480 C.3   117  ALA117      0.0304
    125  N         -4.5950    5.1970    6.3440 N.am  118  VAL118     -0.1966
    126  CA        -5.6100    5.8990    7.1560 C.3   118  VAL118      0.1727
    127  C         -4.9520    6.3650    8.4500 C.2   118  VAL118      0.2616
    128  O         -4.3240    5.5630    9.1340 O.2   118  VAL118     -0.2715
    129  CB        -6.8610    5.0880    7.4360 C.3   118  VAL118      0.0290
    130  CG1       -6.5320    3.6860    8.0500 C.3   118  VAL118      0.0023
    131  CG2       -7.8510    5.9250    8.3160 C.3   118  VAL118      0.0023
    132  N         -5.0270    7.6780    8.7110 N.am  119  VAL119     -0.1963
    133  CA        -4.3800    8.2740    9.8690 C.3   119  VAL119      0.1727
    134  C         -5.4490    8.6040   10.9100 C.2   119  VAL119      0.2616
    135  O         -6.4820    9.1700   10.5660 O.2   119  VAL119     -0.2715
    136  CB        -3.6070    9.5430    9.5110 C.3   119  VAL119      0.0290
    137  CG1       -2.9800   10.1440   10.8000 C.3   119  VAL119      0.0023
    138  CG2       -2.5500    9.2450    8.4270 C.3   119  VAL119      0.0023
    139  N         -5.1850    8.2330   12.1830 N.am  120  TYR120     -0.1974
    140  CA        -6.1710    8.3530   13.2440 C.3   120  TYR120      0.1639
    141  C         -5.8310    9.5420   14.1180 C.2   120  TYR120      0.2290
    142  O         -4.6790    9.6990   14.5580 O.2   120  TYR120     -0.2864
    143  CB        -6.1790    7.0770   14.0970 C.3   120  TYR120      0.0560
    144  CG        -6.6860    5.8690   13.3120 C.ar  120  TYR120     -0.0198
    145  CD1       -8.0390    5.5860   13.2690 C.ar  120  TYR120     -0.0009
    146  CD2       -5.8170    5.0420   12.5870 C.ar  120  TYR120     -0.0009
    147  CE1       -8.5370    4.4940   12.5460 C.ar  120  TYR120      0.0417
    148  CE2       -6.3090    3.9330   11.8500 C.ar  120  TYR120      0.0417
    149  CZ        -7.6780    3.6740   11.8500 C.ar  120  TYR120      0.1957
    150  OH        -8.2230    2.6040   11.1580 O.3   120  TYR120     -0.2866
    151  N         -2.8650   13.8320   14.2050 N.3   123  ASN123     -0.1240
    152  CA        -1.4930   13.3470   14.0800 C.3   123  ASN123      0.1653
    153  C         -0.7910   13.9500   12.8540 C.2   123  ASN123      0.2266
    154  O         -0.5250   13.2430   11.8870 O.2   123  ASN123     -0.2867
    155  CB        -1.5090   11.8210   14.0040 C.3   123  ASN123      0.1155
    156  CG        -0.1510   11.2250   14.2340 C.2   123  ASN123      0.2627
    157  OD1        0.8530   11.9500   14.2790 O.2   123  ASN123     -0.2716
    158  ND2       -0.0940    9.9070   14.3790 N.am  123  ASN123     -0.0877
    159  N          2.3150   14.9500   12.3230 N.3   125  LYS125     -0.1231
    160  CA         3.5980   14.2590   12.0700 C.3   125  LYS125      0.1693
    161  C          3.4990   13.0230   11.1750 C.2   125  LYS125      0.2591
    162  O          4.3820   12.7870   10.3100 O.2   125  LYS125     -0.2718
    163  CB         4.2280   13.8340   13.3920 C.3   125  LYS125      0.0285
    164  CG         5.1080   12.5460   13.3270 C.3   125  LYS125      0.0035
    165  CD         5.5160   12.1210   14.7520 C.3   125  LYS125      0.0206
    166  CE         6.2480   10.7810   14.8270 C.3   125  LYS125      0.1093
    167  NZ         7.1520   10.6950   16.0340 N.3   125  LYS125     -0.1314
    168  N          2.4820   12.1930   11.4200 N.am  126  ALA126     -0.1980
    169  CA         2.2310   11.0150   10.5810 C.3   126  ALA126      0.1597
    170  C          1.7670   11.4590    9.1950 C.2   126  ALA126      0.2287
    171  O          2.1700   10.9000    8.1850 O.2   126  ALA126     -0.2864
    172  CB         1.1710   10.0590   11.2400 C.3   126  ALA126      0.0319
    173  N          4.7510   12.5450    7.2530 N.3   129  PHE129     -0.1227
    174  CA         5.5150   11.3690    6.8210 C.3   129  PHE129      0.1736
    175  C          4.9470   10.7330    5.5590 C.2   129  PHE129      0.2595
    176  O          5.6870   10.4720    4.5890 O.2   129  PHE129     -0.2718
    177  CB         5.5670   10.3180    7.9320 C.3   129  PHE129      0.0547
    178  CG         6.1300    8.9930    7.4840 C.ar  129  PHE129     -0.0202
    179  CD1        7.4980    8.7900    7.3780 C.ar  129  PHE129     -0.0042
    180  CD2        5.2820    7.9470    7.1670 C.ar  129  PHE129     -0.0042
    181  CE1        8.0070    7.5540    6.9660 C.ar  129  PHE129     -0.0003
    182  CE2        5.7770    6.7220    6.7500 C.ar  129  PHE129     -0.0003
    183  CZ         7.1570    6.5330    6.6510 C.ar  129  PHE129     -0.0000
    184  N          3.6520   10.4280    5.5850 N.am  130  PHE130     -0.1976
    185  CA         3.0080    9.7840    4.4360 C.3   130  PHE130      0.1639
    186  C          3.0550   10.6330    3.1860 C.2   130  PHE130      0.2290
    187  O          3.2760   10.0960    2.0970 O.2   130  PHE130     -0.2864
    188  CB         1.5750    9.2720    4.7690 C.3   130  PHE130      0.0560
    189  CG         1.5780    8.0090    5.6310 C.ar  130  PHE130     -0.0200
    190  CD1        1.9250    6.7660    5.0920 C.ar  130  PHE130     -0.0042
    191  CD2        1.2620    8.0800    6.9890 C.ar  130  PHE130     -0.0042
    192  CE1        1.9750    5.6200    5.9150 C.ar  130  PHE130     -0.0003
    193  CE2        1.3150    6.9450    7.7990 C.ar  130  PHE130     -0.0003
    194  CZ         1.6780    5.7270    7.2670 C.ar  130  PHE130     -0.0000
    195  N          6.3580   10.4200    1.4780 N.3   133  GLN133     -0.1245
    196  CA         6.5650    9.1380    0.7750 C.3   133  GLN133      0.1566
    197  C          5.6870    9.0000   -0.4600 C.2   133  GLN133      0.2260
    198  O          5.6640    7.9440   -1.0880 O.2   133  GLN133     -0.2867
    199  CB         6.2670    7.9700    1.6980 C.3   133  GLN133      0.0367
    200  CG         7.0020    8.0310    2.9820 C.3   133  GLN133      0.0905
    201  CD         8.4980    8.2270    2.7840 C.2   133  GLN133      0.2608
    202  OE1        9.1150    7.5110    2.0100 O.2   133  GLN133     -0.2717
    203  NE2        9.0890    9.1850    3.5110 N.am  133  GLN133     -0.0878
@<TRIPOS>BOND
     1   119   117    1
     2   198   197    2
     3   197   196    1
     4   117   118    1
     5   117   116    2
     6   196   195    1
     7   196   199    1
     8   116   115    1
     9   199   200    1
    10   202   201    2
    11   187   186    2
    12   115   114    1
    13   201   200    1
    14   201   203   am
    15   114   113    1
    16   120   121    1
    17   186   185    1
    18   112   111    2
    19   121   124    1
    20   121   122    1
    21   185   188    1
    22   185   184    1
    23    13    14    1
    24   113   110    1
    25   111   110    1
    26   176   175    2
    27   123   122    2
    28   188   189    1
    29   110   109    1
    30   190   189   ar
    31   190   192   ar
    32   122   125   am
    33    17    14    1
    34    17    18    1
    35   175   184   am
    36   175   174    1
    37    14    15    1
    38   189   191   ar
    39   192   194   ar
    40    20    18    1
    41   125   126    1
    42    18    19    1
    43   109   107   am
    44   108   107    2
    45   183   182   ar
    46   183   181   ar
    47    16    15    2
    48   182   180   ar
    49    15    21   am
    50   174   173    1
    51   174   177    1
    52   181   179   ar
    53   191   193   ar
    54    96    95    2
    55   107   106    1
    56   126   129    1
    57   126   127    1
    58   180   178   ar
    59   194   193   ar
    60   179   178   ar
    61   129   130    1
    62   129   131    1
    63   178   177    1
    64    21    22    1
    65    42    40    1
    66    95    94    1
    67    95    97   am
    68    94    93    1
    69   171   170    2
    70   100    99    2
    71   138   136    1
    72   127   132   am
    73   127   128    2
    74   106   105    1
    75   132   133    1
    76    99   105   am
    77    99    98    1
    78    22    25    1
    79    22    23    1
    80   170   169    1
    81    97    98    1
    82    40    41    1
    83    40    39    1
    84    98   101    1
    85    93    84   am
    86    85    84    2
    87   136   133    1
    88   136   137    1
    89    39    36    1
    90    25    26    1
    91   133   134    1
    92    84    83    1
    93    23    27   am
    94    23    24    2
    95    27    28    1
    96   162   161    2
    97    30    29    2
    98   104   102    1
    99   135   134    2
   100   169   172    1
   101   169   168    1
   102   101   102    1
   103    29    35   am
   104    29    28    1
   105    36    35    1
   106    36    37    1
   107   134   139   am
   108   150   149    1
   109   161   168   am
   110   161   160    1
   111    28    31    1
   112   102   103    1
   113    83    82    1
   114    83    86    1
   115   149   148   ar
   116   149   147   ar
   117   148   146   ar
   118   154   153    2
   119    82    80   am
   120    58    56    1
   121    37    38    2
   122    37    43   am
   123    81    80    2
   124   160   159    1
   125   160   163    1
   126   139   140    1
   127    80    79    1
   128    86    87    1
   129    56    55    1
   130   147   145   ar
   131    31    32    1
   132   146   144   ar
   133   153   152    1
   134    43    44    1
   135    79    78    1
   136   140   143    1
   137   140   141    1
   138   145   144   ar
   139   144   143    1
   140   164   163    1
   141   164   165    1
   142    78    71   am
   143    87    88    1
   144    32    33    1
   145    32    34    1
   146    91    90    1
   147    55    57    1
   148    55    52    1
   149   155   152    1
   150   155   156    1
   151    89    90    2
   152    89    88    1
   153    46    45    2
   154   152   151    1
   155    44    45    1
   156    44    47    1
   157   141   142    2
   158    45    51   am
   159   156   157    2
   160   156   158   am
   161    90    92    1
   162    51    52    1
   163    62    61    2
   164    71    72    2
   165    71    70    1
   166   165   166    1
   167    52    53    1
   168   166   167    1
   169    70    73    1
   170    70    69    1
   171    47    48    1
   172    61    69   am
   173    61    60    1
   174    12    11    1
   175    73    74    1
   176    74    75    1
   177    53    54    2
   178     9    11   ar
   179     9     7   ar
   180    63    60    1
   181    63    64    1
   182    11    10   ar
   183    48    49    1
   184    48    50    1
   185    75    77   am
   186    75    76    2
   187    66    64   ar
   188    66    68   ar
   189    60    59    1
   190    64    65   ar
   191     7     6   ar
   192    10     8   ar
   193    68    67   ar
   194     6     8   ar
   195     6     5    1
   196    65    67   ar
   197     5     2    1
   198     2     3    1
   199     2     1    1
   200     4     3    2
