@<TRIPOS>MOLECULE
tmp/3exoA00.pdb
 158 154 0 0 0
SMALL
GASTEIGER

@<TRIPOS>ATOM
      1  N         32.0500   50.8330    6.6250 N.3    15  GLY15      -0.1210
      2  CA        31.6480   50.1590    5.3830 C.3    15  GLY15       0.1956
      3  C         32.6490   49.1860    4.7500 C.2    15  GLY15       0.2612
      4  O         32.3960   48.6580    3.6750 O.2    15  GLY15      -0.2717
      5  N         33.7910   48.9610    5.3920 N.am   16  GLN16      -0.1965
      6  CA        34.8620   48.1740    4.7720 C.3    16  GLN16       0.1733
      7  C         35.3360   47.0560    5.7020 C.2    16  GLN16       0.2616
      8  O         36.4390   46.5570    5.5700 O.2    16  GLN16      -0.2715
      9  CB        36.0230   49.0930    4.3270 C.3    16  GLN16       0.0408
     10  CG        35.5540   50.2860    3.4480 C.3    16  GLN16       0.0908
     11  CD        36.6620   50.9420    2.6410 C.2    16  GLN16       0.2608
     12  OE1       37.8290   50.9660    3.0490 O.2    16  GLN16      -0.2717
     13  NE2       36.3000   51.4740    1.4780 N.am   16  GLN16      -0.0878
     14  N         34.4830   46.6750    6.6440 N.am   17  GLY17      -0.1955
     15  CA        34.7800   45.5810    7.5570 C.3    17  GLY17       0.1869
     16  C         35.7150   45.9010    8.7120 C.2    17  GLY17       0.2309
     17  O         36.2140   47.0230    8.8500 O.2    17  GLY17      -0.2863
     18  N         40.5290   40.5220    7.4000 N.3    34  LEU34      -0.1245
     19  CA        39.0990   40.7710    7.5930 C.3    34  LEU34       0.1561
     20  C         38.3930   39.6610    8.3970 C.2    34  LEU34       0.2260
     21  O         38.4260   38.5090    7.9910 O.2    34  LEU34      -0.2867
     22  CB        38.4110   40.9450    6.2100 C.3    34  LEU34       0.0270
     23  CG        36.8790   41.1170    6.1040 C.3    34  LEU34       0.0019
     24  CD1       36.3740   42.3490    6.7720 C.3    34  LEU34       0.0001
     25  CD2       36.4770   41.1990    4.6440 C.3    34  LEU34       0.0001
     26  N         35.2840   37.6860    9.0800 N.3    36  ASP36      -0.1239
     27  CA        34.0680   37.3950    8.3140 C.3    36  ASP36       0.1674
     28  C         33.3830   36.1250    8.7880 C.2    36  ASP36       0.2266
     29  O         33.7650   35.0060    8.4060 O.2    36  ASP36      -0.2867
     30  CB        34.3760   37.3370    6.8170 C.3    36  ASP36       0.1410
     31  CG        33.1390   37.1080    5.9780 C.2    36  ASP36       0.3668
     32  OD1       33.2960   36.6720    4.8380 O.co2  36  ASP36      -0.2456
     33  OD2       32.0060   37.2910    6.4890 O.co2  36  ASP36      -0.2456
     34  N         45.8830   47.5870   -4.5570 N.3    51  PHE51      -0.1241
     35  CA        45.2180   47.9500   -3.2950 C.3    51  PHE51       0.1605
     36  C         45.8550   47.3550   -2.0490 C.2    51  PHE51       0.2264
     37  O         45.3720   47.5900   -0.9330 O.2    51  PHE51      -0.2867
     38  CB        43.7160   47.6280   -3.3230 C.3    51  PHE51       0.0534
     39  CG        42.9500   48.3570   -4.3940 C.ar   51  PHE51      -0.0203
     40  CD1       41.7110   47.8750   -4.8230 C.ar   51  PHE51      -0.0042
     41  CD2       43.4740   49.5100   -5.0110 C.ar   51  PHE51      -0.0042
     42  CE1       40.9900   48.5500   -5.8160 C.ar   51  PHE51      -0.0003
     43  CE2       42.7620   50.1780   -6.0090 C.ar   51  PHE51      -0.0003
     44  CZ        41.5210   49.6990   -6.4130 C.ar   51  PHE51      -0.0000
     45  N         32.0860   35.9080   -4.9840 N.3    75  TYR75      -0.1241
     46  CA        31.1410   36.7490   -4.2400 C.3    75  TYR75       0.1605
     47  C         30.2420   37.3920   -5.3240 C.2    75  TYR75       0.2264
     48  O         30.3680   37.0630   -6.5200 O.2    75  TYR75      -0.2867
     49  CB        31.8820   37.8000   -3.3690 C.3    75  TYR75       0.0534
     50  CG        33.0070   37.2410   -2.4820 C.ar   75  TYR75      -0.0201
     51  CD1       32.8180   37.0480   -1.1110 C.ar   75  TYR75      -0.0009
     52  CD2       34.2630   36.9140   -3.0220 C.ar   75  TYR75      -0.0009
     53  CE1       33.8440   36.5340   -0.2920 C.ar   75  TYR75       0.0417
     54  CE2       35.2890   36.3960   -2.2200 C.ar   75  TYR75       0.0417
     55  CZ        35.0780   36.2050   -0.8560 C.ar   75  TYR75       0.1957
     56  OH        36.1020   35.6910   -0.0580 O.3    75  TYR75      -0.2866
     57  N         30.1320   40.6670   -6.1450 N.3    77  GLN77      -0.1245
     58  CA        30.7900   41.8360   -6.7400 C.3    77  GLN77       0.1566
     59  C         31.9470   41.4250   -7.6690 C.2    77  GLN77       0.2260
     60  O         32.3440   42.1850   -8.5790 O.2    77  GLN77      -0.2867
     61  CB        31.2400   42.8240   -5.6400 C.3    77  GLN77       0.0367
     62  CG        30.1820   43.9240   -5.3010 C.3    77  GLN77       0.0905
     63  CD        29.1510   43.5320   -4.2070 C.2    77  GLN77       0.2608
     64  OE1       29.5060   43.3300   -3.0390 O.2    77  GLN77      -0.2717
     65  NE2       27.8640   43.4750   -4.5880 N.am   77  GLN77      -0.0878
     66  N         37.6880   42.5690   -8.0350 N.3   111  LYS111     -0.1231
     67  CA        36.8100   43.3000   -7.1120 C.3   111  LYS111      0.1693
     68  C         36.6800   42.6710   -5.7110 C.2   111  LYS111      0.2592
     69  O         35.5880   42.5830   -5.1280 O.2   111  LYS111     -0.2718
     70  CB        35.4480   43.5770   -7.7800 C.3   111  LYS111      0.0285
     71  CG        35.5710   44.5910   -8.9390 C.3   111  LYS111      0.0035
     72  CD        34.2120   44.9540   -9.5600 C.3   111  LYS111      0.0206
     73  CE        34.3900   45.7690  -10.8420 C.3   111  LYS111      0.1093
     74  NZ        33.1210   46.5330  -11.1830 N.3   111  LYS111     -0.1314
     75  N         37.8170   42.2240   -5.1910 N.am  112  PHE112     -0.1962
     76  CA        37.8990   41.6660   -3.8550 C.3   112  PHE112      0.1771
     77  C         38.5060   42.6860   -2.8930 C.2   112  PHE112      0.2620
     78  O         37.8510   43.1110   -1.9430 O.2   112  PHE112     -0.2715
     79  CB        38.6940   40.3450   -3.8470 C.3   112  PHE112      0.0574
     80  CG        38.7610   39.6900   -2.5020 C.ar  112  PHE112     -0.0200
     81  CD1       37.5920   39.3750   -1.8000 C.ar  112  PHE112     -0.0042
     82  CD2       39.9950   39.4070   -1.9170 C.ar  112  PHE112     -0.0042
     83  CE1       37.6370   38.7880   -0.5280 C.ar  112  PHE112     -0.0003
     84  CE2       40.0620   38.8130   -0.6350 C.ar  112  PHE112     -0.0003
     85  CZ        38.8760   38.4980    0.0570 C.ar  112  PHE112     -0.0000
     86  N         39.7570   43.0670   -3.1310 N.am  113  PHE113     -0.1960
     87  CA        40.4080   44.0090   -2.2420 C.3   113  PHE113      0.1771
     88  C         39.8300   45.3940   -2.4000 C.2   113  PHE113      0.2619
     89  O         39.4630   45.8250   -3.5100 O.2   113  PHE113     -0.2715
     90  CB        41.9300   43.9880   -2.4140 C.3   113  PHE113      0.0574
     91  CG        42.5440   42.6460   -2.0810 C.ar  113  PHE113     -0.0200
     92  CD1       43.1840   41.8960   -3.0590 C.ar  113  PHE113     -0.0042
     93  CD2       42.4580   42.1230   -0.7780 C.ar  113  PHE113     -0.0042
     94  CE1       43.7480   40.6420   -2.7480 C.ar  113  PHE113     -0.0003
     95  CE2       43.0230   40.8840   -0.4510 C.ar  113  PHE113     -0.0003
     96  CZ        43.6680   40.1390   -1.4350 C.ar  113  PHE113     -0.0000
     97  N         39.7310   46.0850   -1.2750 N.am  114  ILE114     -0.1963
     98  CA        39.1780   47.4270   -1.2640 C.3   114  ILE114      0.1727
     99  C         40.3000   48.4420   -1.1050 C.2   114  ILE114      0.2616
    100  O         41.1420   48.3280   -0.1960 O.2   114  ILE114     -0.2715
    101  CB        38.0950   47.5870   -0.1640 C.3   114  ILE114      0.0290
    102  CG1       36.9810   46.5450   -0.3560 C.3   114  ILE114      0.0022
    103  CG2       37.5230   49.0110   -0.1650 C.3   114  ILE114      0.0023
    104  CD1       35.8140   46.6930    0.6280 C.3   114  ILE114      0.0001
    105  N         40.3170   49.4140   -2.0120 N.am  115  ASN115     -0.1972
    106  CA        41.2710   50.5060   -1.9890 C.3   115  ASN115      0.1688
    107  C         41.1350   51.3180   -0.7000 C.2   115  ASN115      0.2292
    108  O         40.2290   52.1270   -0.5700 O.2   115  ASN115     -0.2864
    109  CB        41.0190   51.4100   -3.1980 C.3   115  ASN115      0.1181
    110  CG        42.0450   52.5110   -3.3250 C.2   115  ASN115      0.2629
    111  OD1       41.7030   53.6610   -3.5620 O.2   115  ASN115     -0.2716
    112  ND2       43.3090   52.1670   -3.1410 N.am  115  ASN115     -0.0877
    113  N         42.9730   46.0310    5.0070 N.3   119  TRP119     -0.1241
    114  CA        43.0950   44.5810    5.0930 C.3   119  TRP119      0.1605
    115  C         43.6070   43.9200    3.8220 C.2   119  TRP119      0.2264
    116  O         43.4670   44.4570    2.7100 O.2   119  TRP119     -0.2867
    117  CB        41.8370   43.8970    5.6550 C.3   119  TRP119      0.0550
    118  CG        40.5510   44.1440    4.9210 C.ar  119  TRP119      0.0003
    119  CD1       39.5750   45.0430    5.2530 C.ar  119  TRP119      0.0946
    120  CD2       40.0730   43.4460    3.7520 C.ar  119  TRP119      0.0152
    121  NE1       38.5200   44.9550    4.3610 N.ar  119  TRP119     -0.2442
    122  CE2       38.7970   43.9900    3.4320 C.ar  119  TRP119      0.0810
    123  CE3       40.6050   42.4300    2.9390 C.ar  119  TRP119      0.0012
    124  CZ2       38.0390   43.5490    2.3390 C.ar  119  TRP119      0.0191
    125  CZ3       39.8370   41.9670    1.8380 C.ar  119  TRP119      0.0001
    126  CH2       38.5690   42.5320    1.5550 C.ar  119  TRP119      0.0015
    127  N         41.2880   37.5990    4.4380 N.3   122  ILE122     -0.1245
    128  CA        39.9910   37.3120    5.0480 C.3   122  ILE122      0.1561
    129  C         40.0760   36.0620    5.9400 C.2   122  ILE122      0.2260
    130  O         40.7970   35.1030    5.6370 O.2   122  ILE122     -0.2867
    131  CB        38.8640   37.2090    3.9600 C.3   122  ILE122      0.0252
    132  CG1       37.4690   36.9900    4.5920 C.3   122  ILE122      0.0019
    133  CG2       39.2330   36.1670    2.9020 C.3   122  ILE122      0.0019
    134  CD1       36.3230   37.3340    3.6620 C.3   122  ILE122      0.0001
    135  N         29.4300   39.0950    9.9380 N.3   222  SER222     -0.1202
    136  CA        30.2680   40.2760   10.1760 C.3   222  SER222      0.2020
    137  C         30.9680   40.8440    8.8980 C.2   222  SER222      0.2619
    138  O         31.4280   41.9740    8.8960 O.2   222  SER222     -0.2717
    139  CB        31.2810   39.9710   11.2960 C.3   222  SER222      0.2103
    140  OG        32.2120   39.0230   10.8370 O.3   222  SER222     -0.2182
    141  N         31.0420   40.0670    7.8230 N.am  223  GLY223     -0.1942
    142  CA        31.6740   40.5210    6.5730 C.3   223  GLY223      0.2014
    143  C         30.7550   41.2660    5.6090 C.2   223  GLY223      0.2640
    144  O         31.1840   41.6740    4.5260 O.2   223  GLY223     -0.2714
    145  N         29.4790   41.4130    5.9880 N.am  224  THR224     -0.1936
    146  CA        28.4870   42.2290    5.2550 C.3   224  THR224      0.2028
    147  C         28.1770   43.5270    6.0190 C.2   224  THR224      0.2642
    148  O         27.9230   43.5080    7.2160 O.2   224  THR224     -0.2714
    149  CB        27.1750   41.4330    5.0610 C.3   224  THR224      0.1808
    150  OG1       27.4470   40.2440    4.3130 O.3   224  THR224     -0.2208
    151  CG2       26.0860   42.2500    4.3410 C.3   224  THR224      0.0379
    152  N         28.1700   44.6530    5.3190 N.am  225  THR225     -0.1950
    153  CA        27.9140   45.9450    5.9390 C.3   225  THR225      0.1897
    154  C         26.4400   46.0820    6.3380 C.2   225  THR225      0.2313
    155  O         26.1310   46.4580    7.4700 O.2   225  THR225     -0.2863
    156  CB        28.3560   47.1060    5.0000 C.3   225  THR225      0.1794
    157  OG1       29.7590   47.0240    4.8120 O.3   225  THR225     -0.2208
    158  CG2       28.0580   48.4660    5.5820 C.3   225  THR225      0.0378
@<TRIPOS>BOND
     1    74    73    1
     2    73    72    1
     3    72    71    1
     4    71    70    1
     5    60    59    2
     6    66    67    1
     7    70    67    1
     8    59    58    1
     9    67    68    1
    10    58    57    1
    11    58    61    1
    12    48    47    2
    13    44    43   ar
    14    44    42   ar
    15    43    41   ar
    16    42    40   ar
    17    68    75   am
    18    68    69    2
    19    61    62    1
    20    47    46    1
    21    62    63    1
    22    75    76    1
    23    41    39   ar
    24    45    46    1
    25    40    39   ar
    26    65    63   am
    27    34    35    1
    28    39    38    1
    29    46    49    1
    30    63    64    2
    31    76    79    1
    32    76    77    1
    33    79    80    1
    34   111   110    2
    35    89    88    2
    36    49    50    1
    37   110   109    1
    38   110   112   am
    39    38    35    1
    40    35    36    1
    41   109   106    1
    42    86    77   am
    43    86    87    1
    44    92    94   ar
    45    92    91   ar
    46    52    50   ar
    47    52    54   ar
    48    77    78    2
    49    94    96   ar
    50    80    82   ar
    51    80    81   ar
    52    50    51   ar
    53    90    87    1
    54    90    91    1
    55    88    87    1
    56    88    97   am
    57    54    55   ar
    58    91    93   ar
    59    36    37    2
    60   105   106    1
    61   105    99   am
    62   106   107    1
    63    82    84   ar
    64    81    83   ar
    65    96    95   ar
    66    97    98    1
    67    98    99    1
    68    98   101    1
    69    51    53   ar
    70    99   100    2
    71    55    53   ar
    72    55    56    1
    73    93    95   ar
    74   107   108    2
    75    84    85   ar
    76    83    85   ar
    77   102   101    1
    78   102   104    1
    79   103   101    1
    80    13    11   am
    81   126   125   ar
    82   126   124   ar
    83   125   123   ar
    84   124   122   ar
    85    11    12    2
    86    11    10    1
    87   116   115    2
    88   133   131    1
    89   123   120   ar
    90   122   120   ar
    91   122   121   ar
    92    10     9    1
    93   134   132    1
    94     4     3    2
    95   120   118   ar
    96   115   114    1
    97   131   132    1
    98   131   128    1
    99   150   149    1
   100     9     6    1
   101   151   149    1
   102   121   119   ar
   103   127   128    1
   104   144   143    2
   105    25    23    1
   106     3     2    1
   107     3     5   am
   108     6     5    1
   109     6     7    1
   110   157   156    1
   111    32    31   ar
   112   118   119   ar
   113   118   117    1
   114   156   158    1
   115   156   153    1
   116   113   114    1
   117   128   129    1
   118   149   146    1
   119   114   117    1
   120   146   145    1
   121   146   147    1
   122   152   153    1
   123   152   147   am
   124     2     1    1
   125     8     7    2
   126   143   145   am
   127   143   142    1
   128   130   129    2
   129     7    14   am
   130   153   154    1
   131    31    33   ar
   132    31    30    1
   133   147   148    2
   134    23    22    1
   135    23    24    1
   136    22    19    1
   137   154   155    2
   138   142   141    1
   139    14    15    1
   140    30    27    1
   141    18    19    1
   142    15    16    1
   143    19    20    1
   144   141   137   am
   145    21    20    2
   146    27    28    1
   147    27    26    1
   148    29    28    2
   149    16    17    2
   150   138   137    2
   151   137   136    1
   152   135   136    1
   153   136   139    1
   154   140   139    1
