@<TRIPOS>MOLECULE
tmp/3exsD00.pdb
 150 140 0 0 0
SMALL
GASTEIGER

@<TRIPOS>ATOM
      1  N          1.2900  -17.8570   34.2460 N.3     8  ALA8       -0.1245
      2  CA         1.6270  -16.4450   34.3540 C.3     8  ALA8        0.1562
      3  C          0.3490  -15.6830   34.6360 C.2     8  ALA8        0.2260
      4  O         -0.5750  -15.6610   33.7990 O.2     8  ALA8       -0.2867
      5  CB         2.2690  -15.9460   33.0700 C.3     8  ALA8        0.0290
      6  N         -1.1750  -12.5150   34.4660 N.3    10  ASP10      -0.1239
      7  CA        -0.9980  -11.1910   33.8510 C.3    10  ASP10       0.1674
      8  C         -2.2210  -10.2610   33.9160 C.2    10  ASP10       0.2266
      9  O         -2.3210   -9.2980   33.1490 O.2    10  ASP10      -0.2867
     10  CB        -0.5030  -11.3390   32.4110 C.3    10  ASP10       0.1410
     11  CG         0.9070  -11.9230   32.3480 C.2    10  ASP10       0.3668
     12  OD1        1.6730  -11.7300   33.3340 O.co2  10  ASP10      -0.2456
     13  OD2        1.2370  -12.5860   31.3250 O.co2  10  ASP10      -0.2456
     14  N          3.2950  -17.6210   38.8750 N.3    32  GLU32      -0.1245
     15  CA         4.0150  -16.3980   38.5620 C.3    32  GLU32       0.1567
     16  C          3.1670  -15.1530   38.6650 C.2    32  GLU32       0.2260
     17  O          2.1820  -15.0060   37.9560 O.2    32  GLU32      -0.2867
     18  CB         4.5670  -16.4710   37.1380 C.3    32  GLU32       0.0388
     19  CG         5.1340  -15.1740   36.6120 C.3    32  GLU32       0.1160
     20  CD         5.3540  -15.2090   35.1130 C.2    32  GLU32       0.3649
     21  OE1        5.7940  -16.2540   34.5810 O.co2  32  GLU32      -0.2457
     22  OE2        5.0780  -14.1890   34.4430 O.co2  32  GLU32      -0.2457
     23  N          4.1950   -9.3450   35.1670 N.3    35  THR35      -0.1203
     24  CA         4.5990   -7.9400   35.1900 C.3    35  THR35       0.1994
     25  C          3.4280   -6.9740   35.0820 C.2    35  THR35       0.2617
     26  O          3.3830   -5.9660   35.7820 O.2    35  THR35      -0.2717
     27  CB         5.6450   -7.5960   34.0970 C.3    35  THR35       0.1784
     28  OG1        6.5480   -8.7010   33.9180 O.3    35  THR35      -0.2211
     29  CG2        6.4410   -6.3680   34.4950 C.3    35  THR35       0.0376
     30  N          2.4830   -7.2820   34.2040 N.am   36  VAL36      -0.1979
     31  CA         1.2950   -6.4550   34.0390 C.3    36  VAL36       0.1595
     32  C          0.5600   -6.3080   35.3760 C.2    36  VAL36       0.2287
     33  O          0.0900   -5.2130   35.7130 O.2    36  VAL36      -0.2864
     34  CB         0.3500   -7.0480   32.9960 C.3    36  VAL36       0.0276
     35  CG1       -0.9850   -6.3190   32.9960 C.3    36  VAL36       0.0022
     36  CG2        1.0010   -7.0060   31.6220 C.3    36  VAL36       0.0022
     37  N          7.6950  -11.7750   38.3490 N.3    61  ASP61      -0.1239
     38  CA         8.1800  -11.3710   37.0360 C.3    61  ASP61       0.1674
     39  C          8.2990   -9.8320   36.9420 C.2    61  ASP61       0.2266
     40  O          7.4240   -9.1540   36.3780 O.2    61  ASP61      -0.2867
     41  CB         7.2090  -11.9030   35.9880 C.3    61  ASP61       0.1410
     42  CG         7.7020  -11.7070   34.5760 C.2    61  ASP61       0.3668
     43  OD1        8.8870  -11.3260   34.3920 O.co2  61  ASP61      -0.2456
     44  OD2        6.9010  -11.9240   33.6390 O.co2  61  ASP61      -0.2456
     45  N         11.0630   -8.1860   35.5910 N.3    63  LYS63      -0.1245
     46  CA        11.7340   -7.7360   34.3470 C.3    63  LYS63       0.1561
     47  C         12.6790   -6.5800   34.7010 C.2    63  LYS63       0.2260
     48  O         12.7770   -5.5790   33.9950 O.2    63  LYS63      -0.2867
     49  CB        10.7260   -7.2630   33.2840 C.3    63  LYS63       0.0271
     50  CG        10.0980   -8.3470   32.4310 C.3    63  LYS63       0.0035
     51  CD         8.8580   -7.7850   31.7050 C.3    63  LYS63       0.0206
     52  CE         8.1840   -8.8050   30.7940 C.3    63  LYS63       0.1093
     53  NZ         7.8020  -10.0660   31.4880 N.3    63  LYS63      -0.1314
     54  N         15.3750  -12.5540   31.3550 N.3   114  GLU114     -0.1245
     55  CA        14.2620  -12.4490   30.4350 C.3   114  GLU114      0.1567
     56  C         14.7510  -12.0350   29.0580 C.2   114  GLU114      0.2260
     57  O         15.3470  -10.9560   28.9090 O.2   114  GLU114     -0.2867
     58  CB        13.2490  -11.4340   30.9570 C.3   114  GLU114      0.0388
     59  CG        12.3110  -11.9960   32.0030 C.3   114  GLU114      0.1160
     60  CD        10.9650  -12.4130   31.4280 C.2   114  GLU114      0.3649
     61  OE1       10.8840  -12.7580   30.2340 O.co2 114  GLU114     -0.2457
     62  OE2        9.9660  -12.3910   32.1720 O.co2 114  GLU114     -0.2457
     63  N         14.5380  -10.7040   25.4660 N.3   116  TYR116     -0.1241
     64  CA        13.7460   -9.8510   24.6230 C.3   116  TYR116      0.1605
     65  C         14.6440   -9.1600   23.6160 C.2   116  TYR116      0.2264
     66  O         15.7380   -8.6930   23.9720 O.2   116  TYR116     -0.2867
     67  CB        13.0170   -8.8250   25.4810 C.3   116  TYR116      0.0534
     68  CG        11.6470   -9.2700   25.9190 C.ar  116  TYR116     -0.0201
     69  CD1       10.5810   -9.2860   25.0230 C.ar  116  TYR116     -0.0009
     70  CD2       11.4130   -9.6700   27.2200 C.ar  116  TYR116     -0.0009
     71  CE1        9.3350   -9.7010   25.3990 C.ar  116  TYR116      0.0417
     72  CE2       10.1630  -10.0950   27.6140 C.ar  116  TYR116      0.0417
     73  CZ         9.1200  -10.0930   26.6990 C.ar  116  TYR116      0.1957
     74  OH         7.8650  -10.5090   27.0950 O.3   116  TYR116     -0.2866
     75  N         11.3930  -16.0660   24.9710 N.3   138  HIS138     -0.1241
     76  CA        10.0890  -15.5630   24.5770 C.3   138  HIS138      0.1621
     77  C          9.8580  -15.5590   23.0880 C.2   138  HIS138      0.2264
     78  O         10.7280  -15.2030   22.3020 O.2   138  HIS138     -0.2867
     79  CB         9.9420  -14.1130   25.0180 C.3   138  HIS138      0.0745
     80  CG         9.6190  -13.9530   26.4550 C.ar  138  HIS138      0.0817
     81  ND1        8.3570  -13.6210   26.8930 N.ar  138  HIS138     -0.2268
     82  CD2       10.3880  -14.0680   27.5590 C.ar  138  HIS138      0.1154
     83  CE1        8.3640  -13.5310   28.2120 C.ar  138  HIS138      0.1986
     84  NE2        9.5810  -13.8090   28.6420 N.ar  138  HIS138     -0.2212
     85  N          4.6220  -11.4370   23.1430 N.3   141  ARG141     -0.1197
     86  CA         3.1680  -11.5600   22.9840 C.3   141  ARG141      0.1779
     87  C          2.5820  -10.5430   22.0120 C.2   141  ARG141      0.2305
     88  O          1.6210  -10.8510   21.3090 O.2   141  ARG141     -0.2863
     89  CB         2.4790  -11.3750   24.3940 C.2   141  ARG141     -0.0007
     90  CG         2.2630  -10.2120   25.0850 C.2   141  ARG141      0.0176
     91  CD         1.5430  -10.3250   26.4120 C.3   141  ARG141      0.2464
     92  NE         0.0820  -10.3570   26.2700 N.pl3 141  ARG141     -0.0815
     93  CZ        -0.7680  -10.4850   27.2870 C.cat 141  ARG141      0.5349
     94  NH1       -0.3200  -10.6090   28.5310 N.pl3 141  ARG141      0.1354
     95  NH2       -2.0700  -10.4940   27.0610 N.pl3 141  ARG141      0.1354
     96  N          8.0640  -19.4660   26.6280 N.3   171  THR171     -0.1203
     97  CA         6.8270  -18.7650   26.8630 C.3   171  THR171      0.1994
     98  C          6.4580  -17.9030   25.6690 C.2   171  THR171      0.2618
     99  O          7.3200  -17.5470   24.8440 O.2   171  THR171     -0.2717
    100  CB         6.8940  -17.8960   28.1550 C.3   171  THR171      0.1784
    101  OG1        5.5730  -17.5150   28.5690 O.3   171  THR171     -0.2211
    102  CG2        7.7050  -16.6730   27.9220 C.3   171  THR171      0.0376
    103  N          5.1660  -17.5780   25.5850 N.am  172  GLY172     -0.1942
    104  CA         4.6600  -16.6450   24.6020 C.3   172  GLY172      0.2014
    105  C          3.6160  -17.2990   23.7370 C.2   172  GLY172      0.2639
    106  O          3.9390  -18.1000   22.8570 O.2   172  GLY172     -0.2714
    107  N          2.3600  -16.9300   23.9910 N.am  173  GLY173     -0.1939
    108  CA         1.2040  -17.4320   23.2600 C.3   173  GLY173      0.2014
    109  C          1.2600  -18.9190   23.0100 C.2   173  GLY173      0.2638
    110  O          1.0170  -19.3640   21.8860 O.2   173  GLY173     -0.2714
    111  N          1.6210  -19.6820   24.0410 N.am  174  LEU174     -0.1977
    112  CA         1.6320  -21.1450   23.9470 C.3   174  LEU174      0.1596
    113  C          0.2200  -21.7080   24.0670 C.2   174  LEU174      0.2287
    114  O         -0.5380  -21.2960   24.9330 O.2   174  LEU174     -0.2864
    115  CB         2.5000  -21.7730   25.0470 C.3   174  LEU174      0.0297
    116  CG         4.0150  -21.5410   25.1450 C.3   174  LEU174      0.0022
    117  CD1        4.5990  -22.2700   26.3720 C.3   174  LEU174      0.0001
    118  CD2        4.7630  -21.9120   23.8630 C.3   174  LEU174      0.0001
    119  N          5.7360  -21.8810   30.2470 N.3   191  ILE191     -0.1231
    120  CA         4.9530  -20.8710   30.9210 C.3   191  ILE191      0.1692
    121  C          3.7400  -20.5610   30.0900 C.2   191  ILE191      0.2592
    122  O          3.8770  -20.1120   28.9530 O.2   191  ILE191     -0.2718
    123  CB         5.7410  -19.5890   31.1340 C.3   191  ILE191      0.0266
    124  CG1        6.9330  -19.8310   32.0700 C.3   191  ILE191      0.0019
    125  CG2        4.8150  -18.5170   31.6880 C.3   191  ILE191      0.0020
    126  CD1        8.0780  -18.8260   31.8950 C.3   191  ILE191      0.0001
    127  N          2.5550  -20.8120   30.6390 N.am  192  ALA192     -0.1966
    128  CA         1.3330  -20.4480   29.9400 C.3   192  ALA192      0.1728
    129  C          0.5720  -19.3860   30.7130 C.2   192  ALA192      0.2617
    130  O          0.3710  -19.5020   31.9380 O.2   192  ALA192     -0.2715
    131  CB         0.4740  -21.6560   29.6970 C.3   192  ALA192      0.0334
    132  N          0.1880  -18.3270   30.0070 N.am  193  GLY193     -0.1940
    133  CA        -0.6400  -17.2800   30.5910 C.3   193  GLY193      0.2014
    134  C         -2.0740  -17.4620   30.1280 C.2   193  GLY193      0.2639
    135  O         -2.8480  -18.2200   30.7510 O.2   193  GLY193     -0.2714
    136  N         -2.4010  -16.7950   29.0130 N.am  194  ARG194     -0.1963
    137  CA        -3.7700  -16.6900   28.4880 C.3   194  ARG194      0.1729
    138  C         -4.4230  -18.0500   28.1780 C.2   194  ARG194      0.2616
    139  O         -5.5940  -18.2750   28.4970 O.2   194  ARG194     -0.2715
    140  CB        -3.8010  -15.7610   27.2600 C.3   194  ARG194      0.0348
    141  CG        -3.6380  -14.2600   27.5780 C.3   194  ARG194      0.0492
    142  CD        -3.2380  -13.4500   26.3480 C.3   194  ARG194      0.2205
    143  NE        -1.8630  -13.7390   25.9030 N.pl3 194  ARG194     -0.0865
    144  CZ        -1.4380  -13.6450   24.6390 C.cat 194  ARG194      0.5346
    145  NH1       -0.1800  -13.9340   24.3270 N.pl3 194  ARG194      0.1354
    146  NH2       -2.2730  -13.2660   23.6790 N.pl3 194  ARG194      0.1354
    147  N         -3.6570  -18.9570   27.5770 N.am  195  GLY195     -0.1955
    148  CA        -4.1100  -20.3300   27.3750 C.3   195  GLY195      0.1869
    149  C         -4.6980  -20.9980   28.6100 C.2   195  GLY195      0.2309
    150  O         -5.4550  -21.9540   28.4900 O.2   195  GLY195     -0.2863
@<TRIPOS>BOND
     1    88    87    2
     2   110   109    2
     3    87    86    1
     4    78    77    2
     5   106   105    2
     6    86    85    1
     7    86    89    1
     8   109   108    1
     9   109   111   am
    10    77    76    1
    11   108   107    1
    12    65    66    2
    13    65    64    1
    14   146   144    1
    15   105   107   am
    16   105   104    1
    17   118   116    1
    18   112   111    1
    19   112   113    1
    20   112   115    1
    21   113   114    2
    22   145   144    1
    23    89    90    2
    24    76    75    1
    25    76    79    1
    26   104   103    1
    27    64    63    1
    28    64    67    1
    29   144   143    2
    30    99    98    2
    31    79    80    1
    32    69    71   ar
    33    69    68   ar
    34   115   116    1
    35    90    91    1
    36   116   117    1
    37    71    73   ar
    38    67    68    1
    39   103    98   am
    40    98    97    1
    41   143   142    1
    42    68    70   ar
    43    92    91    1
    44    92    93    2
    45   142   141    1
    46    80    81   ar
    47    80    82   ar
    48    96    97    1
    49    73    74    1
    50    73    72   ar
    51    97   100    1
    52    81    83   ar
    53    95    93    1
    54    70    72   ar
    55   140   141    1
    56   140   137    1
    57    93    94    1
    58   148   147    1
    59   148   149    1
    60    82    84   ar
    61   147   138   am
    62   102   100    1
    63   100   101    1
    64   138   137    1
    65   138   139    2
    66    83    84   ar
    67   137   136    1
    68   150   149    2
    69    57    56    2
    70   122   121    2
    71   136   134   am
    72    56    55    1
    73   131   128    1
    74   128   127    1
    75   128   129    1
    76   132   133    1
    77   132   129   am
    78   121   127   am
    79   121   120    1
    80   134   133    1
    81   134   135    2
    82    61    60   ar
    83   119   120    1
    84    55    58    1
    85    55    54    1
    86   129   130    2
    87    52    53    1
    88    52    51    1
    89   120   123    1
    90    58    59    1
    91   123   125    1
    92   123   124    1
    93    13    11   ar
    94    60    59    1
    95    60    62   ar
    96    36    34    1
    97    51    50    1
    98   126   124    1
    99    11    10    1
   100    11    12   ar
   101    10     7    1
   102    50    49    1
   103    34    35    1
   104    34    31    1
   105     5     2    1
   106     9     8    2
   107    49    46    1
   108    44    42   ar
   109     4     3    2
   110     7     8    1
   111     7     6    1
   112    28    27    1
   113    48    47    2
   114    31    30    1
   115    31    32    1
   116    27    29    1
   117    27    24    1
   118    30    25   am
   119     1     2    1
   120    46    47    1
   121    46    45    1
   122     2     3    1
   123    43    42   ar
   124    22    20   ar
   125    42    41    1
   126    21    20   ar
   127    25    24    1
   128    25    26    2
   129    20    19    1
   130    23    24    1
   131    32    33    2
   132    41    38    1
   133    40    39    2
   134    19    18    1
   135    39    38    1
   136    38    37    1
   137    18    15    1
   138    17    16    2
   139    15    16    1
   140    15    14    1
