@<TRIPOS>MOLECULE
tmp/3ey4C01.pdb
 138 129 0 0 0
SMALL
GASTEIGER

@<TRIPOS>ATOM
      1  N          7.4070  -15.2340  120.2400 N.3    96  ILE96      -0.1245
      2  CA         7.3170  -13.7610  120.2410 C.3    96  ILE96       0.1561
      3  C          6.9840  -13.2920  121.6600 C.2    96  ILE96       0.2260
      4  O          6.3910  -14.0210  122.4240 O.2    96  ILE96      -0.2867
      5  CB         6.2160  -13.1860  119.3070 C.3    96  ILE96       0.0252
      6  CG1        4.8270  -13.6030  119.8140 C.3    96  ILE96       0.0019
      7  CG2        6.4910  -13.5910  117.8720 C.3    96  ILE96       0.0019
      8  CD1        3.6460  -12.8660  119.1860 C.3    96  ILE96       0.0001
      9  N          2.4410   -8.6500  123.4340 N.3    99  THR99      -0.1203
     10  CA         2.1410   -7.2780  123.0370 C.3    99  THR99       0.1994
     11  C          0.6270   -7.1510  122.8780 C.2    99  THR99       0.2619
     12  O         -0.1090   -8.1090  123.1050 O.2    99  THR99      -0.2717
     13  CB         2.8010   -6.9190  121.6870 C.3    99  THR99       0.1784
     14  OG1        2.6450   -5.5180  121.4290 O.3    99  THR99      -0.2211
     15  CG2        2.1370   -7.6870  120.5590 C.3    99  THR99       0.0376
     16  N          0.1680   -5.9700  122.4780 N.am  100  SER100     -0.1937
     17  CA        -1.2540   -5.7340  122.2920 C.3   100  SER100      0.2055
     18  C         -1.5050   -4.5910  121.3200 C.2   100  SER100      0.2642
     19  O         -0.5690   -4.0490  120.7270 O.2   100  SER100     -0.2714
     20  CB        -1.9140   -5.4260  123.6320 C.3   100  SER100      0.2130
     21  OG        -1.2980   -4.3120  124.2500 O.3   100  SER100     -0.2179
     22  N         -2.7790   -4.2240  121.1810 N.am  101  LEU101     -0.1977
     23  CA        -3.2060   -3.1670  120.2700 C.3   101  LEU101      0.1596
     24  C         -3.4230   -1.8170  120.9330 C.2   101  LEU101      0.2287
     25  O         -4.3820   -1.6270  121.6630 O.2   101  LEU101     -0.2864
     26  CB        -4.4960   -3.5890  119.5720 C.3   101  LEU101      0.0297
     27  CG        -4.3980   -4.8530  118.7200 C.3   101  LEU101      0.0022
     28  CD1       -5.7880   -5.2900  118.2930 C.3   101  LEU101      0.0001
     29  CD2       -3.5170   -4.5820  117.5140 C.3   101  LEU101      0.0001
     30  N          4.7400  -12.3020  109.7760 N.3   145  SER145     -0.1202
     31  CA         3.3460  -11.9090  109.7370 C.3   145  SER145      0.2020
     32  C          3.0520  -10.9710  108.5860 C.2   145  SER145      0.2619
     33  O          3.9340  -10.6220  107.8200 O.2   145  SER145     -0.2717
     34  CB         2.9890  -11.1910  111.0410 C.3   145  SER145      0.2103
     35  OG         3.5810  -11.8090  112.1730 O.3   145  SER145     -0.2182
     36  N          1.7930  -10.5600  108.4840 N.am  146  LEU146     -0.1965
     37  CA         1.3880   -9.6330  107.4430 C.3   146  LEU146      0.1728
     38  C          1.9440   -8.2920  107.8660 C.2   146  LEU146      0.2616
     39  O          2.4830   -7.5430  107.0490 O.2   146  LEU146     -0.2715
     40  CB        -0.1360   -9.5440  107.3530 C.3   146  LEU146      0.0311
     41  CG        -0.8800  -10.8400  107.0130 C.3   146  LEU146      0.0022
     42  CD1       -2.3820  -10.5720  106.9380 C.3   146  LEU146      0.0001
     43  CD2       -0.3690  -11.3880  105.6890 C.3   146  LEU146      0.0001
     44  N          1.8150   -8.0100  109.1640 N.am  147  ALA147     -0.1977
     45  CA         2.2870   -6.7590  109.7460 C.3   147  ALA147      0.1597
     46  C          3.7950   -6.6270  109.5750 C.2   147  ALA147      0.2287
     47  O          4.3830   -5.6240  109.9260 O.2   147  ALA147     -0.2864
     48  CB         1.9150   -6.6980  111.2040 C.3   147  ALA147      0.0319
     49  N          0.3740   -1.3330  109.3840 N.3   152  TYR152     -0.1241
     50  CA        -0.9430   -1.4570  109.9770 C.3   152  TYR152      0.1605
     51  C         -0.7650   -0.7720  111.3370 C.2   152  TYR152      0.2264
     52  O          0.2940   -0.8700  111.9650 O.2   152  TYR152     -0.2867
     53  CB        -1.2750   -2.9510  110.1200 C.3   152  TYR152      0.0534
     54  CG        -2.7320   -3.3100  110.3660 C.ar  152  TYR152     -0.0201
     55  CD1       -3.3700   -2.9600  111.5540 C.ar  152  TYR152     -0.0009
     56  CD2       -3.4500   -4.0660  109.4370 C.ar  152  TYR152     -0.0009
     57  CE1       -4.6780   -3.3580  111.8150 C.ar  152  TYR152      0.0417
     58  CE2       -4.7600   -4.4680  109.6920 C.ar  152  TYR152      0.0417
     59  CZ        -5.3640   -4.1100  110.8860 C.ar  152  TYR152      0.1957
     60  OH        -6.6500   -4.5130  111.1580 O.3   152  TYR152     -0.2866
     61  N          0.2780   -1.7370  115.9340 N.3   155  VAL155     -0.1245
     62  CA         1.2790   -2.7810  116.0360 C.3   155  VAL155      0.1561
     63  C          2.6930   -2.3350  115.6930 C.2   155  VAL155      0.2260
     64  O          3.4960   -3.1370  115.2680 O.2   155  VAL155     -0.2867
     65  CB         0.9050   -3.9810  115.1430 C.3   155  VAL155      0.0252
     66  CG1       -0.4320   -4.5390  115.5680 C.3   155  VAL155      0.0019
     67  CG2        0.8390   -3.5580  113.6910 C.3   155  VAL155      0.0019
     68  N          5.6730   -4.4480  116.8960 N.3   158  TYR158     -0.1241
     69  CA         5.4420   -5.7520  116.2880 C.3   158  TYR158      0.1605
     70  C          5.9200   -5.7570  114.8280 C.2   158  TYR158      0.2264
     71  O          6.6290   -6.6560  114.4040 O.2   158  TYR158     -0.2867
     72  CB         3.9560   -6.1170  116.3470 C.3   158  TYR158      0.0534
     73  CG         3.6930   -7.5520  115.9480 C.ar  158  TYR158     -0.0201
     74  CD1        4.2020   -8.6030  116.7030 C.ar  158  TYR158     -0.0009
     75  CD2        2.9830   -7.8580  114.7920 C.ar  158  TYR158     -0.0009
     76  CE1        4.0190   -9.9160  116.3190 C.ar  158  TYR158      0.0417
     77  CE2        2.7890   -9.1640  114.3970 C.ar  158  TYR158      0.0417
     78  CZ         3.3100  -10.1920  115.1610 C.ar  158  TYR158      0.1957
     79  OH         3.1240  -11.5020  114.7700 O.3   158  TYR158     -0.2866
     80  N          2.0400  -14.6530  107.8930 N.3   190  LEU190     -0.1231
     81  CA         0.7280  -15.0640  108.3920 C.3   190  LEU190      0.1693
     82  C         -0.3180  -13.9670  108.6170 C.2   190  LEU190      0.2593
     83  O         -0.0200  -12.8610  109.0890 O.2   190  LEU190     -0.2718
     84  CB         0.8950  -15.8450  109.7020 C.3   190  LEU190      0.0284
     85  CG         1.2770  -17.3280  109.6640 C.3   190  LEU190      0.0019
     86  CD1        2.5430  -17.5260  108.8330 C.3   190  LEU190      0.0001
     87  CD2        1.4580  -17.8360  111.1010 C.3   190  LEU190      0.0001
     88  N         -1.5560  -14.2960  108.2730 N.am  191  GLY191     -0.1942
     89  CA        -2.6530  -13.3750  108.4890 C.3   191  GLY191      0.2014
     90  C         -3.1840  -13.6940  109.8740 C.2   191  GLY191      0.2638
     91  O         -2.5320  -14.3900  110.6390 O.2   191  GLY191     -0.2714
     92  N         -4.3530  -13.1980  110.2270 N.am  192  LEU192     -0.1977
     93  CA        -4.8560  -13.5220  111.5460 C.3   192  LEU192      0.1596
     94  C         -5.0120  -15.0540  111.6360 C.2   192  LEU192      0.2287
     95  O         -5.5340  -15.6950  110.7190 O.2   192  LEU192     -0.2864
     96  CB        -6.1890  -12.8110  111.7740 C.3   192  LEU192      0.0297
     97  CG        -6.8240  -12.8980  113.1610 C.3   192  LEU192      0.0022
     98  CD1       -5.8410  -12.4310  114.2180 C.3   192  LEU192      0.0001
     99  CD2       -8.0950  -12.0530  113.1700 C.3   192  LEU192      0.0001
    100  N         -4.0860  -16.3880  122.4770 N.3   197  THR197     -0.1203
    101  CA        -3.3020  -15.1930  122.7560 C.3   197  THR197      0.1994
    102  C         -3.7480  -14.0410  121.8570 C.2   197  THR197      0.2617
    103  O         -4.0400  -12.9500  122.3440 O.2   197  THR197     -0.2717
    104  CB        -1.7890  -15.4580  122.5400 C.3   197  THR197      0.1784
    105  OG1       -1.3490  -16.4700  123.4520 O.3   197  THR197     -0.2211
    106  CG2       -0.9740  -14.1940  122.7870 C.3   197  THR197      0.0376
    107  N         -3.8080  -14.2970  120.5510 N.am  198  ALA198     -0.1979
    108  CA        -4.2170  -13.2870  119.5740 C.3   198  ALA198      0.1597
    109  C         -5.7300  -13.0670  119.5390 C.2   198  ALA198      0.2287
    110  O         -6.1940  -11.9450  119.6420 O.2   198  ALA198     -0.2864
    111  CB        -3.7230  -13.6710  118.1880 C.3   198  ALA198      0.0319
    112  N         -6.3910  -10.6100  122.2890 N.3   201  ALA201     -0.1231
    113  CA        -5.9220   -9.2430  122.0730 C.3   201  ALA201      0.1694
    114  C         -6.5480   -8.5220  120.8770 C.2   201  ALA201      0.2591
    115  O         -6.3730   -7.3100  120.7110 O.2   201  ALA201     -0.2718
    116  CB        -4.4130   -9.2440  121.9280 C.3   201  ALA201      0.0304
    117  N         -7.2840   -9.2590  120.0530 N.am  202  VAL202     -0.1980
    118  CA        -7.9110   -8.6890  118.8630 C.3   202  VAL202      0.1595
    119  C         -9.4120   -8.4780  118.9520 C.2   202  VAL202      0.2287
    120  O         -9.9320   -7.5100  118.4070 O.2   202  VAL202     -0.2864
    121  CB        -7.6430   -9.5680  117.6350 C.3   202  VAL202      0.0276
    122  CG1       -8.8440   -9.5440  116.7000 C.3   202  VAL202      0.0022
    123  CG2       -6.4030   -9.0730  116.9200 C.3   202  VAL202      0.0022
    124  N        -10.0020   -5.5970  115.6690 N.3   206  VAL206     -0.1245
    125  CA        -9.8390   -6.1630  114.3270 C.3   206  VAL206      0.1561
    126  C        -11.0050   -7.0460  113.8680 C.2   206  VAL206      0.2260
    127  O        -11.5320   -7.8360  114.6370 O.2   206  VAL206     -0.2867
    128  CB        -8.5280   -6.9800  114.2410 C.3   206  VAL206      0.0252
    129  CG1       -8.3240   -7.4980  112.8180 C.3   206  VAL206      0.0019
    130  CG2       -7.3500   -6.1190  114.6830 C.3   206  VAL206      0.0019
    131  N        -10.9080   -9.0870  110.8640 N.3   208  MET208     -0.1245
    132  CA       -10.4800   -9.9990  109.8080 C.3   208  MET208      0.1570
    133  C        -10.9910  -11.3780  110.1980 C.2   208  MET208      0.2261
    134  O        -11.5130  -11.5570  111.2880 O.2   208  MET208     -0.2867
    135  CB        -8.9500  -10.0210  109.6960 C.3   208  MET208      0.0387
    136  CG        -8.3410   -8.7280  109.1550 C.3   208  MET208      0.0595
    137  SD        -6.5270   -8.7610  109.0040 S.3   208  MET208     -0.1393
    138  CE        -6.0400   -7.5930  110.2720 C.3   208  MET208      0.0692
@<TRIPOS>BOND
     1    43    41    1
     2    42    41    1
     3    41    40    1
     4    39    38    2
     5    40    37    1
     6    37    38    1
     7    37    36    1
     8    33    32    2
     9    38    44   am
    10    80    81    1
    11    88    89    1
    12    88    82   am
    13    81    82    1
    14    81    84    1
    15    36    32   am
    16    89    90    1
    17    32    31    1
    18    82    83    2
    19    86    85    1
    20   137   136    1
    21   137   138    1
    22   136   135    1
    23    44    45    1
    24    49    50    1
    25    56    58   ar
    26    56    54   ar
    27    46    45    1
    28    46    47    2
    29    85    84    1
    30    85    87    1
    31    58    59   ar
    32   135   132    1
    33    31    30    1
    34    31    34    1
    35    45    48    1
    36   132   133    1
    37   132   131    1
    38    90    92   am
    39    90    91    2
    40    50    53    1
    41    50    51    1
    42    53    54    1
    43   133   134    2
    44    92    93    1
    45    54    55   ar
    46    95    94    2
    47    59    60    1
    48    59    57   ar
    49    34    35    1
    50    51    52    2
    51    93    94    1
    52    93    96    1
    53    55    57   ar
    54    96    97    1
    55   129   128    1
    56    97    99    1
    57    97    98    1
    58    67    65    1
    59   126   125    1
    60   126   127    2
    61   128   125    1
    62   128   130    1
    63   125   124    1
    64    77    75   ar
    65    77    78   ar
    66    71    70    2
    67    79    78    1
    68    75    73   ar
    69    70    69    1
    70    65    66    1
    71    65    62    1
    72    78    76   ar
    73    64    63    2
    74    63    62    1
    75    61    62    1
    76    73    72    1
    77    73    74   ar
    78    69    72    1
    79    69    68    1
    80    76    74   ar
    81   122   121    1
    82   123   121    1
    83    29    27    1
    84   121   118    1
    85     7     5    1
    86   111   108    1
    87    28    27    1
    88   120   119    2
    89    27    26    1
    90   118   119    1
    91   118   117    1
    92     8     6    1
    93     5     6    1
    94     5     2    1
    95   109   108    1
    96   109   110    2
    97    26    23    1
    98   108   107    1
    99   117   114   am
   100     1     2    1
   101     2     3    1
   102    23    24    1
   103    23    22    1
   104   107   102   am
   105    15    13    1
   106   115   114    2
   107    19    18    2
   108   114   113    1
   109    24    25    2
   110    22    18   am
   111    18    17    1
   112    14    13    1
   113     3     4    2
   114    13    10    1
   115   102   103    2
   116   102   101    1
   117   116   113    1
   118   113   112    1
   119    17    16    1
   120    17    20    1
   121   100   101    1
   122    16    11   am
   123   104   101    1
   124   104   106    1
   125   104   105    1
   126    11    10    1
   127    11    12    2
   128    10     9    1
   129    20    21    1
