@<TRIPOS>MOLECULE
tmp/3ey9A00.pdb
 125 119 0 0 0
SMALL
GASTEIGER

@<TRIPOS>ATOM
      1  N         46.7800   27.1770    9.4010 N.3    82  ASN82      -0.1240
      2  CA        46.0970   26.1530   10.1870 C.3    82  ASN82       0.1653
      3  C         46.2240   26.3960   11.6850 C.2    82  ASN82       0.2266
      4  O         45.2560   26.2750   12.4190 O.2    82  ASN82      -0.2867
      5  CB        46.6050   24.7620    9.8460 C.3    82  ASN82       0.1155
      6  CG        45.8070   23.6660   10.5410 C.2    82  ASN82       0.2627
      7  OD1       44.5750   23.5920   10.4210 O.2    82  ASN82      -0.2716
      8  ND2       46.5120   22.7920   11.2610 N.am   82  ASN82      -0.0877
      9  N         46.5760   15.0590   21.0010 N.3   378  ASP378     -0.1225
     10  CA        46.3130   15.1100   19.5690 C.3   378  ASP378      0.1805
     11  C         44.8380   14.8300   19.2840 C.2   378  ASP378      0.2598
     12  O         44.1920   14.0320   19.9660 O.2   378  ASP378     -0.2718
     13  CB        47.1640   14.0840   18.8130 C.3   378  ASP378      0.1424
     14  CG        48.4640   14.6540   18.3140 C.2   378  ASP378      0.3668
     15  OD1       48.5720   15.8890   18.2010 O.co2 378  ASP378     -0.2456
     16  OD2       49.3800   13.8630   18.0200 O.co2 378  ASP378     -0.2456
     17  N         44.3060   15.4940   18.2690 N.am  379  VAL379     -0.1966
     18  CA        43.0040   15.1310   17.7660 C.3   379  VAL379      0.1727
     19  C         43.1200   13.7180   17.2050 C.2   379  VAL379      0.2617
     20  O         44.0160   13.4180   16.4110 O.2   379  VAL379     -0.2715
     21  CB        42.5190   16.1190   16.7110 C.3   379  VAL379      0.0290
     22  CG1       41.2640   15.5910   16.0370 C.3   379  VAL379      0.0023
     23  CG2       42.2590   17.4730   17.3650 C.3   379  VAL379      0.0023
     24  N         42.2130   12.8560   17.6420 N.am  380  GLY380     -0.1940
     25  CA        42.2900   11.4290   17.4070 C.3   380  GLY380      0.2014
     26  C         41.9750   10.7350   18.7260 C.2   380  GLY380      0.2640
     27  O         41.4330   11.3550   19.6490 O.2   380  GLY380     -0.2714
     28  N         42.3250    9.4590   18.8470 N.am  381  THR381     -0.1937
     29  CA        41.9830    8.7320   20.0650 C.3   381  THR381      0.2013
     30  C         42.6230    9.3330   21.3170 C.2   381  THR381      0.2484
     31  O         42.0460    9.2410   22.4010 O.2   381  THR381     -0.2729
     32  CB        42.3000    7.2210   19.9890 C.3   381  THR381      0.1807
     33  OG1       43.7180    7.0170   20.0670 O.3   381  THR381     -0.2208
     34  CG2       41.7430    6.6150   18.7110 C.3   381  THR381      0.0379
     35  N         43.8150    9.9480   21.1830 N.am  382  PRO382     -0.2726
     36  CA        44.3900   10.5810   22.3790 C.3   382  PRO382      0.1402
     37  C         43.4270   11.5840   23.0210 C.2   382  PRO382      0.2269
     38  O         43.4490   11.7620   24.2350 O.2   382  PRO382     -0.2865
     39  CB        45.6280   11.3020   21.8340 C.3   382  PRO382      0.0296
     40  CG        46.0150   10.5210   20.6310 C.3   382  PRO382      0.0237
     41  CD        44.7150   10.0480   20.0190 C.3   382  PRO382      0.0939
     42  N         39.8170   21.3620   15.5790 N.3   405  GLY405     -0.1210
     43  CA        39.8470   19.9240   15.3710 C.3   405  GLY405      0.1956
     44  C         40.9460   19.4240   14.4610 C.2   405  GLY405      0.2613
     45  O         40.7140   18.5310   13.6420 O.2   405  GLY405     -0.2717
     46  N         42.1450   19.9840   14.6100 N.am  406  SER406     -0.1938
     47  CA        43.2770   19.6140   13.7670 C.3   406  SER406      0.2055
     48  C         44.1240   18.5130   14.3850 C.2   406  SER406      0.2642
     49  O         44.4680   18.5690   15.5680 O.2   406  SER406     -0.2714
     50  CB        44.1550   20.8370   13.4930 C.3   406  SER406      0.2130
     51  OG        45.2760   20.5020   12.6830 O.3   406  SER406     -0.2179
     52  N         44.4630   17.5160   13.5740 N.am  407  MET407     -0.1976
     53  CA        45.4950   16.5470   13.9330 C.3   407  MET407      0.1605
     54  C         46.8110   17.2680   14.2500 C.2   407  MET407      0.2287
     55  O         46.9890   18.4320   13.9030 O.2   407  MET407     -0.2864
     56  CB        45.7360   15.5990   12.7580 C.3   407  MET407      0.0413
     57  CG        44.7220   14.4700   12.6100 C.3   407  MET407      0.0598
     58  SD        45.1880   13.3070   11.3010 S.3   407  MET407     -0.1393
     59  CE        46.8810   12.9450   11.8150 C.3   407  MET407      0.0692
     60  N         49.1700   11.2530   18.8870 N.3   431  GLY431     -0.1210
     61  CA        48.8860   10.1270   18.0110 C.3   431  GLY431      0.1956
     62  C         50.1420    9.8590   17.2020 C.2   431  GLY431      0.2612
     63  O         51.0280   10.7120   17.1650 O.2   431  GLY431     -0.2717
     64  N         50.2540    8.6960   16.5650 N.am  432  ASP432     -0.1959
     65  CA        51.4140    8.4910   15.7030 C.3   432  ASP432      0.1840
     66  C         51.2350    9.1760   14.3400 C.2   432  ASP432      0.2623
     67  O         52.2060    9.6060   13.7060 O.2   432  ASP432     -0.2715
     68  CB        51.8470    7.0140   15.6050 C.3   432  ASP432      0.1450
     69  CG        50.8390    6.1260   14.8820 C.2   432  ASP432      0.3671
     70  OD1       49.6250    6.4550   14.8470 O.co2 432  ASP432     -0.2456
     71  OD2       51.2970    5.0770   14.3550 O.co2 432  ASP432     -0.2456
     72  N         49.9840    9.3240   13.9220 N.am  433  GLY433     -0.1940
     73  CA        49.6610   10.1240   12.7580 C.3   433  GLY433      0.2014
     74  C         49.9460   11.5970   13.0180 C.2   433  GLY433      0.2639
     75  O         50.5050   12.3010   12.1690 O.2   433  GLY433     -0.2714
     76  N         49.5550   12.0600   14.2020 N.am  434  GLY434     -0.1954
     77  CA        49.7050   13.4540   14.5800 C.3   434  GLY434      0.1869
     78  C         51.1370   13.8290   14.8960 C.2   434  GLY434      0.2309
     79  O         51.5910   14.9470   14.6100 O.2   434  GLY434     -0.2863
     80  N         52.8490   14.0160   11.6060 N.3   437  MET437     -0.1245
     81  CA        52.2990   14.9870   10.6620 C.3   437  MET437      0.1570
     82  C         53.1170   16.2680   10.6900 C.2   437  MET437      0.2261
     83  O         53.2410   16.9460    9.6850 O.2   437  MET437     -0.2867
     84  CB        50.8230   15.2440   10.9630 C.3   437  MET437      0.0387
     85  CG        50.1880   16.3590   10.1650 C.3   437  MET437      0.0595
     86  SD        48.3990   16.3770   10.3760 S.3   437  MET437     -0.1393
     87  CE        47.9080   15.2880    9.0240 C.3   437  MET437      0.0692
     88  N         50.9830    7.3340   21.2190 N.3   457  PHE457     -0.1241
     89  CA        50.1320    6.1550   21.1970 C.3   457  PHE457      0.1605
     90  C         50.3430    5.4280   19.8710 C.2   457  PHE457      0.2264
     91  O         49.5150    5.5070   18.9690 O.2   457  PHE457     -0.2867
     92  CB        48.6700    6.5740   21.3280 C.3   457  PHE457      0.0534
     93  CG        48.2860    7.0410   22.7070 C.ar  457  PHE457     -0.0203
     94  CD1       48.8980    8.1450   23.2790 C.ar  457  PHE457     -0.0042
     95  CD2       47.2870    6.3860   23.4210 C.ar  457  PHE457     -0.0042
     96  CE1       48.5320    8.5790   24.5460 C.ar  457  PHE457     -0.0003
     97  CE2       46.9130    6.8160   24.6830 C.ar  457  PHE457     -0.0003
     98  CZ        47.5380    7.9140   25.2480 C.ar  457  PHE457     -0.0000
     99  N         49.8590    3.1690   17.4660 N.3   459  ASN459     -0.1240
    100  CA        48.9540    2.1090   17.0290 C.3   459  ASN459      0.1653
    101  C         49.0200    1.7920   15.5280 C.2   459  ASN459      0.2266
    102  O         48.2200    1.0090   15.0150 O.2   459  ASN459     -0.2867
    103  CB        47.5170    2.3960   17.4610 C.3   459  ASN459      0.1155
    104  CG        46.9530    3.6850   16.8560 C.2   459  ASN459      0.2627
    105  OD1       47.4460    4.1980   15.8460 O.2   459  ASN459     -0.2716
    106  ND2       45.8950    4.1990   17.4710 N.am  459  ASN459     -0.0877
    107  N         48.1290    3.2010   13.0810 N.3   461  VAL461     -0.1231
    108  CA        46.8630    3.4430   12.4380 C.3   461  VAL461      0.1692
    109  C         46.3600    4.8740   12.6890 C.2   461  VAL461      0.2592
    110  O         46.8260    5.5780   13.6090 O.2   461  VAL461     -0.2718
    111  CB        45.8220    2.3970   12.9090 C.3   461  VAL461      0.0266
    112  CG1       45.2850    2.7650   14.2730 C.3   461  VAL461      0.0020
    113  CG2       44.6820    2.2700   11.9130 C.3   461  VAL461      0.0020
    114  N         45.4250    5.2930   11.8380 N.am  462  LEU462     -0.1966
    115  CA        44.7380    6.5560   11.9970 C.3   462  LEU462      0.1728
    116  C         43.3730    6.3060   12.6240 C.2   462  LEU462      0.2616
    117  O         42.4140    5.9600   11.9300 O.2   462  LEU462     -0.2715
    118  CB        44.5780    7.2650   10.6440 C.3   462  LEU462      0.0311
    119  CG        45.8640    7.7450    9.9630 C.3   462  LEU462      0.0022
    120  CD1       45.5510    8.3830    8.6230 C.3   462  LEU462      0.0001
    121  CD2       46.6230    8.7210   10.8500 C.3   462  LEU462      0.0001
    122  N         43.2920    6.4620   13.9420 N.am  463  GLY463     -0.1955
    123  CA        42.0110    6.4100   14.6270 C.3   463  GLY463      0.1869
    124  C         41.5430    5.0150   14.9880 C.2   463  GLY463      0.2309
    125  O         42.2720    4.0350   14.8210 O.2   463  GLY463     -0.2863
@<TRIPOS>BOND
     1   120   119    1
     2    87    86    1
     3     1     2    1
     4    83    82    2
     5     5     2    1
     6     5     6    1
     7   119   118    1
     8   119   121    1
     9    85    86    1
    10    85    84    1
    11     2     3    1
    12     7     6    2
    13     6     8   am
    14   118   115    1
    15    81    82    1
    16    81    84    1
    17    81    80    1
    18    58    59    1
    19    58    57    1
    20     3     4    2
    21   114   115    1
    22   114   109   am
    23   113   111    1
    24   117   116    2
    25   115   116    1
    26    75    74    2
    27   108   109    1
    28   108   111    1
    29   108   107    1
    30    57    56    1
    31   116   122   am
    32    51    50    1
    33   109   110    2
    34    56    53    1
    35    73    74    1
    36    73    72    1
    37   111   112    1
    38    74    76   am
    39    50    47    1
    40    52    53    1
    41    52    48   am
    42    45    44    2
    43    67    66    2
    44    47    48    1
    45    47    46    1
    46    55    54    2
    47    72    66   am
    48    53    54    1
    49   122   123    1
    50    76    77    1
    51    66    65    1
    52    71    69   ar
    53    48    49    2
    54    44    46   am
    55    44    43    1
    56    77    78    1
    57    79    78    2
    58   123   124    1
    59   125   124    2
    60    70    69   ar
    61    69    68    1
    62   102   101    2
    63    43    42    1
    64   101   100    1
    65    68    65    1
    66    65    64    1
    67   105   104    2
    68    22    21    1
    69    20    19    2
    70    64    62   am
    71    21    23    1
    72    21    18    1
    73   104   103    1
    74   104   106   am
    75   100   103    1
    76   100    99    1
    77    63    62    2
    78    62    61    1
    79    19    24   am
    80    19    18    1
    81    25    24    1
    82    25    26    1
    83    18    17    1
    84    61    60    1
    85    16    14   ar
    86    15    14   ar
    87    17    11   am
    88    14    13    1
    89    34    32    1
    90    26    28   am
    91    26    27    2
    92    13    10    1
    93    28    29    1
    94    91    90    2
    95    11    10    1
    96    11    12    2
    97    10     9    1
    98    90    89    1
    99    32    29    1
   100    32    33    1
   101    41    40    1
   102    41    35    1
   103    29    30    1
   104    40    39    1
   105    35    30   am
   106    35    36    1
   107    89    88    1
   108    89    92    1
   109    30    31    2
   110    92    93    1
   111    39    36    1
   112    36    37    1
   113    93    94   ar
   114    93    95   ar
   115    37    38    2
   116    94    96   ar
   117    95    97   ar
   118    96    98   ar
   119    97    98   ar
