@<TRIPOS>MOLECULE
tmp/3ey9A02.pdb
 71 67 0 0 0
SMALL
GASTEIGER

@<TRIPOS>ATOM
      1  N         59.6430   31.6910   11.6240 N.3    23  VAL23      -0.1231
      2  CA        60.7620   31.2500   10.8090 C.3    23  VAL23       0.1692
      3  C         61.1500   32.4080    9.9080 C.2    23  VAL23       0.2593
      4  O         60.3040   32.9890    9.2260 O.2    23  VAL23      -0.2718
      5  CB        60.3940   30.0300    9.9560 C.3    23  VAL23       0.0266
      6  CG1       61.5110   29.6890    9.0010 C.3    23  VAL23       0.0020
      7  CG2       60.0850   28.8660   10.8330 C.3    23  VAL23       0.0020
      8  N         62.4380   32.7260    9.9130 N.am   24  THR24      -0.1939
      9  CA        62.9700   33.9210    9.2790 C.3    24  THR24       0.2028
     10  C         62.8350   33.9030    7.7740 C.2    24  THR24       0.2643
     11  O         62.6740   32.8510    7.1530 O.2    24  THR24      -0.2714
     12  CB        64.4790   34.0460    9.5620 C.3    24  THR24       0.1808
     13  OG1       64.8250   33.1770   10.6460 O.3    24  THR24      -0.2208
     14  CG2       64.8660   35.4960    9.8830 C.3    24  THR24       0.0379
     15  N         62.9370   35.0910    7.1970 N.am   25  GLY25      -0.1939
     16  CA        63.0480   35.2720    5.7640 C.3    25  GLY25       0.2014
     17  C         63.6470   36.6470    5.5290 C.2    25  GLY25       0.2638
     18  O         63.8330   37.4200    6.4760 O.2    25  GLY25      -0.2714
     19  N         63.9580   36.9630    4.2770 N.am   26  ASP26      -0.1971
     20  CA        64.5020   38.2750    3.9690 C.3    26  ASP26       0.1709
     21  C         63.4050   39.3020    4.1880 C.2    26  ASP26       0.2293
     22  O         63.6610   40.4520    4.5230 O.2    26  ASP26      -0.2864
     23  CB        65.0080   38.3220    2.5310 C.3    26  ASP26       0.1436
     24  CG        65.9090   39.5190    2.2660 C.2    26  ASP26       0.3671
     25  OD1       65.3810   40.5950    1.9040 O.co2  26  ASP26      -0.2456
     26  OD2       67.1450   39.3810    2.4040 O.co2  26  ASP26      -0.2456
     27  N         56.2330   26.7930   10.1450 N.3    49  GLU49      -0.1245
     28  CA        55.6140   27.9430   10.7780 C.3    49  GLU49       0.1567
     29  C         54.2760   27.5840   11.4220 C.2    49  GLU49       0.2260
     30  O         53.8710   28.2010   12.4140 O.2    49  GLU49      -0.2867
     31  CB        55.4770   29.0950    9.7950 C.3    49  GLU49       0.0388
     32  CG        56.8060   29.7510    9.4310 C.3    49  GLU49       0.1160
     33  CD        57.3390   29.2780    8.1000 C.2    49  GLU49       0.3649
     34  OE1       56.9920   28.1360    7.7050 O.co2  49  GLU49      -0.2457
     35  OE2       58.0850   30.0630    7.4560 O.co2  49  GLU49      -0.2457
     36  N         57.5710   34.6940    7.0690 N.3    72  SER72      -0.1217
     37  CA        58.0760   35.4510    5.9330 C.3    72  SER72       0.1889
     38  C         56.9480   35.7320    4.9380 C.2    72  SER72       0.2288
     39  O         55.8120   35.3120    5.1290 O.2    72  SER72      -0.2866
     40  CB        59.2150   34.6880    5.2510 C.3    72  SER72       0.2089
     41  OG        58.7420   33.6000    4.4630 O.3    72  SER72      -0.2183
     42  N         54.8170   31.8950    1.2390 N.3    75  PRO75      -0.2102
     43  CA        54.6530   30.5820    1.8760 C.3    75  PRO75       0.1504
     44  C         55.0030   30.6560    3.3550 C.2    75  PRO75       0.2576
     45  O         54.4990   29.8680    4.1590 O.2    75  PRO75      -0.2718
     46  CB        55.6730   29.7060    1.1530 C.3    75  PRO75       0.0282
     47  CG        56.1530   30.5170   -0.0350 C.3    75  PRO75       0.0208
     48  CD        55.9690   31.9330    0.3210 C.3    75  PRO75       0.0893
     49  N         55.8760   31.5970    3.6970 N.am   76  GLY76      -0.1957
     50  CA        56.2400   31.8370    5.0770 C.3    76  GLY76       0.1869
     51  C         55.0020   31.9670    5.9420 C.2    76  GLY76       0.2309
     52  O         54.7120   31.0710    6.7390 O.2    76  GLY76      -0.2863
     53  N         52.0740   29.3330    6.0010 N.3    79  HIS79      -0.1241
     54  CA        52.2890   28.1610    6.8330 C.3    79  HIS79       0.1621
     55  C         51.6410   28.3150    8.2170 C.2    79  HIS79       0.2264
     56  O         51.4140   27.3260    8.9250 O.2    79  HIS79      -0.2867
     57  CB        53.7890   27.8880    6.9840 C.3    79  HIS79       0.0745
     58  CG        54.3380   26.9280    5.9770 C.ar   79  HIS79       0.0817
     59  ND1       55.6850   26.6800    5.8480 N.ar   79  HIS79      -0.2268
     60  CD2       53.7170   26.1610    5.0500 C.ar   79  HIS79       0.1154
     61  CE1       55.8750   25.7930    4.8830 C.ar   79  HIS79       0.1986
     62  NE2       54.6980   25.4610    4.3880 N.ar   79  HIS79      -0.2212
     63  N         56.6660   34.6700   -5.0130 N.3   112  GLN112     -0.1245
     64  CA        56.0540   34.4830   -3.6980 C.3   112  GLN112      0.1566
     65  C         54.7840   35.2870   -3.4470 C.2   112  GLN112      0.2260
     66  O         54.2900   35.3110   -2.3140 O.2   112  GLN112     -0.2867
     67  CB        57.0470   34.7410   -2.5700 C.3   112  GLN112      0.0367
     68  CG        58.0930   33.6680   -2.3920 C.3   112  GLN112      0.0905
     69  CD        59.2250   34.1330   -1.5050 C.2   112  GLN112      0.2608
     70  OE1       59.6220   35.3110   -1.5500 O.2   112  GLN112     -0.2717
     71  NE2       59.7540   33.2170   -0.6910 N.am  112  GLN112     -0.0878
@<TRIPOS>BOND
     1    63    64    1
     2    64    65    1
     3    64    67    1
     4    65    66    2
     5    67    68    1
     6    68    69    1
     7    70    69    2
     8    69    71   am
     9    47    48    1
    10    47    46    1
    11    48    42    1
    12    46    43    1
    13    42    43    1
    14    43    44    1
    15    25    24   ar
    16    24    26   ar
    17    24    23    1
    18    23    20    1
    19    44    49   am
    20    44    45    2
    21    49    50    1
    22    20    21    1
    23    20    19    1
    24    21    22    2
    25    19    17   am
    26    62    61   ar
    27    62    60   ar
    28    41    40    1
    29    61    59   ar
    30    38    39    2
    31    38    37    1
    32    60    58   ar
    33    50    51    1
    34    40    37    1
    35    17    16    1
    36    17    18    2
    37    16    15    1
    38    59    58   ar
    39    37    36    1
    40    51    52    2
    41    58    57    1
    42    53    54    1
    43    54    57    1
    44    54    55    1
    45    11    10    2
    46    15    10   am
    47    35    33   ar
    48    34    33   ar
    49    10     9    1
    50    33    32    1
    51    55    56    2
    52     6     5    1
    53     4     3    2
    54     9    12    1
    55     9     8    1
    56    32    31    1
    57    12    14    1
    58    12    13    1
    59    31    28    1
    60     3     8   am
    61     3     2    1
    62     5     2    1
    63     5     7    1
    64    27    28    1
    65    28    29    1
    66     2     1    1
    67    29    30    2
