@<TRIPOS>MOLECULE
tmp/3eydA00.pdb
 125 119 0 0 0
SMALL
GASTEIGER

@<TRIPOS>ATOM
      1  N        208.5760   -5.4580   53.0300 N.3    41  GLN41      -0.1245
      2  CA       207.5670   -4.5290   52.5420 C.3    41  GLN41       0.1566
      3  C        207.3810   -3.2650   53.3560 C.2    41  GLN41       0.2260
      4  O        208.0220   -3.0660   54.3810 O.2    41  GLN41      -0.2867
      5  CB       206.2250   -5.2460   52.4460 C.3    41  GLN41       0.0367
      6  CG       205.6000   -5.5870   53.7820 C.3    41  GLN41       0.0905
      7  CD       204.6660   -6.7670   53.6910 C.2    41  GLN41       0.2608
      8  OE1      205.1180   -7.9080   53.6660 O.2    41  GLN41      -0.2717
      9  NE2      203.3610   -6.5070   53.6240 N.am   41  GLN41      -0.0878
     10  N        199.9370   -9.3120   58.9820 N.3    57  HIS57      -0.1241
     11  CA       200.4650   -9.8280   57.7330 C.3    57  HIS57       0.1621
     12  C        201.6390   -9.0220   57.1890 C.2    57  HIS57       0.2264
     13  O        202.3060   -9.4530   56.2540 O.2    57  HIS57      -0.2867
     14  CB       199.3360  -10.0480   56.6960 C.3    57  HIS57       0.0745
     15  CG       198.8970   -8.8160   55.9660 C.ar   57  HIS57       0.0817
     16  ND1      197.6840   -8.2050   56.1970 N.ar   57  HIS57      -0.2268
     17  CD2      199.4800   -8.1200   54.9570 C.ar   57  HIS57       0.1154
     18  CE1      197.5300   -7.1860   55.3620 C.ar   57  HIS57       0.1986
     19  NE2      198.6100   -7.1140   54.5990 N.ar   57  HIS57      -0.2212
     20  N        183.5530   -5.0410   55.9870 N.3   123  ARG123     -0.1245
     21  CA       183.5840   -4.6990   54.5660 C.3   123  ARG123      0.1563
     22  C        183.0010   -3.3240   54.2870 C.2   123  ARG123      0.2260
     23  O        182.0990   -2.8580   54.9840 O.2   123  ARG123     -0.2867
     24  CB       182.7970   -5.7250   53.7560 C.3   123  ARG123      0.0307
     25  CG       183.4520   -7.0750   53.6300 C.3   123  ARG123      0.0489
     26  CD       184.5800   -7.0580   52.6090 C.3   123  ARG123      0.2205
     27  NE       185.1430   -8.3970   52.4270 N.pl3 123  ARG123     -0.0865
     28  CZ       184.7450   -9.2720   51.5030 C.cat 123  ARG123      0.5346
     29  NH1      183.7750   -8.9640   50.6470 N.pl3 123  ARG123      0.1354
     30  NH2      185.2990  -10.4760   51.4590 N.pl3 123  ARG123      0.1354
     31  N        194.0760   -1.6050   42.2020 N.3   132  ILE132     -0.1245
     32  CA       194.6570   -2.0370   43.4740 C.3   132  ILE132      0.1561
     33  C        196.0260   -1.4020   43.7510 C.2   132  ILE132      0.2260
     34  O        196.3880   -1.1680   44.9100 O.2   132  ILE132     -0.2867
     35  CB       194.7450   -3.5740   43.5800 C.3   132  ILE132      0.0252
     36  CG1      195.7870   -4.1290   42.6120 C.3   132  ILE132      0.0019
     37  CG2      193.3950   -4.1830   43.2990 C.3   132  ILE132      0.0019
     38  CD1      196.0520   -5.6080   42.8050 C.3   132  ILE132      0.0001
     39  N        196.0160    1.3910   46.1060 N.3   135  LEU135     -0.1231
     40  CA       195.8960    1.0140   47.5040 C.3   135  LEU135      0.1693
     41  C        197.0940    0.2900   48.0900 C.2   135  LEU135      0.2592
     42  O        197.2210    0.1620   49.3070 O.2   135  LEU135     -0.2718
     43  CB       194.6360    0.1730   47.6830 C.3   135  LEU135      0.0284
     44  CG       193.3450    0.8970   47.3100 C.3   135  LEU135      0.0019
     45  CD1      192.1830   -0.0510   47.4480 C.3   135  LEU135      0.0001
     46  CD2      193.1400    2.1200   48.1840 C.3   135  LEU135      0.0001
     47  N        197.9890   -0.1480   47.2220 N.am  136  LYS136     -0.1966
     48  CA       199.1750   -0.8820   47.6270 C.3   136  LYS136      0.1728
     49  C        199.9640   -0.1680   48.7280 C.2   136  LYS136      0.2616
     50  O        200.2420    1.0320   48.6270 O.2   136  LYS136     -0.2715
     51  CB       200.0610   -1.1080   46.4030 C.3   136  LYS136      0.0311
     52  CG       200.9080   -2.3580   46.4510 C.3   136  LYS136      0.0038
     53  CD       201.8900   -2.3850   45.2920 C.3   136  LYS136      0.0206
     54  CE       202.8550   -1.1970   45.3610 C.3   136  LYS136      0.1093
     55  NZ       203.8950   -1.2470   44.2980 N.3   136  LYS136     -0.1314
     56  N        200.2860   -0.8980   49.7920 N.am  137  GLY137     -0.1955
     57  CA       201.0540   -0.3340   50.8870 C.3   137  GLY137      0.1869
     58  C        200.2280    0.4400   51.8970 C.2   137  GLY137      0.2309
     59  O        200.7710    1.1860   52.7150 O.2   137  GLY137     -0.2863
     60  N        197.7520   -1.1960   53.9320 N.3   139  SER139     -0.1217
     61  CA       197.2230   -2.0360   55.0020 C.3   139  SER139      0.1889
     62  C        197.7880   -1.5750   56.3390 C.2   139  SER139      0.2288
     63  O        198.9780   -1.2800   56.4460 O.2   139  SER139     -0.2866
     64  CB       197.4520   -3.5310   54.7360 C.3   139  SER139      0.2089
     65  OG       198.6100   -4.0930   54.1160 O.3   139  SER139     -0.2183
     66  N        192.5360   -0.7570   57.4900 N.3   154  PHE154     -0.1227
     67  CA       192.5550   -1.3920   56.1620 C.3   154  PHE154      0.1736
     68  C        193.4770   -2.6260   56.1350 C.2   154  PHE154      0.2595
     69  O        194.5850   -2.5760   56.6430 O.2   154  PHE154     -0.2718
     70  CB       192.9990   -0.3490   55.1090 C.3   154  PHE154      0.0547
     71  CG       193.1160   -0.8870   53.6990 C.ar  154  PHE154     -0.0202
     72  CD1      192.0860   -1.6100   53.1120 C.ar  154  PHE154     -0.0042
     73  CD2      194.2940   -0.7090   52.9790 C.ar  154  PHE154     -0.0042
     74  CE1      192.2340   -2.1340   51.8320 C.ar  154  PHE154     -0.0003
     75  CE2      194.4470   -1.2330   51.6920 C.ar  154  PHE154     -0.0003
     76  CZ       193.4220   -1.9500   51.1240 C.ar  154  PHE154     -0.0000
     77  N        193.0210   -3.7440   55.5830 N.am  155  ARG155     -0.1966
     78  CA       193.8930   -4.9090   55.5330 C.3   155  ARG155      0.1729
     79  C        193.9620   -5.6220   54.1860 C.2   155  ARG155      0.2616
     80  O        194.9800   -6.2220   53.8500 O.2   155  ARG155     -0.2715
     81  CB       193.5360   -5.9110   56.6270 C.3   155  ARG155      0.0348
     82  CG       192.2380   -6.6410   56.4180 C.3   155  ARG155      0.0492
     83  CD       192.1240   -7.7900   57.3950 C.3   155  ARG155      0.2205
     84  NE       193.1120   -8.8370   57.1530 N.pl3 155  ARG155     -0.0865
     85  CZ       192.8700   -9.9680   56.4910 C.cat 155  ARG155      0.5346
     86  NH1      191.6700  -10.2090   55.9770 N.pl3 155  ARG155      0.1354
     87  NH2      193.8250  -10.8790   56.3660 N.pl3 155  ARG155      0.1354
     88  N        192.9000   -5.5370   53.4020 N.am  156  ALA156     -0.1963
     89  CA       192.8770   -6.2000   52.1110 C.3   156  ALA156      0.1728
     90  C        191.8340   -5.5790   51.2020 C.2   156  ALA156      0.2616
     91  O        190.8720   -4.9630   51.6720 O.2   156  ALA156     -0.2715
     92  CB       192.5670   -7.6720   52.2970 C.3   156  ALA156      0.0334
     93  N        192.0280   -5.7430   49.8980 N.am  157  ALA157     -0.1963
     94  CA       191.0810   -5.2320   48.9140 C.3   157  ALA157      0.1728
     95  C        190.2550   -6.3600   48.2950 C.2   157  ALA157      0.2616
     96  O        190.6990   -7.5190   48.2210 O.2   157  ALA157     -0.2715
     97  CB       191.8130   -4.4610   47.8140 C.3   157  ALA157      0.0334
     98  N        189.0190   -6.0300   47.9430 N.am  158  VAL158     -0.1963
     99  CA       188.1170   -6.9640   47.2840 C.3   158  VAL158      0.1727
    100  C        188.2220   -6.4490   45.8540 C.2   158  VAL158      0.2616
    101  O        187.5810   -5.4580   45.4980 O.2   158  VAL158     -0.2715
    102  CB       186.6470   -6.8080   47.7610 C.3   158  VAL158      0.0290
    103  CG1      185.7930   -7.9200   47.1800 C.3   158  VAL158      0.0023
    104  CG2      186.5610   -6.8010   49.2800 C.3   158  VAL158      0.0023
    105  N        189.0790   -7.0720   45.0530 N.am  159  CYS159     -0.1954
    106  CA       189.2720   -6.6170   43.6850 C.3   159  CYS159      0.1843
    107  C        188.9870   -7.6560   42.6210 C.2   159  CYS159      0.2626
    108  O        188.8660   -8.8490   42.9070 O.2   159  CYS159     -0.2714
    109  CB       190.6970   -6.1360   43.5090 C.3   159  CYS159      0.0997
    110  SG       191.8650   -7.4490   43.7630 S.3   159  CYS159     -0.0797
    111  N        188.9040   -7.1800   41.3850 N.am  160  THR160     -0.1950
    112  CA       188.6550   -8.0120   40.2160 C.3   160  THR160      0.1897
    113  C        189.2080   -7.2650   39.0190 C.2   160  THR160      0.2313
    114  O        189.0640   -6.0470   38.9310 O.2   160  THR160     -0.2863
    115  CB       187.1500   -8.2750   40.0300 C.3   160  THR160      0.1794
    116  OG1      186.7440   -9.3280   40.9180 O.3   160  THR160     -0.2208
    117  CG2      186.8270   -8.6500   38.5850 C.3   160  THR160      0.0378
    118  N        188.4620   -4.6820   52.7170 N.3   168  ASP168     -0.1239
    119  CA       188.2460   -5.4960   53.8980 C.3   168  ASP168      0.1674
    120  C        189.0350   -4.8360   55.0190 C.2   168  ASP168      0.2266
    121  O        190.2420   -4.6020   54.8950 O.2   168  ASP168     -0.2867
    122  CB       188.7520   -6.9190   53.6800 C.3   168  ASP168      0.1410
    123  CG       188.4360   -7.8250   54.8450 C.2   168  ASP168      0.3668
    124  OD1      187.2630   -8.2320   54.9750 O.co2 168  ASP168     -0.2456
    125  OD2      189.3510   -8.1170   55.6380 O.co2 168  ASP168     -0.2456
@<TRIPOS>BOND
     1   117   115    1
     2   114   113    2
     3   113   112    1
     4   115   112    1
     5   115   116    1
     6   112   111    1
     7   111   107   am
     8    31    32    1
     9    36    38    1
    10    36    35    1
    11   107   108    2
    12   107   106    1
    13    37    35    1
    14    32    35    1
    15    32    33    1
    16   109   106    1
    17   109   110    1
    18   106   105    1
    19    33    34    2
    20    55    54    1
    21   105   100   am
    22    53    54    1
    23    53    52    1
    24   101   100    2
    25   100    99    1
    26    39    40    1
    27    51    52    1
    28    51    48    1
    29   103   102    1
    30    47    48    1
    31    47    41   am
    32    99   102    1
    33    99    98    1
    34    44    45    1
    35    44    43    1
    36    44    46    1
    37    40    43    1
    38    40    41    1
    39    48    49    1
    40   102   104    1
    41    97    94    1
    42    98    95   am
    43    41    42    2
    44    96    95    2
    45    95    94    1
    46    50    49    2
    47    49    56   am
    48    94    93    1
    49    56    57    1
    50    93    90   am
    51    29    28    1
    52    57    58    1
    53    76    75   ar
    54    76    74   ar
    55    90    91    2
    56    90    89    1
    57    30    28    1
    58    28    27    2
    59    75    73   ar
    60    74    72   ar
    61    58    59    2
    62    89    92    1
    63    89    88    1
    64    27    26    1
    65     5     2    1
    66     5     6    1
    67     2     1    1
    68     2     3    1
    69    26    25    1
    70   118   119    1
    71    73    71   ar
    72    72    71   ar
    73     3     4    2
    74    88    79   am
    75     9     7   am
    76    25    24    1
    77     8     7    2
    78   122   119    1
    79   122   123    1
    80     7     6    1
    81    71    70    1
    82    24    21    1
    83    80    79    2
    84   119   120    1
    85    60    61    1
    86    65    64    1
    87    79    78    1
    88    22    21    1
    89    22    23    2
    90    21    20    1
    91    19    17   ar
    92    19    18   ar
    93    64    61    1
    94   123   124   ar
    95   123   125   ar
    96   121   120    2
    97    17    15   ar
    98    61    62    1
    99    70    67    1
   100    18    16   ar
   101    78    77    1
   102    78    81    1
   103    77    68   am
   104    15    16   ar
   105    15    14    1
   106    86    85    1
   107    68    67    1
   108    68    69    2
   109    67    66    1
   110    13    12    2
   111    62    63    2
   112    87    85    1
   113    82    81    1
   114    82    83    1
   115    85    84    2
   116    14    11    1
   117    84    83    1
   118    12    11    1
   119    11    10    1
