@<TRIPOS>MOLECULE
tmp/3eyfD00.pdb
 139 135 0 0 0
SMALL
GASTEIGER

@<TRIPOS>ATOM
      1  N         -4.3850  -14.4730   57.9290 N.3    50  VAL50      -0.1245
      2  CA        -5.0200  -15.7550   57.8340 C.3    50  VAL50       0.1561
      3  C         -4.9720  -16.4390   59.1510 C.2    50  VAL50       0.2260
      4  O         -4.0890  -16.1860   59.9790 O.2    50  VAL50      -0.2867
      5  CB        -4.3520  -16.6490   56.7720 C.3    50  VAL50       0.0252
      6  CG1       -2.8960  -17.0420   57.1540 C.3    50  VAL50       0.0019
      7  CG2       -5.2040  -17.8450   56.4930 C.3    50  VAL50       0.0019
      8  N         -5.4880  -20.4040   60.6830 N.3    52  SER52      -0.1202
      9  CA        -5.5600  -21.7960   60.3170 C.3    52  SER52       0.2020
     10  C         -6.9070  -22.4330   60.5950 C.2    52  SER52       0.2619
     11  O         -7.7540  -21.8680   61.2990 O.2    52  SER52      -0.2717
     12  CB        -4.4320  -22.5650   61.0050 C.3    52  SER52       0.2103
     13  OG        -4.7600  -22.9990   62.3200 O.3    52  SER52      -0.2182
     14  N         -7.0810  -23.6170   60.0250 N.am   53  SER53      -0.1937
     15  CA        -8.2970  -24.4020   60.1560 C.3    53  SER53       0.2055
     16  C         -8.6470  -24.7030   61.5990 C.2    53  SER53       0.2643
     17  O         -9.7300  -24.3280   62.0700 O.2    53  SER53      -0.2714
     18  CB        -8.1640  -25.7080   59.3590 C.3    53  SER53       0.2130
     19  OG        -7.0480  -26.4870   59.7410 O.3    53  SER53      -0.2179
     20  N         -7.6610  -25.2430   62.3160 N.am   54  ASP54      -0.1971
     21  CA        -7.8090  -25.6350   63.7150 C.3    54  ASP54       0.1709
     22  C         -7.6550  -24.4780   64.7030 C.2    54  ASP54       0.2293
     23  O         -7.6380  -24.6910   65.9170 O.2    54  ASP54      -0.2864
     24  CB        -6.7970  -26.7280   64.0280 C.3    54  ASP54       0.1436
     25  CG        -5.3900  -26.3500   63.5860 C.2    54  ASP54       0.3671
     26  OD1       -4.9460  -25.2280   63.9080 O.co2  54  ASP54      -0.2456
     27  OD2       -4.7580  -27.1450   62.8720 O.co2  54  ASP54      -0.2456
     28  N         -5.0100  -22.7060   65.4810 N.3    56  THR56      -0.1203
     29  CA        -3.7590  -22.6080   66.2370 C.3    56  THR56       0.1994
     30  C         -2.6740  -21.7690   65.6120 C.2    56  THR56       0.2617
     31  O         -1.6630  -21.4950   66.2550 O.2    56  THR56      -0.2717
     32  CB        -3.1560  -23.9960   66.5810 C.3    56  THR56       0.1784
     33  OG1       -2.6040  -24.5990   65.4080 O.3    56  THR56      -0.2211
     34  CG2       -4.2150  -24.9110   67.1500 C.3    56  THR56       0.0376
     35  N         -2.8340  -21.4330   64.3420 N.am   57  ASP57      -0.1973
     36  CA        -1.8510  -20.6040   63.7000 C.3    57  ASP57       0.1709
     37  C         -2.4670  -19.3900   63.0800 C.2    57  ASP57       0.2293
     38  O         -3.6020  -19.4150   62.6050 O.2    57  ASP57      -0.2864
     39  CB        -1.0770  -21.3680   62.6770 C.3    57  ASP57       0.1436
     40  CG         0.2410  -20.7510   62.4180 C.2    57  ASP57       0.3671
     41  OD1        1.1220  -20.9070   63.2750 O.co2  57  ASP57      -0.2456
     42  OD2        0.3770  -20.0690   61.3940 O.co2  57  ASP57      -0.2456
     43  N         -1.3140  -15.7380   60.7980 N.3    59  ARG59      -0.1245
     44  CA        -0.2490  -15.0370   60.0710 C.3    59  ARG59       0.1563
     45  C         -0.7570  -13.6830   59.7190 C.2    59  ARG59       0.2260
     46  O         -1.9220  -13.5320   59.3970 O.2    59  ARG59      -0.2867
     47  CB         0.1570  -15.7480   58.7860 C.3    59  ARG59       0.0307
     48  CG         0.6090  -17.1640   58.9350 C.3    59  ARG59       0.0489
     49  CD         1.9510  -17.2410   59.6060 C.3    59  ARG59       0.2205
     50  NE         2.0820  -18.5820   60.1360 N.pl3  59  ARG59      -0.0865
     51  CZ         3.2260  -19.2420   60.2510 C.cat  59  ARG59       0.5346
     52  NH1        4.3770  -18.6810   59.8770 N.pl3  59  ARG59       0.1354
     53  NH2        3.2070  -20.4780   60.7160 N.pl3  59  ARG59       0.1354
     54  N         -7.7760  -22.9080   50.3110 N.3   100  GLY100     -0.1210
     55  CA        -7.9810  -24.1990   49.6910 C.3   100  GLY100      0.1956
     56  C         -7.4870  -25.2610   50.6760 C.2   100  GLY100      0.2612
     57  O         -6.4950  -25.0550   51.4010 O.2   100  GLY100     -0.2717
     58  N         -8.2170  -26.3670   50.7350 N.am  101  LYS101     -0.1965
     59  CA        -7.9380  -27.4560   51.6470 C.3   101  LYS101      0.1728
     60  C         -6.6250  -28.1600   51.4740 C.2   101  LYS101      0.2616
     61  O         -6.3260  -28.6490   50.4170 O.2   101  LYS101     -0.2715
     62  CB        -9.0280  -28.4890   51.5420 C.3   101  LYS101      0.0311
     63  CG        -9.0980  -29.3450   52.7650 C.3   101  LYS101      0.0038
     64  CD        -9.8510  -30.5540   52.4350 C.3   101  LYS101      0.0206
     65  CE       -11.1930  -30.4980   53.0350 C.3   101  LYS101      0.1093
     66  NZ       -12.0080  -31.4480   52.2680 N.3   101  LYS101     -0.1314
     67  N         -5.8480  -28.2030   52.5380 N.am  102  CYS102     -0.1954
     68  CA        -4.5910  -28.8900   52.4570 C.3   102  CYS102      0.1843
     69  C         -4.7570  -30.2700   53.0720 C.2   102  CYS102      0.2626
     70  O         -5.7400  -30.5430   53.7610 O.2   102  CYS102     -0.2714
     71  CB        -3.4460  -28.0530   52.9980 C.3   102  CYS102      0.0997
     72  SG        -3.7460  -27.3750   54.6210 S.3   102  CYS102     -0.0797
     73  N         -3.7800  -31.1300   52.8110 N.am  103  GLY103     -0.1940
     74  CA        -3.9020  -32.5240   53.1750 C.3   103  GLY103      0.2014
     75  C         -3.4980  -33.1250   54.4730 C.2   103  GLY103      0.2639
     76  O         -4.2530  -33.9330   55.0170 O.2   103  GLY103     -0.2714
     77  N         -2.3170  -32.7280   54.9450 N.am  104  GLY104     -0.1939
     78  CA        -1.7170  -33.2730   56.1430 C.3   104  GLY104      0.2014
     79  C         -2.2210  -32.8400   57.4840 C.2   104  GLY104      0.2639
     80  O         -2.0180  -33.5450   58.4640 O.2   104  GLY104     -0.2714
     81  N         -2.8150  -31.6610   57.5530 N.am  105  GLY105     -0.1939
     82  CA        -3.3320  -31.2180   58.8230 C.3   105  GLY105      0.2014
     83  C         -2.6760  -30.0520   59.5260 C.2   105  GLY105      0.2639
     84  O         -3.3220  -29.4510   60.3710 O.2   105  GLY105     -0.2714
     85  N         -1.4040  -29.7570   59.3220 N.am  106  ARG106     -0.1963
     86  CA        -0.8770  -28.5670   60.0310 C.3   106  ARG106      0.1729
     87  C         -0.3140  -27.7760   58.9320 C.2   106  ARG106      0.2616
     88  O          0.8580  -27.3890   58.9250 O.2   106  ARG106     -0.2715
     89  CB         0.1760  -28.9330   61.0280 C.3   106  ARG106      0.0348
     90  CG        -0.4040  -29.1920   62.3340 C.3   106  ARG106      0.0492
     91  CD         0.6950  -29.2430   63.3180 C.3   106  ARG106      0.2205
     92  NE         0.2380  -29.7620   64.5930 N.pl3 106  ARG106     -0.0865
     93  CZ         0.3800  -31.0310   64.9610 C.cat 106  ARG106      0.5346
     94  NH1        0.9720  -31.8970   64.1380 N.pl3 106  ARG106      0.1354
     95  NH2       -0.0800  -31.4340   66.1420 N.pl3 106  ARG106      0.1354
     96  N         -1.2700  -27.3210   58.1490 N.am  107  CYS107     -0.1954
     97  CA        -0.9390  -26.7650   56.8980 C.3   107  CYS107      0.1843
     98  C         -1.8790  -25.6730   56.4370 C.2   107  CYS107      0.2625
     99  O         -2.9590  -25.4670   57.0040 O.2   107  CYS107     -0.2714
    100  CB        -1.0540  -27.9870   55.9350 C.3   107  CYS107      0.0997
    101  SG        -2.7380  -28.7210   55.7850 S.3   107  CYS107     -0.0797
    102  N         -1.4420  -24.9840   55.3890 N.am  108  TYR108     -0.1960
    103  CA        -2.2510  -24.0150   54.6790 C.3   108  TYR108      0.1771
    104  C         -1.7890  -24.3020   53.2770 C.2   108  TYR108      0.2620
    105  O         -0.6520  -24.7980   53.0630 O.2   108  TYR108     -0.2715
    106  CB        -1.8990  -22.5630   54.9050 C.3   108  TYR108      0.0574
    107  CG        -2.0350  -21.9840   56.2670 C.ar  108  TYR108     -0.0198
    108  CD1       -3.1960  -21.3090   56.6430 C.ar  108  TYR108     -0.0009
    109  CD2       -0.9500  -21.9890   57.1490 C.ar  108  TYR108     -0.0009
    110  CE1       -3.2690  -20.6540   57.8580 C.ar  108  TYR108      0.0417
    111  CE2       -1.0130  -21.3270   58.3800 C.ar  108  TYR108      0.0417
    112  CZ        -2.1840  -20.6690   58.7250 C.ar  108  TYR108      0.1957
    113  OH        -2.3160  -20.0740   59.9530 O.3   108  TYR108     -0.2866
    114  N         -2.6620  -23.9510   52.3300 N.am  109  SER109     -0.1936
    115  CA        -2.3910  -24.0870   50.9190 C.3   109  SER109      0.2055
    116  C         -2.0020  -22.7400   50.3090 C.2   109  SER109      0.2644
    117  O         -1.2430  -22.7200   49.3680 O.2   109  SER109     -0.2714
    118  CB        -3.5920  -24.6870   50.1730 C.3   109  SER109      0.2130
    119  OG        -4.7040  -23.7910   50.1400 O.3   109  SER109     -0.2179
    120  N         -2.4710  -21.6230   50.8700 N.am  110  GLY110     -0.1939
    121  CA        -2.1650  -20.2960   50.3130 C.3   110  GLY110      0.2014
    122  C         -2.9480  -19.9570   49.0560 C.2   110  GLY110      0.2638
    123  O         -2.6140  -19.0560   48.2700 O.2   110  GLY110     -0.2714
    124  N         -3.9920  -20.7320   48.8500 N.am  111  LEU111     -0.1977
    125  CA        -4.8570  -20.5770   47.6930 C.3   111  LEU111      0.1596
    126  C         -6.2340  -20.2170   48.1880 C.2   111  LEU111      0.2287
    127  O         -6.7660  -20.8630   49.0790 O.2   111  LEU111     -0.2864
    128  CB        -4.8860  -21.8940   47.0050 C.3   111  LEU111      0.0297
    129  CG        -5.3870  -22.0210   45.6210 C.3   111  LEU111      0.0022
    130  CD1       -4.5140  -23.1090   45.1310 C.3   111  LEU111      0.0001
    131  CD2       -6.8090  -22.5060   45.6430 C.3   111  LEU111      0.0001
    132  N         -9.7250  -20.2850   47.4150 N.3   113  ASP113     -0.1239
    133  CA       -10.7040  -20.8780   46.5280 C.3   113  ASP113      0.1674
    134  C        -12.0880  -20.2920   46.4290 C.2   113  ASP113      0.2266
    135  O        -12.7110  -20.4030   45.3790 O.2   113  ASP113     -0.2867
    136  CB       -10.7200  -22.4060   46.6330 C.3   113  ASP113      0.1410
    137  CG       -11.2900  -22.9340   47.9420 C.2   113  ASP113      0.3668
    138  OD1      -11.3630  -22.2180   48.9520 O.co2 113  ASP113     -0.2456
    139  OD2      -11.6710  -24.1220   47.9480 O.co2 113  ASP113     -0.2456
@<TRIPOS>BOND
     1   130   129    1
     2   135   134    2
     3   129   131    1
     4   129   128    1
     5   134   133    1
     6   133   136    1
     7   133   132    1
     8   136   137    1
     9   128   125    1
    10   125   126    1
    11   125   124    1
    12   137   139   ar
    13   137   138   ar
    14   126   127    2
    15   123   122    2
    16   124   122   am
    17   122   121    1
    18   117   116    2
    19    55    54    1
    20    55    56    1
    21   119   118    1
    22   118   115    1
    23   116   120   am
    24   116   115    1
    25   121   120    1
    26    61    60    2
    27    56    58   am
    28    56    57    2
    29    58    59    1
    30   115   114    1
    31    60    59    1
    32    60    67   am
    33    62    59    1
    34    62    63    1
    35    66    65    1
    36   114   104   am
    37    64    63    1
    38    64    65    1
    39    68    67    1
    40    68    71    1
    41    68    69    1
    42    73    69   am
    43    73    74    1
    44    71    72    1
    45   105   104    2
    46    69    70    2
    47    74    75    1
    48   104   103    1
    49    75    77   am
    50    75    76    2
    51    72   101    1
    52   103   106    1
    53   103   102    1
    54   106   107    1
    55    77    78    1
    56   102    98   am
    57   101   100    1
    58   100    97    1
    59    78    79    1
    60   107   108   ar
    61   107   109   ar
    62    98    97    1
    63    98    99    2
    64     7     5    1
    65   108   110   ar
    66     5     6    1
    67     5     2    1
    68    97    96    1
    69   109   111   ar
    70    79    81   am
    71    79    80    2
    72    81    82    1
    73     2     1    1
    74     2     3    1
    75   110   112   ar
    76    96    87   am
    77   111   112   ar
    78   112   113    1
    79    47    48    1
    80    47    44    1
    81    82    83    1
    82    88    87    2
    83    87    86    1
    84    48    49    1
    85     3     4    2
    86    85    83   am
    87    85    86    1
    88    18    19    1
    89    18    15    1
    90    46    45    2
    91    83    84    2
    92    49    50    1
    93    45    44    1
    94    52    51    1
    95    14    15    1
    96    14    10   am
    97    86    89    1
    98    44    43    1
    99    50    51    2
   100    15    16    1
   101    51    53    1
   102     9    10    1
   103     9     8    1
   104     9    12    1
   105    10    11    2
   106    12    13    1
   107    89    90    1
   108    42    40   ar
   109    16    17    2
   110    16    20   am
   111    20    21    1
   112    90    91    1
   113    40    39    1
   114    40    41   ar
   115    38    37    2
   116    39    36    1
   117    27    25   ar
   118    37    36    1
   119    91    92    1
   120    25    26   ar
   121    25    24    1
   122    36    35    1
   123    21    24    1
   124    21    22    1
   125    94    93    1
   126    35    30   am
   127    92    93    2
   128    22    23    2
   129    93    95    1
   130    33    32    1
   131    28    29    1
   132    30    29    1
   133    30    31    2
   134    29    32    1
   135    32    34    1
