@<TRIPOS>MOLECULE
tmp/3eyfC00.pdb
 89 88 0 0 0
SMALL
GASTEIGER

@<TRIPOS>ATOM
      1  N          3.7480  -22.1860   41.5080 N.3    33  TYR33      -0.1241
      2  CA         2.7040  -21.8270   42.4620 C.3    33  TYR33       0.1605
      3  C          2.0980  -20.4990   42.1150 C.2    33  TYR33       0.2264
      4  O          2.2020  -19.5130   42.8520 O.2    33  TYR33      -0.2867
      5  CB         3.2580  -21.7960   43.8680 C.3    33  TYR33       0.0534
      6  CG         3.5040  -23.1450   44.4250 C.ar   33  TYR33      -0.0201
      7  CD1        2.4350  -24.0200   44.6670 C.ar   33  TYR33      -0.0009
      8  CD2        4.8080  -23.5730   44.7010 C.ar   33  TYR33      -0.0009
      9  CE1        2.6530  -25.2940   45.1620 C.ar   33  TYR33       0.0417
     10  CE2        5.0420  -24.8460   45.2060 C.ar   33  TYR33       0.0417
     11  CZ         3.9570  -25.7060   45.4290 C.ar   33  TYR33       0.1957
     12  OH         4.1480  -26.9860   45.8690 O.3    33  TYR33      -0.2866
     13  N        -11.7720  -17.9190   41.5730 N.3    47  LEU47      -0.1245
     14  CA       -10.5740  -18.6670   41.2590 C.3    47  LEU47       0.1561
     15  C        -10.7340  -19.2460   39.8690 C.2    47  LEU47       0.2260
     16  O        -11.8060  -19.7430   39.5480 O.2    47  LEU47      -0.2867
     17  CB       -10.4190  -19.7940   42.2790 C.3    47  LEU47       0.0270
     18  CG        -9.3120  -20.8040   42.0330 C.3    47  LEU47       0.0019
     19  CD1       -7.9360  -20.2130   42.2870 C.3    47  LEU47       0.0001
     20  CD2       -9.5130  -21.9760   42.8850 C.3    47  LEU47       0.0001
     21  N         -5.0320  -22.4830   39.1040 N.3    50  PHE50      -0.1227
     22  CA        -4.0530  -22.6180   40.1240 C.3    50  PHE50       0.1736
     23  C         -2.8980  -23.4060   39.6430 C.2    50  PHE50       0.2595
     24  O         -3.0220  -24.1050   38.6360 O.2    50  PHE50      -0.2718
     25  CB        -4.6440  -23.1930   41.3840 C.3    50  PHE50       0.0547
     26  CG        -5.1780  -24.5420   41.2410 C.ar   50  PHE50      -0.0202
     27  CD1       -6.4680  -24.7280   40.7370 C.ar   50  PHE50      -0.0042
     28  CD2       -4.4040  -25.6480   41.6430 C.ar   50  PHE50      -0.0042
     29  CE1       -6.9910  -26.0000   40.6300 C.ar   50  PHE50      -0.0003
     30  CE2       -4.8950  -26.9270   41.5450 C.ar   50  PHE50      -0.0003
     31  CZ        -6.2030  -27.1190   41.0350 C.ar   50  PHE50      -0.0000
     32  N         -1.7830  -23.3140   40.3670 N.am   51  ASP51      -0.1974
     33  CA        -0.5620  -24.0420   40.0160 C.3    51  ASP51       0.1709
     34  C         -0.1590  -23.8740   38.5540 C.2    51  ASP51       0.2293
     35  O          0.1350  -24.8370   37.8490 O.2    51  ASP51      -0.2864
     36  CB        -0.7190  -25.5170   40.3330 C.3    51  ASP51       0.1436
     37  CG        -0.5610  -25.8120   41.7860 C.2    51  ASP51       0.3671
     38  OD1       -0.0530  -24.9460   42.5500 O.co2  51  ASP51      -0.2456
     39  OD2       -0.9190  -26.9500   42.1490 O.co2  51  ASP51      -0.2456
     40  N         -9.8330  -24.6860   37.4090 N.3    56  ALA56      -0.1231
     41  CA       -10.5590  -24.9450   38.6120 C.3    56  ALA56       0.1694
     42  C        -11.9310  -25.3840   38.1900 C.2    56  ALA56       0.2592
     43  O        -12.3810  -25.0660   37.0940 O.2    56  ALA56      -0.2718
     44  CB       -10.6190  -23.7050   39.4070 C.3    56  ALA56       0.0304
     45  N        -12.5910  -26.1280   39.0630 N.am   57  THR57      -0.1953
     46  CA       -13.9140  -26.6440   38.7710 C.3    57  THR57       0.1897
     47  C        -14.9080  -25.5780   38.3740 C.2    57  THR57       0.2313
     48  O        -15.0970  -24.5830   39.0840 O.2    57  THR57      -0.2863
     49  CB       -14.5170  -27.3810   39.9720 C.3    57  THR57       0.1794
     50  OG1      -15.1600  -26.4400   40.8460 O.3    57  THR57      -0.2208
     51  CG2      -13.4400  -28.0950   40.7510 C.3    57  THR57       0.0378
     52  N          1.8610  -18.2710   45.6990 N.3    92  ARG92      -0.1231
     53  CA         1.9340  -19.0050   46.9740 C.3    92  ARG92       0.1694
     54  C          3.2560  -19.7500   47.2300 C.2    92  ARG92       0.2592
     55  O          3.2880  -20.6790   48.0130 O.2    92  ARG92      -0.2718
     56  CB         0.7240  -19.9280   47.2230 C.3    92  ARG92       0.0321
     57  CG         0.4880  -21.0540   46.2210 C.3    92  ARG92       0.0489
     58  CD        -0.9050  -21.5820   46.3920 C.3    92  ARG92       0.2205
     59  NE        -1.1430  -22.8060   45.6400 N.pl3  92  ARG92      -0.0865
     60  CZ        -1.1380  -24.0330   46.1580 C.cat  92  ARG92       0.5346
     61  NH1       -0.9040  -24.2500   47.4350 N.pl3  92  ARG92       0.1354
     62  NH2       -1.4060  -25.0600   45.3920 N.pl3  92  ARG92       0.1354
     63  N          4.3480  -19.2970   46.6230 N.am   93  SER93      -0.1952
     64  CA         5.6460  -19.9170   46.8190 C.3    93  SER93       0.1924
     65  C          6.2650  -19.5310   48.1310 C.2    93  SER93       0.2314
     66  O          6.8230  -20.3660   48.8180 O.2    93  SER93      -0.2863
     67  CB         6.5920  -19.4450   45.7730 C.3    93  SER93       0.2116
     68  OG         7.6680  -20.3290   45.6620 O.3    93  SER93      -0.2180
     69  N          5.3400  -17.2910   51.3620 N.3    95  TRP95      -0.1228
     70  CA         4.3910  -16.5120   52.0710 C.3    95  TRP95       0.1722
     71  C          4.4170  -16.9910   53.4800 C.2    95  TRP95       0.2437
     72  O          4.8040  -18.1330   53.7260 O.2    95  TRP95      -0.2733
     73  CB         2.9930  -16.6210   51.4300 C.3    95  TRP95       0.0563
     74  CG         2.2380  -17.8650   51.6930 C.ar   95  TRP95       0.0003
     75  CD1        2.2820  -19.0120   50.9700 C.ar   95  TRP95       0.0946
     76  CD2        1.2460  -18.0440   52.6820 C.ar   95  TRP95       0.0152
     77  NE1        1.3630  -19.9090   51.4370 N.ar   95  TRP95      -0.2442
     78  CE2        0.7090  -19.3350   52.4970 C.ar   95  TRP95       0.0810
     79  CE3        0.7350  -17.2320   53.7100 C.ar   95  TRP95       0.0012
     80  CZ2       -0.3160  -19.8350   53.3060 C.ar   95  TRP95       0.0191
     81  CZ3       -0.2870  -17.7330   54.5100 C.ar   95  TRP95       0.0001
     82  CH2       -0.7990  -19.0170   54.3020 C.ar   95  TRP95       0.0015
     83  N          4.0460  -16.1150   54.4370 N.am   96  PRO96      -0.2729
     84  CA         3.6210  -14.7280   54.2830 C.3    96  PRO96       0.1401
     85  C          4.7240  -13.7290   53.9740 C.2    96  PRO96       0.2269
     86  O          5.8460  -13.8680   54.4530 O.2    96  PRO96      -0.2865
     87  CB         2.9350  -14.4320   55.5910 C.3    96  PRO96       0.0296
     88  CG         3.6240  -15.2470   56.4940 C.3    96  PRO96       0.0237
     89  CD         3.7020  -16.5490   55.7930 C.3    96  PRO96       0.0939
@<TRIPOS>BOND
     1    43    42    2
     2    40    41    1
     3    35    34    2
     4    42    41    1
     5    42    45   am
     6    47    46    1
     7    47    48    2
     8    34    33    1
     9    41    44    1
    10    24    23    2
    11    46    45    1
    12    46    49    1
    13    21    22    1
    14    16    15    2
    15    23    22    1
    16    23    32   am
    17    15    14    1
    18    49    51    1
    19    49    50    1
    20    33    36    1
    21    33    32    1
    22    22    25    1
    23    36    37    1
    24    29    27   ar
    25    29    31   ar
    26    27    26   ar
    27    31    30   ar
    28    26    25    1
    29    26    28   ar
    30    14    13    1
    31    14    17    1
    32     1     2    1
    33    30    28   ar
    34    37    39   ar
    35    37    38   ar
    36    18    17    1
    37    18    19    1
    38    18    20    1
    39     3     2    1
    40     3     4    2
    41     2     5    1
    42     5     6    1
    43     6     7   ar
    44     6     8   ar
    45     7     9   ar
    46     8    10   ar
    47     9    11   ar
    48    10    11   ar
    49    62    60    1
    50    11    12    1
    51    59    60    2
    52    59    58    1
    53    68    67    1
    54    52    53    1
    55    67    64    1
    56    60    61    1
    57    57    58    1
    58    57    56    1
    59    63    64    1
    60    63    54   am
    61    64    65    1
    62    53    56    1
    63    53    54    1
    64    54    55    2
    65    65    66    2
    66    75    77   ar
    67    75    74   ar
    68    69    70    1
    69    73    74    1
    70    73    70    1
    71    77    78   ar
    72    74    76   ar
    73    70    71    1
    74    78    76   ar
    75    78    80   ar
    76    76    79   ar
    77    80    82   ar
    78    71    72    2
    79    71    83   am
    80    79    81   ar
    81    85    84    1
    82    85    86    2
    83    84    83    1
    84    84    87    1
    85    82    81   ar
    86    83    89    1
    87    87    88    1
    88    89    88    1
