@<TRIPOS>MOLECULE
tmp/3eyfB00.pdb
 132 129 0 0 0
SMALL
GASTEIGER

@<TRIPOS>ATOM
      1  N        -19.0320   32.1020   12.4650 N.3    52  SER52      -0.1202
      2  CA       -19.0850   30.7980   11.8680 C.3    52  SER52       0.2020
      3  C        -20.4280   30.1610   11.9860 C.2    52  SER52       0.2619
      4  O        -21.2670   30.5670   12.7960 O.2    52  SER52      -0.2717
      5  CB       -18.0100   29.8980   12.4390 C.3    52  SER52       0.2103
      6  OG       -18.3520   29.4140   13.7170 O.3    52  SER52      -0.2182
      7  N        -20.5970   29.1560   11.1410 N.am   53  SER53      -0.1937
      8  CA       -21.7920   28.3490   11.0290 C.3    53  SER53       0.2055
      9  C        -22.3000   27.8380   12.3600 C.2    53  SER53       0.2643
     10  O        -23.4930   27.9120   12.6650 O.2    53  SER53      -0.2714
     11  CB       -21.4620   27.1580   10.1330 C.3    53  SER53       0.2130
     12  OG       -20.3380   26.4490   10.6550 O.3    53  SER53      -0.2179
     13  N        -21.3400   27.3880   13.1550 N.am   54  ASP54      -0.1971
     14  CA       -21.5730   26.7830   14.4540 C.3    54  ASP54       0.1709
     15  C        -21.6510   27.8070   15.5940 C.2    54  ASP54       0.2293
     16  O        -22.1610   27.5030   16.6700 O.2    54  ASP54      -0.2864
     17  CB       -20.4840   25.7240   14.6960 C.3    54  ASP54       0.1436
     18  CG       -19.0850   26.3110   14.7410 C.2    54  ASP54       0.3671
     19  OD1      -18.1220   25.5420   14.6240 O.co2  54  ASP54      -0.2456
     20  OD2      -18.9180   27.5330   14.9550 O.co2  54  ASP54      -0.2456
     21  N        -18.9670   29.2640   16.9850 N.3    56  THR56      -0.1203
     22  CA       -17.7570   29.1430   17.7740 C.3    56  THR56       0.1994
     23  C        -16.6690   30.0780   17.3390 C.2    56  THR56       0.2617
     24  O        -15.8650   30.4810   18.1680 O.2    56  THR56      -0.2717
     25  CB       -17.2840   27.6840   17.8240 C.3    56  THR56       0.1784
     26  OG1      -16.9840   27.2260   16.5070 O.3    56  THR56      -0.2211
     27  CG2      -18.4100   26.8200   18.3360 C.3    56  THR56       0.0376
     28  N        -16.6050   30.4070   16.0500 N.am   57  ASP57      -0.1973
     29  CA       -15.5960   31.3700   15.6570 C.3    57  ASP57       0.1709
     30  C        -16.1660   32.6500   15.1310 C.2    57  ASP57       0.2293
     31  O        -17.2810   32.6940   14.6130 O.2    57  ASP57      -0.2864
     32  CB       -14.5780   30.8410   14.6740 C.3    57  ASP57       0.1436
     33  CG       -13.3230   31.6940   14.6430 C.2    57  ASP57       0.3671
     34  OD1      -12.7230   31.9530   15.7170 O.co2  57  ASP57      -0.2456
     35  OD2      -12.9690   32.1510   13.5500 O.co2  57  ASP57      -0.2456
     36  N        -14.6770   36.6760   13.6380 N.3    59  ARG59      -0.1245
     37  CA       -13.5800   37.5010   13.1610 C.3    59  ARG59       0.1563
     38  C        -14.1400   38.8730   12.9990 C.2    59  ARG59       0.2260
     39  O        -15.2800   39.0170   12.6650 O.2    59  ARG59      -0.2867
     40  CB       -13.0930   36.9990   11.8100 C.3    59  ARG59       0.0307
     41  CG       -12.6730   35.5370   11.7710 C.3    59  ARG59       0.0489
     42  CD       -11.4080   35.3230   12.5740 C.3    59  ARG59       0.2205
     43  NE       -11.1780   33.9150   12.8460 N.pl3  59  ARG59      -0.0865
     44  CZ       -10.0540   33.2590   12.5640 C.cat  59  ARG59       0.5346
     45  NH1       -9.0160   33.8750   11.9750 N.pl3  59  ARG59       0.1354
     46  NH2       -9.9640   31.9810   12.8970 N.pl3  59  ARG59       0.1354
     47  N        -20.6700   31.2400    1.6690 N.3   100  GLY100     -0.1210
     48  CA       -20.9920   30.0880    0.8640 C.3   100  GLY100      0.1956
     49  C        -20.5280   28.8410    1.5860 C.2   100  GLY100      0.2612
     50  O        -19.4870   28.8300    2.2830 O.2   100  GLY100     -0.2717
     51  N        -21.3640   27.8190    1.4710 N.am  101  LYS101     -0.1965
     52  CA       -21.1250   26.5220    2.0700 C.3   101  LYS101      0.1728
     53  C        -19.7360   25.9930    1.7890 C.2   101  LYS101      0.2616
     54  O        -19.3750   25.7670    0.6470 O.2   101  LYS101     -0.2715
     55  CB       -22.1410   25.5440    1.5290 C.3   101  LYS101      0.0311
     56  CG       -22.4620   24.4720    2.4680 C.3   101  LYS101      0.0038
     57  CD       -23.5140   23.5920    1.8730 C.3   101  LYS101      0.0206
     58  CE       -23.7890   22.4020    2.7520 C.3   101  LYS101      0.1093
     59  NZ       -23.0530   22.5280    4.0400 N.3   101  LYS101     -0.1314
     60  N        -18.9060   25.9780    2.8210 N.am  102  CYS102     -0.1954
     61  CA       -17.5850   25.4240    2.6680 C.3   102  CYS102      0.1843
     62  C        -17.9940   24.0150    2.9730 C.2   102  CYS102      0.2626
     63  O        -18.9410   23.8080    3.7550 O.2   102  CYS102     -0.2714
     64  CB       -16.6050   26.0050    3.6670 C.3   102  CYS102      0.0997
     65  SG       -17.2480   26.2140    5.3220 S.3   102  CYS102     -0.0797
     66  N        -17.4560   23.0750    2.1900 N.am  103  GLY103     -0.1940
     67  CA       -17.7870   21.6510    2.3320 C.3   103  GLY103      0.2014
     68  C        -17.5940   21.4120    3.7260 C.2   103  GLY103      0.2639
     69  O        -18.5270   21.4050    4.5430 O.2   103  GLY103     -0.2714
     70  N        -16.3160   21.3140    3.9770 N.am  104  GLY104     -0.1939
     71  CA       -15.9860   21.3120    5.3300 C.3   104  GLY104      0.2014
     72  C        -15.2900   20.3990    6.2120 C.2   104  GLY104      0.2639
     73  O        -15.2950   19.1800    6.0920 O.2   104  GLY104     -0.2714
     74  N        -15.2740   21.1230    7.3200 N.am  105  GLY105     -0.1939
     75  CA       -14.7110   20.7990    8.6010 C.3   105  GLY105      0.2014
     76  C        -15.1150   22.0470    9.3890 C.2   105  GLY105      0.2639
     77  O        -16.3130   22.3420    9.5220 O.2   105  GLY105     -0.2714
     78  N        -14.1290   22.7590    9.9370 N.am  106  ARG106     -0.1963
     79  CA       -14.3570   24.0070   10.6770 C.3   106  ARG106      0.1729
     80  C        -13.8980   25.0370    9.6910 C.2   106  ARG106      0.2616
     81  O        -12.7970   25.6060    9.7690 O.2   106  ARG106     -0.2715
     82  CB       -13.5110   24.0550   11.9160 C.3   106  ARG106      0.0348
     83  CG       -14.1800   23.3780   13.0450 C.3   106  ARG106      0.0492
     84  CD       -13.3580   23.5730   14.2610 C.3   106  ARG106      0.2205
     85  NE       -12.1330   22.7860   14.2530 N.pl3 106  ARG106     -0.0865
     86  CZ       -11.1620   22.9260   15.1510 C.cat 106  ARG106      0.5346
     87  NH1      -11.2680   23.8350   16.1270 N.pl3 106  ARG106      0.1354
     88  NH2      -10.0910   22.1430   15.0890 N.pl3 106  ARG106      0.1354
     89  N        -14.8220   25.3320    8.8020 N.am  107  CYS107     -0.1954
     90  CA       -14.5150   26.1710    7.6910 C.3   107  CYS107      0.1843
     91  C        -15.3010   27.4330    7.4850 C.2   107  CYS107      0.2625
     92  O        -16.3810   27.6310    8.0490 O.2   107  CYS107     -0.2714
     93  CB       -14.6850   25.2810    6.4720 C.3   107  CYS107      0.0997
     94  SG       -16.3770   24.6540    6.2930 S.3   107  CYS107     -0.0797
     95  N        -14.7390   28.2420    6.5990 N.am  108  TYR108     -0.1960
     96  CA       -15.3210   29.4790    6.0980 C.3   108  TYR108      0.1771
     97  C        -14.8420   29.4760    4.6540 C.2   108  TYR108      0.2620
     98  O        -13.6620   29.1410    4.3870 O.2   108  TYR108     -0.2715
     99  CB       -14.7220   30.7260    6.7210 C.3   108  TYR108      0.0574
    100  CG       -15.1500   31.1010    8.1050 C.ar  108  TYR108     -0.0198
    101  CD1      -16.4320   31.6060    8.3520 C.ar  108  TYR108     -0.0009
    102  CD2      -14.2250   31.0920    9.1620 C.ar  108  TYR108     -0.0009
    103  CE1      -16.7680   32.0940    9.6010 C.ar  108  TYR108      0.0417
    104  CE2      -14.5630   31.5830   10.4190 C.ar  108  TYR108      0.0417
    105  CZ       -15.8390   32.0760   10.6250 C.ar  108  TYR108      0.1957
    106  OH       -16.2340   32.4840   11.8680 O.3   108  TYR108     -0.2866
    107  N        -15.7350   29.8370    3.7280 N.am  109  SER109     -0.1936
    108  CA       -15.3480   29.9180    2.3240 C.3   109  SER109      0.2055
    109  C        -14.8180   31.2890    1.9410 C.2   109  SER109      0.2644
    110  O        -13.9730   31.3830    1.0640 O.2   109  SER109     -0.2714
    111  CB       -16.5150   29.6020    1.4000 C.3   109  SER109      0.2130
    112  OG       -17.5020   30.6220    1.4690 O.3   109  SER109     -0.2179
    113  N        -15.3590   32.3380    2.5720 N.am  110  GLY110     -0.1939
    114  CA       -15.0020   33.7190    2.2520 C.3   110  GLY110      0.2014
    115  C        -15.8110   34.2480    1.0630 C.2   110  GLY110      0.2638
    116  O        -15.6150   35.3680    0.5940 O.2   110  GLY110     -0.2714
    117  N        -16.7560   33.4410    0.5970 N.am  111  LEU111     -0.1977
    118  CA       -17.5510   33.7690   -0.5730 C.3   111  LEU111      0.1596
    119  C        -18.9410   34.2060   -0.1070 C.2   111  LEU111      0.2287
    120  O        -19.5780   33.5300    0.6910 O.2   111  LEU111     -0.2864
    121  CB       -17.5870   32.5120   -1.4260 C.3   111  LEU111      0.0297
    122  CG       -18.0120   32.4340   -2.8900 C.3   111  LEU111      0.0022
    123  CD1      -19.4820   32.2730   -3.0030 C.3   111  LEU111      0.0001
    124  CD2      -17.5320   33.6190   -3.6560 C.3   111  LEU111      0.0001
    125  N        -22.3590   34.4590   -0.9770 N.3   113  ASP113     -0.1239
    126  CA       -23.2720   34.0270   -2.0070 C.3   113  ASP113      0.1674
    127  C        -24.6560   34.6080   -2.0020 C.2   113  ASP113      0.2266
    128  O        -25.3680   34.5140   -3.0050 O.2   113  ASP113     -0.2867
    129  CB       -23.2390   32.4920   -2.1940 C.3   113  ASP113      0.1410
    130  CG       -23.8750   31.7210   -1.0310 C.2   113  ASP113      0.3668
    131  OD1      -23.8300   32.2150    0.1040 O.co2 113  ASP113     -0.2456
    132  OD2      -24.4440   30.6270   -1.2590 O.co2 113  ASP113     -0.2456
@<TRIPOS>BOND
     1   124   122    1
     2   128   127    2
     3   123   122    1
     4   122   121    1
     5   129   126    1
     6   129   130    1
     7   126   127    1
     8   126   125    1
     9   121   118    1
    10   132   130   ar
    11   130   131   ar
    12   118   119    1
    13   118   117    1
    14   119   120    2
    15   116   115    2
    16   117   115   am
    17    54    53    2
    18    48    49    1
    19    48    47    1
    20   115   114    1
    21   110   109    2
    22   111   112    1
    23   111   108    1
    24    51    49   am
    25    51    52    1
    26    55    52    1
    27    55    56    1
    28    49    50    2
    29    53    52    1
    30    53    60   am
    31    57    56    1
    32    57    58    1
    33   109   108    1
    34   109   113   am
    35    66    67    1
    36    66    62   am
    37   114   113    1
    38   108   107    1
    39    67    68    1
    40    61    60    1
    41    61    62    1
    42    61    64    1
    43    58    59    1
    44    62    63    2
    45    64    65    1
    46    68    70   am
    47    68    69    2
    48   107    97   am
    49    70    71    1
    50    98    97    2
    51    97    96    1
    52    65    94    1
    53    71    72    1
    54    73    72    2
    55    96    95    1
    56    96    99    1
    57    72    74   am
    58    94    93    1
    59    93    90    1
    60    95    91   am
    61    99   100    1
    62    74    75    1
    63    91    90    1
    64    91    92    2
    65    90    89    1
    66   100   101   ar
    67   100   102   ar
    68   101   103   ar
    69    75    76    1
    70    89    80   am
    71   102   104   ar
    72    76    77    2
    73    76    78   am
    74   103   105   ar
    75    80    81    2
    76    80    79    1
    77    78    79    1
    78    11    12    1
    79    11     8    1
    80   104   105   ar
    81   105   106    1
    82    79    82    1
    83     8     7    1
    84     8     9    1
    85     7     3   am
    86    41    40    1
    87    41    42    1
    88    40    37    1
    89     2     3    1
    90     2     5    1
    91     2     1    1
    92    82    83    1
    93    45    44    1
    94     3     4    2
    95     9    10    2
    96     9    13   am
    97     5     6    1
    98    44    43    2
    99    44    46    1
   100    42    43    1
   101    39    38    2
   102    38    37    1
   103    83    84    1
   104    13    14    1
   105    37    36    1
   106    35    33   ar
   107    85    84    1
   108    85    86    2
   109    14    17    1
   110    14    15    1
   111    31    30    2
   112    19    18   ar
   113    33    32    1
   114    33    34   ar
   115    32    29    1
   116    17    18    1
   117    18    20   ar
   118    88    86    1
   119    30    29    1
   120    86    87    1
   121    15    16    2
   122    29    28    1
   123    28    23   am
   124    26    25    1
   125    21    22    1
   126    23    22    1
   127    23    24    2
   128    22    25    1
   129    25    27    1
