@<TRIPOS>MOLECULE
tmp/3eygA00.pdb
 170 161 0 0 0
SMALL
GASTEIGER

@<TRIPOS>ATOM
      1  N         11.6180   21.0260  -16.7990 N.3    17  LEU17      -0.1231
      2  CA        12.5030   19.8460  -16.6970 C.3    17  LEU17       0.1693
      3  C         12.2760   18.7870  -17.7460 C.2    17  LEU17       0.2593
      4  O         13.2120   18.0900  -18.1170 O.2    17  LEU17      -0.2718
      5  CB        12.3740   19.1890  -15.3230 C.3    17  LEU17       0.0284
      6  CG        12.7930   20.0740  -14.1510 C.3    17  LEU17       0.0019
      7  CD1       12.3780   19.4170  -12.8240 C.3    17  LEU17       0.0001
      8  CD2       14.3170   20.3310  -14.2210 C.3    17  LEU17       0.0001
      9  N         11.0310   18.6220  -18.1770 N.am   18  GLY18      -0.1942
     10  CA        10.7090   17.6380  -19.2020 C.3    18  GLY18       0.2014
     11  C          9.2480   17.6140  -19.5310 C.2    18  GLY18       0.2639
     12  O          8.4610   18.3260  -18.9270 O.2    18  GLY18      -0.2714
     13  N          8.8940   16.7790  -20.5040 N.am   19  GLU19      -0.1963
     14  CA         7.5160   16.5820  -20.9330 C.3    19  GLU19       0.1733
     15  C          7.2830   15.0990  -21.1660 C.2    19  GLU19       0.2617
     16  O          8.1730   14.3750  -21.6270 O.2    19  GLU19      -0.2715
     17  CB         7.2600   17.2930  -22.2590 C.3    19  GLU19       0.0429
     18  CG         6.5930   18.6360  -22.1610 C.3    19  GLU19       0.1163
     19  CD         6.3170   19.2260  -23.5360 C.2    19  GLU19       0.3649
     20  OE1        5.1640   19.6450  -23.7990 O.co2  19  GLU19      -0.2457
     21  OE2        7.2620   19.2460  -24.3540 O.co2  19  GLU19      -0.2457
     22  N          6.0690   14.6700  -20.8680 N.am   20  GLY20      -0.1940
     23  CA         5.6290   13.3120  -21.1560 C.3    20  GLY20       0.2014
     24  C          4.3420   13.3640  -21.9440 C.2    20  GLY20       0.2638
     25  O          4.1580   14.2510  -22.7970 O.2    20  GLY20      -0.2714
     26  N          3.4470   12.4220  -21.6590 N.am   21  HIS21      -0.1973
     27  CA         2.2220   12.2580  -22.4510 C.3    21  HIS21       0.1656
     28  C          1.2270   13.3840  -22.1550 C.2    21  HIS21       0.2291
     29  O          1.1000   14.3400  -22.9360 O.2    21  HIS21      -0.2864
     30  CB         1.5970   10.8730  -22.2110 C.3    21  HIS21       0.0771
     31  CG         2.6010    9.7630  -22.1670 C.ar   21  HIS21       0.0820
     32  ND1        3.0400    9.2060  -20.9850 N.ar   21  HIS21      -0.2267
     33  CD2        3.2800    9.1330  -23.1570 C.ar   21  HIS21       0.1154
     34  CE1        3.9390    8.2720  -21.2490 C.ar   21  HIS21       0.1986
     35  NE2        4.1000    8.2050  -22.5600 N.ar   21  HIS21      -0.2212
     36  N          1.4340   15.3180  -19.4240 N.3    23  GLY23      -0.1210
     37  CA         2.0330   16.2720  -18.5060 C.3    23  GLY23       0.1956
     38  C          3.3300   16.9450  -18.9160 C.2    23  GLY23       0.2612
     39  O          3.9890   16.5830  -19.9010 O.2    23  GLY23      -0.2717
     40  N          3.6720   17.9810  -18.1680 N.am   24  LYS24      -0.1965
     41  CA         5.0160   18.5420  -18.2010 C.3    24  LYS24       0.1728
     42  C          5.5400   18.5650  -16.7540 C.2    24  LYS24       0.2616
     43  O          4.7500   18.6360  -15.8190 O.2    24  LYS24      -0.2715
     44  CB         5.0030   19.9470  -18.7990 C.3    24  LYS24       0.0311
     45  CG         3.9290   20.8420  -18.2400 C.3    24  LYS24       0.0038
     46  CD         4.3080   22.3040  -18.2860 C.3    24  LYS24       0.0206
     47  CE         3.1750   23.1510  -17.6790 C.3    24  LYS24       0.1093
     48  NZ         3.5470   24.5880  -17.4480 N.3    24  LYS24      -0.1314
     49  N          6.8530   18.4970  -16.5790 N.am   25  VAL25      -0.1977
     50  CA         7.4570   18.6490  -15.2500 C.3    25  VAL25       0.1596
     51  C          8.3270   19.9180  -15.2070 C.2    25  VAL25       0.2287
     52  O          9.1030   20.1720  -16.1390 O.2    25  VAL25      -0.2864
     53  CB         8.2640   17.3940  -14.8780 C.3    25  VAL25       0.0276
     54  CG1        8.9480   17.5490  -13.5330 C.3    25  VAL25       0.0022
     55  CG2        7.3520   16.1560  -14.8840 C.3    25  VAL25       0.0022
     56  N         10.0300   19.0660   -7.9240 N.3    42  ALA42      -0.1245
     57  CA         9.6260   18.8810   -9.3150 C.3    42  ALA42       0.1562
     58  C          8.1030   18.8110   -9.2950 C.2    42  ALA42       0.2260
     59  O          7.5270   18.1730   -8.4160 O.2    42  ALA42      -0.2867
     60  CB        10.2170   17.5780   -9.8720 C.3    42  ALA42       0.0290
     61  N          4.6180   18.2280  -11.5900 N.3    44  LYS44      -0.1245
     62  CA         3.9840   17.7650  -12.8290 C.3    44  LYS44       0.1561
     63  C          2.5830   18.3770  -12.9800 C.2    44  LYS44       0.2260
     64  O          1.7510   18.2500  -12.1010 O.2    44  LYS44      -0.2867
     65  CB         3.9230   16.2350  -12.8940 C.3    44  LYS44       0.0271
     66  CG         3.3760   15.6770  -14.2430 C.3    44  LYS44       0.0035
     67  CD         3.7290   14.1870  -14.3500 C.3    44  LYS44       0.0206
     68  CE         3.2930   13.5550  -15.6250 C.3    44  LYS44       0.1093
     69  NZ         3.7600   12.1430  -15.6350 N.3    44  LYS44      -0.1314
     70  N         10.9430    7.5600   -7.4070 N.3    69  VAL69      -0.1245
     71  CA        10.8940    9.0120   -7.1270 C.3    69  VAL69       0.1561
     72  C          9.9020    9.2970   -5.9830 C.2    69  VAL69       0.2260
     73  O          8.7800    8.7740   -5.9560 O.2    69  VAL69      -0.2867
     74  CB        10.6020    9.8720   -8.3750 C.3    69  VAL69       0.0252
     75  CG1        9.2450    9.6210   -8.8730 C.3    69  VAL69       0.0019
     76  CG2       10.8130   11.3880   -8.0460 C.3    69  VAL69       0.0019
     77  N          6.7630   16.2710   -6.5050 N.3    84  MET84      -0.1230
     78  CA         7.7570   15.2210   -6.2540 C.3    84  MET84       0.1702
     79  C          9.0960   15.8110   -5.8370 C.2    84  MET84       0.2592
     80  O          9.3490   16.9980   -6.0780 O.2    84  MET84      -0.2718
     81  CB         8.0040   14.4460   -7.5570 C.3    84  MET84       0.0401
     82  CG         6.7860   13.6040   -8.0100 C.3    84  MET84       0.0596
     83  SD         6.9770   13.0060   -9.7050 S.3    84  MET84      -0.1393
     84  CE         6.7420   14.5050  -10.6560 C.3    84  MET84       0.0692
     85  N          9.9900   14.9930   -5.2670 N.am   85  GLU85      -0.1966
     86  CA        11.3710   15.4340   -5.0630 C.3    85  GLU85       0.1733
     87  C         12.0440   15.7610   -6.4200 C.2    85  GLU85       0.2616
     88  O         11.6860   15.2080   -7.4850 O.2    85  GLU85      -0.2715
     89  CB        12.1880   14.3940   -4.2850 C.3    85  GLU85       0.0429
     90  CG        12.4840   13.1570   -5.1410 C.3    85  GLU85       0.1163
     91  CD        13.3030   12.1140   -4.4160 C.2    85  GLU85       0.3649
     92  OE1       14.0110   12.4630   -3.4520 O.co2  85  GLU85      -0.2457
     93  OE2       13.2180   10.9430   -4.8120 O.co2  85  GLU85      -0.2457
     94  N         13.0110   16.6790   -6.3780 N.am   86  PHE86      -0.1960
     95  CA        13.7690   17.0530   -7.5560 C.3    86  PHE86       0.1771
     96  C         15.0650   16.2660   -7.5950 C.2    86  PHE86       0.2619
     97  O         15.7720   16.2400   -6.5970 O.2    86  PHE86      -0.2715
     98  CB        14.1340   18.5340   -7.4230 C.3    86  PHE86       0.0574
     99  CG        15.0700   19.0370   -8.4760 C.ar   86  PHE86      -0.0200
    100  CD1       14.8420   18.7780   -9.8360 C.ar   86  PHE86      -0.0042
    101  CD2       16.1330   19.8480   -8.1150 C.ar   86  PHE86      -0.0042
    102  CE1       15.6930   19.2990  -10.8150 C.ar   86  PHE86      -0.0003
    103  CE2       16.9850   20.3770   -9.0960 C.ar   86  PHE86      -0.0003
    104  CZ        16.7410   20.1160  -10.4370 C.ar   86  PHE86      -0.0000
    105  N         15.3660   15.6310   -8.7380 N.am   87  LEU87      -0.1977
    106  CA        16.6110   14.8420   -8.9080 C.3    87  LEU87       0.1596
    107  C         17.4320   15.5230   -9.9900 C.2    87  LEU87       0.2287
    108  O         17.1210   15.3830  -11.1780 O.2    87  LEU87      -0.2864
    109  CB        16.3090   13.3740   -9.2470 C.3    87  LEU87       0.0297
    110  CG        15.5510   12.4810   -8.2120 C.3    87  LEU87       0.0022
    111  CD1       15.8980   11.0350   -8.4140 C.3    87  LEU87       0.0001
    112  CD2       15.8770   12.8260   -6.8100 C.3    87  LEU87       0.0001
    113  N         18.7400   14.5950  -13.7190 N.3    90  GLY90      -0.1210
    114  CA        17.8040   14.3680  -14.8160 C.3    90  GLY90       0.1956
    115  C         17.7170   12.8900  -15.1850 C.2    90  GLY90       0.2612
    116  O         18.0900   12.0340  -14.3890 O.2    90  GLY90      -0.2717
    117  N         17.2220   12.5770  -16.3670 N.am   91  SER91      -0.1952
    118  CA        17.0510   11.1610  -16.7070 C.3    91  SER91       0.1924
    119  C         18.3510   10.5510  -17.1940 C.2    91  SER91       0.2314
    120  O         19.2780   11.2650  -17.6300 O.2    91  SER91      -0.2863
    121  CB        15.9680   10.9570  -17.7400 C.3    91  SER91       0.2116
    122  OG        16.4500   11.2320  -19.0430 O.3    91  SER91      -0.2180
    123  N         19.5400   11.6740  -20.7010 N.3    94  GLU94      -0.1245
    124  CA        20.3220   12.8900  -20.8360 C.3    94  GLU94       0.1567
    125  C         21.6520   12.8100  -20.0930 C.2    94  GLU94       0.2260
    126  O         22.6360   13.4040  -20.5480 O.2    94  GLU94      -0.2867
    127  CB        19.5310   14.0780  -20.2990 C.3    94  GLU94       0.0388
    128  CG        18.4980   14.6410  -21.2850 C.3    94  GLU94       0.1160
    129  CD        17.2660   13.7590  -21.4460 C.2    94  GLU94       0.3649
    130  OE1       16.6310   13.4130  -20.4190 O.co2  94  GLU94      -0.2457
    131  OE2       16.9210   13.4230  -22.6070 O.co2  94  GLU94      -0.2457
    132  N         14.4370    7.0800  -20.5210 N.3   135  ARG135     -0.1231
    133  CA        13.9330    8.4680  -20.3670 C.3   135  ARG135      0.1694
    134  C         13.1320    8.6550  -19.0450 C.2   135  ARG135      0.2592
    135  O         12.8720    9.7890  -18.6200 O.2   135  ARG135     -0.2718
    136  CB        13.0570    8.8310  -21.5700 C.3   135  ARG135      0.0321
    137  CG        11.8260    7.9060  -21.7050 C.3   135  ARG135      0.0489
    138  CD        11.0300    8.2080  -23.0010 C.3   135  ARG135      0.2205
    139  NE        10.0340    7.1520  -23.1880 N.pl3 135  ARG135     -0.0865
    140  CZ        10.2280    6.0350  -23.8890 C.cat 135  ARG135      0.5346
    141  NH1       11.3750    5.8170  -24.5410 N.pl3 135  ARG135      0.1354
    142  NH2        9.2600    5.1280  -23.9420 N.pl3 135  ARG135      0.1354
    143  N         12.7410    7.5420  -18.4100 N.am  136  ASN136     -0.1974
    144  CA        11.9390    7.5650  -17.1890 C.3   136  ASN136      0.1688
    145  C         12.6970    7.1250  -15.9680 C.2   136  ASN136      0.2292
    146  O         12.1200    7.0080  -14.8720 O.2   136  ASN136     -0.2864
    147  CB        10.6630    6.7320  -17.3390 C.3   136  ASN136      0.1181
    148  CG         9.6810    7.3780  -18.2590 C.2   136  ASN136      0.2629
    149  OD1        9.5960    8.6050  -18.3020 O.2   136  ASN136     -0.2716
    150  ND2        8.9110    6.5720  -18.9920 N.am  136  ASN136     -0.0877
    151  N         15.4450    8.3630  -13.4640 N.3   138  LEU138     -0.1245
    152  CA        16.0740    9.5880  -12.9750 C.3   138  LEU138      0.1561
    153  C         17.3260    9.2750  -12.2080 C.2   138  LEU138      0.2260
    154  O         17.4450    8.2340  -11.5540 O.2   138  LEU138     -0.2867
    155  CB        15.1190   10.3130  -12.0260 C.3   138  LEU138      0.0270
    156  CG        14.2090   11.3020  -12.6930 C.3   138  LEU138      0.0019
    157  CD1       12.9670   11.4670  -11.8570 C.3   138  LEU138      0.0001
    158  CD2       14.9910   12.6270  -12.8250 C.3   138  LEU138      0.0001
    159  N         11.0760    7.2780  -12.2880 N.3   148  GLY148     -0.1210
    160  CA        10.7390    8.6890  -12.0580 C.3   148  GLY148      0.1956
    161  C          9.4760    9.2100  -12.7000 C.2   148  GLY148      0.2611
    162  O          9.2300   10.4420  -12.6750 O.2   148  GLY148     -0.2717
    163  N          8.6770    8.3060  -13.2820 N.am  149  ASP149     -0.1973
    164  CA         7.4010    8.6700  -13.9290 C.3   149  ASP149      0.1709
    165  C          6.4970    7.4450  -13.9260 C.2   149  ASP149      0.2293
    166  O          7.0180    6.3340  -13.9960 O.2   149  ASP149     -0.2864
    167  CB         7.5690    9.1040  -15.3910 C.3   149  ASP149      0.1436
    168  CG         6.3520    9.8540  -15.9050 C.2   149  ASP149      0.3671
    169  OD1        6.1670   11.0570  -15.5110 O.co2 149  ASP149     -0.2456
    170  OD2        5.5490    9.2490  -16.6560 O.co2 149  ASP149     -0.2456
@<TRIPOS>BOND
     1   141   140    1
     2    21    19   ar
     3   142   140    1
     4   140   139    2
     5    20    19   ar
     6    19    18    1
     7   139   138    1
     8    33    35   ar
     9    33    31   ar
    10   138   137    1
    11    29    28    2
    12    25    24    2
    13   131   129   ar
    14    35    34   ar
    15    27    30    1
    16    27    28    1
    17    27    26    1
    18    17    18    1
    19    17    14    1
    20    30    31    1
    21    31    32   ar
    22    24    26   am
    23    24    23    1
    24   137   136    1
    25    16    15    2
    26   136   133    1
    27   129   128    1
    28   129   130   ar
    29   128   127    1
    30    34    32   ar
    31    15    14    1
    32    15    22   am
    33    23    22    1
    34    14    13    1
    35   124   123    1
    36   124   127    1
    37   124   125    1
    38   126   125    2
    39   132   133    1
    40    13    11   am
    41   133   134    1
    42    39    38    2
    43    11    10    1
    44    11    12    2
    45    36    37    1
    46    10     9    1
    47   134   135    2
    48   134   143   am
    49   122   121    1
    50   150   148   am
    51    38    37    1
    52    38    40   am
    53    44    45    1
    54    44    41    1
    55   143   144    1
    56   149   148    2
    57    46    45    1
    58    46    47    1
    59   148   147    1
    60    41    40    1
    61    41    42    1
    62     9     3   am
    63     4     3    2
    64     3     2    1
    65   121   118    1
    66    47    48    1
    67   120   119    2
    68   147   144    1
    69   119   118    1
    70   144   145    1
    71     1     2    1
    72    42    49   am
    73    42    43    2
    74   118   117    1
    75     2     5    1
    76   170   168   ar
    77    49    50    1
    78   117   115   am
    79    52    51    2
    80   145   146    2
    81   168   169   ar
    82   168   167    1
    83    69    68    1
    84    68    67    1
    85   167   164    1
    86     5     6    1
    87    50    51    1
    88    50    53    1
    89   115   114    1
    90   115   116    2
    91    55    53    1
    92    53    54    1
    93   114   113    1
    94    67    66    1
    95    66    65    1
    96     8     6    1
    97     6     7    1
    98   166   165    2
    99   164   165    1
   100   164   163    1
   101   151   152    1
   102   163   161   am
   103    63    62    1
   104    63    64    2
   105   152   153    1
   106   152   155    1
   107    65    62    1
   108    62    61    1
   109   158   156    1
   110   161   162    2
   111   161   160    1
   112   156   155    1
   113   156   157    1
   114   159   160    1
   115   153   154    2
   116   108   107    2
   117   102   104   ar
   118   102   100   ar
   119    84    83    1
   120   104   103   ar
   121   107   106    1
   122    60    57    1
   123   100    99   ar
   124    83    82    1
   125    57    58    1
   126    57    56    1
   127    58    59    2
   128   109   106    1
   129   109   110    1
   130   103   101   ar
   131   106   105    1
   132    75    74    1
   133   105    96   am
   134    99   101   ar
   135    99    98    1
   136   111   110    1
   137    74    76    1
   138    74    71    1
   139   110   112    1
   140    82    81    1
   141    96    95    1
   142    96    97    2
   143    81    78    1
   144    95    98    1
   145    95    94    1
   146    88    87    2
   147    70    71    1
   148    71    72    1
   149    77    78    1
   150    87    94   am
   151    87    86    1
   152    78    79    1
   153    80    79    2
   154    72    73    2
   155    79    85   am
   156    85    86    1
   157    90    91    1
   158    90    89    1
   159    86    89    1
   160    93    91   ar
   161    91    92   ar
