@<TRIPOS>MOLECULE
tmp/3eyhA00.pdb
 165 155 0 0 0
SMALL
GASTEIGER

@<TRIPOS>ATOM
      1  N         10.3210  -26.6400  -13.7250 N.3    15  ARG15      -0.1245
      2  CA         9.7720  -26.0770  -14.9560 C.3    15  ARG15       0.1563
      3  C         10.6510  -24.9290  -15.4740 C.2    15  ARG15       0.2260
      4  O         11.1950  -24.1780  -14.6810 O.2    15  ARG15      -0.2867
      5  CB         8.4070  -25.4860  -14.5770 C.3    15  ARG15       0.0307
      6  CG         7.4510  -25.2540  -15.6690 C.3    15  ARG15       0.0489
      7  CD         6.0310  -25.4550  -15.1750 C.3    15  ARG15       0.2205
      8  NE         5.5810  -24.5010  -14.1540 N.pl3  15  ARG15      -0.0865
      9  CZ         5.3530  -23.2120  -14.3710 C.cat  15  ARG15       0.5346
     10  NH1        5.5840  -22.6770  -15.5600 N.pl3  15  ARG15       0.1354
     11  NH2        4.9160  -22.4500  -13.3850 N.pl3  15  ARG15       0.1354
     12  N         10.8820  -21.2230  -16.8070 N.3    17  LEU17      -0.1231
     13  CA        10.0310  -20.0310  -16.6080 C.3    17  LEU17       0.1693
     14  C         10.2200  -18.9600  -17.6870 C.2    17  LEU17       0.2593
     15  O          9.2390  -18.4080  -18.1820 O.2    17  LEU17      -0.2718
     16  CB        10.2670  -19.4000  -15.2200 C.3    17  LEU17       0.0284
     17  CG         9.8670  -20.2460  -14.0110 C.3    17  LEU17       0.0019
     18  CD1       10.0840  -19.4860  -12.7040 C.3    17  LEU17       0.0001
     19  CD2        8.4030  -20.7140  -14.1190 C.3    17  LEU17       0.0001
     20  N         11.4740  -18.6450  -18.0080 N.am   18  GLY18      -0.1942
     21  CA        11.8030  -17.6770  -19.0590 C.3    18  GLY18       0.2014
     22  C         13.2930  -17.6200  -19.3250 C.2    18  GLY18       0.2639
     23  O         14.0730  -18.1840  -18.5660 O.2    18  GLY18      -0.2714
     24  N         13.6920  -16.9310  -20.4000 N.am   19  GLU19      -0.1963
     25  CA        15.1180  -16.7710  -20.7740 C.3    19  GLU19       0.1733
     26  C         15.5820  -15.2940  -20.7870 C.2    19  GLU19       0.2616
     27  O         15.0270  -14.4630  -21.5110 O.2    19  GLU19      -0.2715
     28  CB        15.3970  -17.4380  -22.1340 C.3    19  GLU19       0.0429
     29  CG        16.8680  -17.8110  -22.3790 C.3    19  GLU19       0.1163
     30  CD        17.1740  -18.2220  -23.8410 C.2    19  GLU19       0.3649
     31  OE1       16.4970  -19.1420  -24.3730 O.co2  19  GLU19      -0.2457
     32  OE2       18.1130  -17.6380  -24.4460 O.co2  19  GLU19      -0.2457
     33  N         16.6010  -14.9830  -19.9810 N.am   20  GLY20      -0.1955
     34  CA        17.1860  -13.6220  -19.9110 C.3    20  GLY20       0.1869
     35  C         18.3780  -13.3680  -20.8330 C.2    20  GLY20       0.2309
     36  O         18.5910  -14.1020  -21.8050 O.2    20  GLY20      -0.2863
     37  N         15.7560  -18.6800  -16.6340 N.3    25  VAL25      -0.1245
     38  CA        15.0620  -18.7960  -15.3340 C.3    25  VAL25       0.1561
     39  C         14.1460  -20.0250  -15.2740 C.2    25  VAL25       0.2260
     40  O         13.3100  -20.2440  -16.1590 O.2    25  VAL25      -0.2867
     41  CB        14.2530  -17.5300  -14.9920 C.3    25  VAL25       0.0252
     42  CG1       13.6470  -17.6430  -13.5950 C.3    25  VAL25       0.0019
     43  CG2       15.1530  -16.2730  -15.1050 C.3    25  VAL25       0.0019
     44  N         12.5540  -19.0120   -7.9320 N.3    42  ALA42      -0.1245
     45  CA        12.9660  -18.8700   -9.3240 C.3    42  ALA42       0.1562
     46  C         14.4830  -18.8260   -9.3390 C.2    42  ALA42       0.2260
     47  O         15.1130  -18.1880   -8.4840 O.2    42  ALA42      -0.2867
     48  CB        12.3920  -17.6110   -9.9300 C.3    42  ALA42       0.0290
     49  N         17.9810  -18.3380  -11.6600 N.3    44  LYS44      -0.1245
     50  CA        18.5990  -17.8460  -12.8810 C.3    44  LYS44       0.1561
     51  C         19.9990  -18.4560  -13.0290 C.2    44  LYS44       0.2260
     52  O         20.8720  -18.2320  -12.2020 O.2    44  LYS44      -0.2867
     53  CB        18.6440  -16.3110  -12.8710 C.3    44  LYS44       0.0271
     54  CG        19.1700  -15.6790  -14.1620 C.3    44  LYS44       0.0035
     55  CD        18.5490  -14.2960  -14.3610 C.3    44  LYS44       0.0206
     56  CE        19.2150  -13.5700  -15.4810 C.3    44  LYS44       0.1093
     57  NZ        18.6990  -12.2050  -15.6220 N.3    44  LYS44      -0.1314
     58  N         11.7400   -7.5170   -7.5070 N.3    71  VAL71      -0.1245
     59  CA        11.7820   -8.9580   -7.2270 C.3    71  VAL71       0.1561
     60  C         12.7910   -9.2710   -6.1040 C.2    71  VAL71       0.2260
     61  O         13.9190   -8.7540   -6.0800 O.2    71  VAL71      -0.2867
     62  CB        12.0210   -9.8050   -8.5060 C.3    71  VAL71       0.0252
     63  CG1       13.4430   -9.6300   -9.0280 C.3    71  VAL71       0.0019
     64  CG2       11.6930  -11.2460   -8.2480 C.3    71  VAL71       0.0019
     65  N         15.7340  -16.1480   -6.5540 N.3    89  MET89      -0.1230
     66  CA        14.7680  -15.0700   -6.3250 C.3    89  MET89       0.1702
     67  C         13.4430  -15.6880   -5.8930 C.2    89  MET89       0.2592
     68  O         13.2190  -16.9080   -6.0460 O.2    89  MET89      -0.2718
     69  CB        14.5340  -14.2570   -7.6070 C.3    89  MET89       0.0401
     70  CG        15.7730  -13.4980   -8.1480 C.3    89  MET89       0.0596
     71  SD        15.6070  -12.8880   -9.8550 S.3    89  MET89      -0.1393
     72  CE        15.9740  -14.3630  -10.8330 C.3    89  MET89       0.0692
     73  N         12.5460  -14.8580   -5.3790 N.am   90  GLU90      -0.1966
     74  CA        11.1810  -15.3030   -5.1450 C.3    90  GLU90       0.1733
     75  C         10.5140  -15.6900   -6.4690 C.2    90  GLU90       0.2616
     76  O         10.8760  -15.1860   -7.5600 O.2    90  GLU90      -0.2715
     77  CB        10.3690  -14.2250   -4.4220 C.3    90  GLU90       0.0429
     78  CG        10.1920  -12.9400   -5.2290 C.3    90  GLU90       0.1163
     79  CD         9.4150  -11.8580   -4.4780 C.2    90  GLU90       0.3649
     80  OE1        8.6980  -12.1860   -3.5160 O.co2  90  GLU90      -0.2457
     81  OE2        9.5490  -10.6690   -4.8310 O.co2  90  GLU90      -0.2457
     82  N          9.5490  -16.6010   -6.3650 N.am   91  PHE91      -0.1960
     83  CA         8.7640  -17.0340   -7.4990 C.3    91  PHE91       0.1771
     84  C          7.5500  -16.1470   -7.5860 C.2    91  PHE91       0.2619
     85  O          6.8520  -16.0000   -6.5990 O.2    91  PHE91      -0.2715
     86  CB         8.3330  -18.4980   -7.3060 C.3    91  PHE91       0.0574
     87  CG         7.4590  -19.0290   -8.4010 C.ar   91  PHE91      -0.0200
     88  CD1        7.7650  -18.7910   -9.7420 C.ar   91  PHE91      -0.0042
     89  CD2        6.3540  -19.8180   -8.0980 C.ar   91  PHE91      -0.0042
     90  CE1        6.9530  -19.2930  -10.7640 C.ar   91  PHE91      -0.0003
     91  CE2        5.5310  -20.3200   -9.1140 C.ar   91  PHE91      -0.0003
     92  CZ         5.8360  -20.0690  -10.4460 C.ar   91  PHE91      -0.0000
     93  N          7.3110  -15.5650   -8.7660 N.am   92  LEU92      -0.1964
     94  CA         6.1490  -14.6960   -9.0310 C.3    92  LEU92       0.1713
     95  C          5.3630  -15.3560  -10.1760 C.2    92  LEU92       0.2458
     96  O          5.6840  -15.1780  -11.3630 O.2    92  LEU92      -0.2730
     97  CB         6.5790  -13.2600   -9.3650 C.3    92  LEU92       0.0310
     98  CG         7.4690  -12.5150   -8.3410 C.3    92  LEU92       0.0022
     99  CD1        7.9240  -11.1480   -8.8670 C.3    92  LEU92       0.0001
    100  CD2        6.7700  -12.3450   -7.0260 C.3    92  LEU92       0.0001
    101  N          4.3720  -16.1780   -9.7950 N.am   93  PRO93      -0.2727
    102  CA         3.6630  -17.2060  -10.5480 C.3    93  PRO93       0.1402
    103  C          2.9710  -16.7370  -11.8250 C.2    93  PRO93       0.2269
    104  O          2.8180  -17.5340  -12.7480 O.2    93  PRO93      -0.2865
    105  CB         2.6230  -17.7250   -9.5430 C.3    93  PRO93       0.0296
    106  CG         3.1760  -17.4030   -8.2240 C.3    93  PRO93       0.0237
    107  CD         3.8810  -16.0890   -8.4080 C.3    93  PRO93       0.0939
    108  N          4.1150  -14.4620  -13.9100 N.3    95  GLY95      -0.1210
    109  CA         5.0820  -14.1360  -14.9630 C.3    95  GLY95       0.1956
    110  C          5.0490  -12.6660  -15.3420 C.2    95  GLY95       0.2612
    111  O          4.6050  -11.8280  -14.5650 O.2    95  GLY95      -0.2717
    112  N          5.4870  -12.3480  -16.5480 N.am   96  SER96      -0.1952
    113  CA         5.6260  -10.9530  -16.8980 C.3    96  SER96       0.1924
    114  C          4.3040  -10.3810  -17.3650 C.2    96  SER96       0.2314
    115  O          3.3880  -11.1220  -17.7740 O.2    96  SER96      -0.2863
    116  CB         6.7190  -10.7610  -17.9460 C.3    96  SER96       0.2116
    117  OG         6.1840  -10.8650  -19.2470 O.3    96  SER96      -0.2180
    118  N          3.0820  -11.5390  -20.8430 N.3    99  GLU99      -0.1245
    119  CA         2.2460  -12.7340  -20.9610 C.3    99  GLU99       0.1567
    120  C          0.9190  -12.6000  -20.2090 C.2    99  GLU99       0.2260
    121  O         -0.1210  -13.0710  -20.6750 O.2    99  GLU99      -0.2867
    122  CB         3.0130  -13.9670  -20.4950 C.3    99  GLU99       0.0388
    123  CG         4.0500  -14.4480  -21.5130 C.3    99  GLU99       0.1160
    124  CD         5.2960  -13.5580  -21.5880 C.2    99  GLU99       0.3649
    125  OE1        5.8870  -13.2420  -20.5250 O.co2  99  GLU99      -0.2457
    126  OE2        5.6930  -13.1900  -22.7180 O.co2  99  GLU99      -0.2457
    127  N          8.0840   -6.8600  -20.4710 N.3   140  ARG140     -0.1231
    128  CA         8.6300   -8.2220  -20.3460 C.3   140  ARG140      0.1694
    129  C          9.4850   -8.4110  -19.0920 C.2   140  ARG140      0.2592
    130  O          9.7520   -9.5520  -18.6890 O.2   140  ARG140     -0.2718
    131  CB         9.4520   -8.6030  -21.5750 C.3   140  ARG140      0.0321
    132  CG        10.6550   -7.6750  -21.7980 C.3   140  ARG140      0.0489
    133  CD        11.4590   -8.0490  -23.0550 C.3   140  ARG140      0.2205
    134  NE        12.6320   -7.1740  -23.1410 N.pl3 140  ARG140     -0.0865
    135  CZ        12.6640   -6.0350  -23.8200 C.cat 140  ARG140      0.5346
    136  NH1       11.6010   -5.6320  -24.5250 N.pl3 140  ARG140      0.1354
    137  NH2       13.7650   -5.2970  -23.7980 N.pl3 140  ARG140      0.1354
    138  N          9.9120   -7.3020  -18.4790 N.am  141  ASN141     -0.1974
    139  CA        10.7480   -7.3690  -17.2720 C.3   141  ASN141      0.1688
    140  C         10.0150   -6.9840  -16.0110 C.2   141  ASN141      0.2292
    141  O         10.6100   -6.9200  -14.9260 O.2   141  ASN141     -0.2864
    142  CB        12.0140   -6.5420  -17.4380 C.3   141  ASN141      0.1181
    143  CG        12.9760   -7.1640  -18.4120 C.2   141  ASN141      0.2629
    144  OD1       13.0930   -8.3860  -18.4830 O.2   141  ASN141     -0.2716
    145  ND2       13.6550   -6.3340  -19.1870 N.am  141  ASN141     -0.0877
    146  N          7.2700   -8.2280  -13.5750 N.3   143  LEU143     -0.1245
    147  CA         6.6640   -9.5070  -13.1950 C.3   143  LEU143      0.1561
    148  C          5.4330   -9.2950  -12.3470 C.2   143  LEU143      0.2260
    149  O          5.3440   -8.3250  -11.6130 O.2   143  LEU143     -0.2867
    150  CB         7.6770  -10.3750  -12.4390 C.3   143  LEU143      0.0270
    151  CG         8.9510  -10.6910  -13.2240 C.3   143  LEU143      0.0019
    152  CD1        9.9850  -11.2650  -12.2790 C.3   143  LEU143      0.0001
    153  CD2        8.6670  -11.6580  -14.3750 C.3   143  LEU143      0.0001
    154  N         11.5500   -7.1580  -12.3280 N.3   153  GLY153     -0.1210
    155  CA        11.8940   -8.5680  -12.1170 C.3   153  GLY153      0.1956
    156  C         13.1430   -9.0920  -12.7890 C.2   153  GLY153      0.2611
    157  O         13.4220  -10.2940  -12.7280 O.2   153  GLY153     -0.2717
    158  N         13.8980   -8.2020  -13.4290 N.am  154  ASP154     -0.1973
    159  CA        15.1770   -8.5630  -14.0190 C.3   154  ASP154      0.1709
    160  C         16.0880   -7.3520  -14.0270 C.2   154  ASP154      0.2293
    161  O         15.5820   -6.2350  -14.1670 O.2   154  ASP154     -0.2864
    162  CB        15.0100   -9.0700  -15.4520 C.3   154  ASP154      0.1436
    163  CG        16.2570   -9.7460  -15.9580 C.2   154  ASP154      0.3671
    164  OD1       16.4640  -10.9190  -15.5910 O.co2 154  ASP154     -0.2456
    165  OD2       17.0420   -9.1040  -16.6920 O.co2 154  ASP154     -0.2456
@<TRIPOS>BOND
     1   136   135    1
     2    32    30   ar
     3    31    30   ar
     4    30    29    1
     5   135   137    1
     6   135   134    2
     7   134   133    1
     8   133   132    1
     9   126   124   ar
    10    29    28    1
    11    28    25    1
    12    36    35    2
    13   132   131    1
    14   124   123    1
    15   124   125   ar
    16   131   128    1
    17   123   122    1
    18    27    26    2
    19   119   118    1
    20   119   122    1
    21   119   120    1
    22    35    34    1
    23    26    25    1
    24    26    33   am
    25    25    24    1
    26   121   120    2
    27   127   128    1
    28    24    22   am
    29   128   129    1
    30    33    34    1
    31    22    21    1
    32    22    23    2
    33   117   116    1
    34   145   143   am
    35   129   130    2
    36   129   138   am
    37    21    20    1
    38   144   143    2
    39   138   139    1
    40   143   142    1
    41    15    14    2
    42    20    14   am
    43   116   113    1
    44   115   114    2
    45    14    13    1
    46   142   139    1
    47   114   113    1
    48   139   140    1
    49   113   112    1
    50    12    13    1
    51   165   163   ar
    52    37    38    1
    53    13    16    1
    54   112   110   am
    55    40    39    2
    56   140   141    2
    57   163   164   ar
    58   163   162    1
    59     6     7    1
    60     6     5    1
    61    57    56    1
    62    10     9    1
    63    56    55    1
    64     3     2    1
    65     3     4    2
    66   162   159    1
    67   110   109    1
    68   110   111    2
    69    38    39    1
    70    38    41    1
    71    16    17    1
    72     7     8    1
    73    43    41    1
    74    41    42    1
    75   109   108    1
    76     2     5    1
    77     2     1    1
    78   153   151    1
    79     9     8    2
    80     9    11    1
    81    55    54    1
    82   161   160    2
    83    54    53    1
    84    19    17    1
    85   160   159    1
    86   159   158    1
    87    17    18    1
    88   146   147    1
    89   158   156   am
    90   151   150    1
    91   151   152    1
    92   147   150    1
    93   147   148    1
    94    51    50    1
    95    51    52    2
    96    50    53    1
    97    50    49    1
    98   156   157    2
    99   156   155    1
   100   104   103    2
   101   148   149    2
   102   154   155    1
   103   103   102    1
   104    96    95    2
   105    72    71    1
   106    90    92   ar
   107    90    88   ar
   108   102   101    1
   109   102   105    1
   110    92    91   ar
   111    95   101   am
   112    95    94    1
   113    48    45    1
   114    71    70    1
   115   101   107    1
   116    88    87   ar
   117   105   106    1
   118    97    94    1
   119    97    98    1
   120    46    45    1
   121    46    47    2
   122    45    44    1
   123    91    89   ar
   124    94    93    1
   125    63    62    1
   126    99    98    1
   127    93    84   am
   128    62    64    1
   129    62    59    1
   130   107   106    1
   131    87    89   ar
   132    87    86    1
   133    98   100    1
   134    70    69    1
   135    69    66    1
   136    84    83    1
   137    84    85    2
   138    76    75    2
   139    58    59    1
   140    83    86    1
   141    83    82    1
   142    59    60    1
   143    65    66    1
   144    75    82   am
   145    75    74    1
   146    66    67    1
   147    60    61    2
   148    68    67    2
   149    67    73   am
   150    73    74    1
   151    78    79    1
   152    78    77    1
   153    74    77    1
   154    81    79   ar
   155    79    80   ar
