@<TRIPOS>MOLECULE
tmp/3eysB00.pdb
 128 128 0 0 0
SMALL
GASTEIGER

@<TRIPOS>ATOM
      1  N         11.8820   -5.9210   -8.1160 N.3    49  TRP49      -0.1241
      2  CA        12.5410   -7.1890   -8.4020 C.3    49  TRP49       0.1605
      3  C         13.7710   -7.3380   -7.5130 C.2    49  TRP49       0.2264
      4  O         14.5290   -6.3650   -7.3120 O.2    49  TRP49      -0.2867
      5  CB        12.9340   -7.2540   -9.8900 C.3    49  TRP49       0.0550
      6  CG        13.7770   -8.4530  -10.2410 C.ar   49  TRP49       0.0003
      7  CD1       13.3480   -9.7400  -10.3800 C.ar   49  TRP49       0.0946
      8  CD2       15.2000   -8.4700  -10.4960 C.ar   49  TRP49       0.0152
      9  NE1       14.4060  -10.5640  -10.7070 N.ar   49  TRP49      -0.2442
     10  CE2       15.5540   -9.8110  -10.7820 C.ar   49  TRP49       0.0810
     11  CE3       16.2040   -7.4870  -10.5080 C.ar   49  TRP49       0.0012
     12  CZ2       16.8770  -10.1980  -11.0750 C.ar   49  TRP49       0.0191
     13  CZ3       17.5230   -7.8780  -10.7920 C.ar   49  TRP49       0.0001
     14  CH2       17.8370   -9.2150  -11.0790 C.ar   49  TRP49       0.0015
     15  N         16.8780  -13.5510   -9.3660 N.3    52  HIS52      -0.1241
     16  CA        16.4360  -14.6980  -10.1610 C.3    52  HIS52       0.1621
     17  C         17.5520  -15.7440  -10.1550 C.2    52  HIS52       0.2264
     18  O         18.7470  -15.3980  -10.0790 O.2    52  HIS52      -0.2867
     19  CB        16.0530  -14.2700  -11.5980 C.3    52  HIS52       0.0745
     20  CG        15.0140  -15.1450  -12.2330 C.ar   52  HIS52       0.0817
     21  ND1       13.7080  -15.1940  -11.7910 N.ar   52  HIS52      -0.2268
     22  CD2       15.0880  -16.0110  -13.2720 C.ar   52  HIS52       0.1154
     23  CE1       13.0260  -16.0580  -12.5230 C.ar   52  HIS52       0.1986
     24  NE2       13.8410  -16.5680  -13.4280 N.ar   52  HIS52      -0.2212
     25  N         18.7030  -19.5370  -12.1660 N.3    54  TRP54      -0.1227
     26  CA        18.4630  -20.3910  -13.3260 C.3    54  TRP54       0.1737
     27  C         18.7490  -21.8550  -13.0690 C.2    54  TRP54       0.2595
     28  O         19.5180  -22.2110  -12.1590 O.2    54  TRP54      -0.2718
     29  CB        19.3100  -19.9090  -14.5050 C.3    54  TRP54       0.0564
     30  CG        18.9690  -18.5390  -14.9430 C.ar   54  TRP54       0.0003
     31  CD1       19.7600  -17.4240  -14.8690 C.ar   54  TRP54       0.0946
     32  CD2       17.7300  -18.1180  -15.5250 C.ar   54  TRP54       0.0152
     33  NE1       19.0890  -16.3340  -15.3910 N.ar   54  TRP54      -0.2442
     34  CE2       17.8390  -16.7330  -15.7920 C.ar   54  TRP54       0.0810
     35  CE3       16.5360  -18.7750  -15.8420 C.ar   54  TRP54       0.0012
     36  CZ2       16.8000  -15.9970  -16.3630 C.ar   54  TRP54       0.0191
     37  CZ3       15.5010  -18.0390  -16.4150 C.ar   54  TRP54       0.0001
     38  CH2       15.6430  -16.6630  -16.6640 C.ar   54  TRP54       0.0015
     39  N         18.1530  -22.7000  -13.9070 N.am   55  TRP55      -0.1962
     40  CA        18.4050  -24.1400  -13.9010 C.3    55  TRP55       0.1771
     41  C         19.8820  -24.5210  -13.7800 C.2    55  TRP55       0.2619
     42  O         20.2240  -25.5600  -13.1880 O.2    55  TRP55      -0.2715
     43  CB        17.8230  -24.7650  -15.1800 C.3    55  TRP55       0.0590
     44  CG        18.5120  -24.3170  -16.4360 C.ar   55  TRP55       0.0006
     45  CD1       18.3200  -23.1440  -17.0930 C.ar   55  TRP55       0.0946
     46  CD2       19.5280  -25.0270  -17.1680 C.ar   55  TRP55       0.0152
     47  NE1       19.1410  -23.0760  -18.1910 N.ar   55  TRP55      -0.2442
     48  CE2       19.8890  -24.2200  -18.2670 C.ar   55  TRP55       0.0810
     49  CE3       20.1620  -26.2660  -17.0030 C.ar   55  TRP55       0.0012
     50  CZ2       20.8600  -24.6090  -19.2050 C.ar   55  TRP55       0.0191
     51  CZ3       21.1300  -26.6610  -17.9410 C.ar   55  TRP55       0.0001
     52  CH2       21.4670  -25.8340  -19.0230 C.ar   55  TRP55       0.0015
     53  N         20.7540  -23.6850  -14.3420 N.am   56  ASP56      -0.1971
     54  CA        22.1810  -24.0040  -14.4410 C.3    56  ASP56       0.1709
     55  C         23.0390  -23.2220  -13.4350 C.2    56  ASP56       0.2293
     56  O         24.2360  -22.9890  -13.6890 O.2    56  ASP56      -0.2864
     57  CB        22.6830  -23.7540  -15.8640 C.3    56  ASP56       0.1436
     58  CG        22.6370  -22.2890  -16.2540 C.2    56  ASP56       0.3671
     59  OD1       22.0310  -21.4750  -15.5110 O.co2  56  ASP56      -0.2456
     60  OD2       23.2070  -21.9410  -17.3100 O.co2  56  ASP56      -0.2456
     61  N         23.2370  -20.1980  -12.5450 N.3    58  ASP58      -0.1239
     62  CA        23.4770  -18.7990  -12.8400 C.3    58  ASP58       0.1674
     63  C         22.4450  -17.9570  -12.1000 C.2    58  ASP58       0.2266
     64  O         21.2950  -18.3590  -11.9570 O.2    58  ASP58      -0.2867
     65  CB        23.3720  -18.5510  -14.3420 C.3    58  ASP58       0.1410
     66  CG        23.7010  -17.1270  -14.7190 C.2    58  ASP58       0.3668
     67  OD1       24.7270  -16.6120  -14.2170 O.co2  58  ASP58      -0.2456
     68  OD2       22.9340  -16.5220  -15.5110 O.co2  58  ASP58      -0.2456
     69  N         21.0340  -13.7550  -10.9150 N.3    60  SER60      -0.1217
     70  CA        20.9150  -12.3530  -11.2500 C.3    60  SER60       0.1889
     71  C         20.3430  -11.6580  -10.0260 C.2    60  SER60       0.2288
     72  O         19.3980  -12.1720   -9.4180 O.2    60  SER60      -0.2866
     73  CB        19.9650  -12.1960  -12.4260 C.3    60  SER60       0.2089
     74  OG        20.0740  -10.9110  -12.9840 O.3    60  SER60      -0.2183
     75  N         10.0170  -17.7430  -14.0310 N.3   100  ARG100     -0.1245
     76  CA        10.3680  -17.0900  -15.2910 C.3   100  ARG100      0.1563
     77  C         11.4700  -17.8850  -15.9860 C.2   100  ARG100      0.2260
     78  O         12.5580  -18.0920  -15.4200 O.2   100  ARG100     -0.2867
     79  CB        10.8090  -15.6340  -15.0860 C.3   100  ARG100      0.0307
     80  CG        10.8000  -14.7970  -16.3790 C.3   100  ARG100      0.0489
     81  CD        11.4380  -13.4150  -16.2170 C.3   100  ARG100      0.2205
     82  NE        11.3930  -12.6640  -17.4760 N.pl3 100  ARG100     -0.0865
     83  CZ        10.5130  -11.7120  -17.7850 C.cat 100  ARG100      0.5346
     84  NH1        9.5730  -11.3240  -16.9260 N.pl3 100  ARG100      0.1354
     85  NH2       10.5920  -11.1340  -18.9740 N.pl3 100  ARG100      0.1354
     86  N         14.0820  -18.5110  -19.3870 N.3   102  HIS102     -0.1226
     87  CA        14.8570  -17.7110  -20.3450 C.3   102  HIS102      0.1752
     88  C         14.7180  -18.2100  -21.7900 C.2   102  HIS102      0.2597
     89  O         15.5000  -17.8410  -22.6670 O.2   102  HIS102     -0.2718
     90  CB        16.3430  -17.5740  -19.9270 C.3   102  HIS102      0.0759
     91  CG        17.1340  -18.8480  -20.0000 C.ar  102  HIS102      0.0818
     92  ND1       17.7090  -19.3030  -21.1680 N.ar  102  HIS102     -0.2268
     93  CD2       17.4750  -19.7450  -19.0400 C.ar  102  HIS102      0.1154
     94  CE1       18.3550  -20.4330  -20.9280 C.ar  102  HIS102      0.1986
     95  NE2       18.2320  -20.7210  -19.6440 N.ar  102  HIS102     -0.2212
     96  N         13.7200  -19.0570  -22.0200 N.am  103  THR103     -0.1939
     97  CA        13.4280  -19.5820  -23.3500 C.3   103  THR103      0.2028
     98  C         11.9520  -19.3650  -23.6100 C.2   103  THR103      0.2642
     99  O         11.1330  -19.4810  -22.6910 O.2   103  THR103     -0.2714
    100  CB        13.7260  -21.0980  -23.4780 C.3   103  THR103      0.1808
    101  OG1       12.8020  -21.8430  -22.6680 O.3   103  THR103     -0.2208
    102  CG2       15.1560  -21.4360  -23.0550 C.3   103  THR103      0.0379
    103  N         11.6170  -19.0650  -24.8640 N.am  104  THR104     -0.1950
    104  CA        10.2570  -18.6780  -25.2420 C.3   104  THR104      0.1897
    105  C          9.2230  -19.7720  -24.9750 C.2   104  THR104      0.2313
    106  O          8.1010  -19.4690  -24.5710 O.2   104  THR104     -0.2863
    107  CB        10.1670  -18.1690  -26.7210 C.3   104  THR104      0.1794
    108  OG1        8.7920  -18.0400  -27.0990 O.3   104  THR104     -0.2208
    109  CG2       10.8660  -19.1290  -27.6940 C.3   104  THR104      0.0378
    110  N          8.7750  -16.9430  -21.0330 N.3   108  ASP108     -0.1239
    111  CA         9.6280  -15.8150  -20.6980 C.3   108  ASP108      0.1674
    112  C          8.7640  -14.6250  -20.2540 C.2   108  ASP108      0.2266
    113  O          8.5740  -13.6470  -20.9870 O.2   108  ASP108     -0.2867
    114  CB        10.5330  -15.4760  -21.8940 C.3   108  ASP108      0.1410
    115  CG        11.8650  -14.8740  -21.4740 C.2   108  ASP108      0.3668
    116  OD1       11.9490  -14.3030  -20.3640 O.co2 108  ASP108     -0.2456
    117  OD2       12.8350  -14.9590  -22.2640 O.co2 108  ASP108     -0.2456
    118  N          6.5030  -13.2470  -16.2250 N.3   110  PHE110     -0.1241
    119  CA         6.0350  -13.6320  -14.8940 C.3   110  PHE110      0.1605
    120  C          4.5540  -14.0160  -14.9440 C.2   110  PHE110      0.2264
    121  O          3.7000  -13.2350  -14.5360 O.2   110  PHE110     -0.2867
    122  CB         6.2650  -12.5110  -13.8760 C.3   110  PHE110      0.0534
    123  CG         7.7130  -12.1530  -13.6630 C.ar  110  PHE110     -0.0203
    124  CD1        8.1260  -10.8190  -13.7070 C.ar  110  PHE110     -0.0042
    125  CD2        8.6610  -13.1330  -13.3780 C.ar  110  PHE110     -0.0042
    126  CE1        9.4640  -10.4660  -13.4850 C.ar  110  PHE110     -0.0003
    127  CE2       10.0130  -12.7850  -13.1550 C.ar  110  PHE110     -0.0003
    128  CZ        10.4070  -11.4400  -13.2120 C.ar  110  PHE110     -0.0000
@<TRIPOS>BOND
     1   109   107    1
     2   108   107    1
     3   107   104    1
     4   104   105    1
     5   104   103    1
     6   105   106    2
     7   103    98   am
     8    98    97    1
     9    98    99    2
    10   100    97    1
    11   100   102    1
    12   100   101    1
    13    97    96    1
    14    89    88    2
    15   117   115   ar
    16    96    88   am
    17   114   115    1
    18   114   111    1
    19    88    87    1
    20   115   116   ar
    21    92    94   ar
    22    92    91   ar
    23   110   111    1
    24   113   112    2
    25    94    95   ar
    26   111   112    1
    27    87    90    1
    28    87    86    1
    29    91    90    1
    30    91    93   ar
    31    95    93   ar
    32    50    52   ar
    33    50    48   ar
    34    52    51   ar
    35    85    83    1
    36    48    47   ar
    37    48    46   ar
    38    47    45   ar
    39    51    49   ar
    40    83    82    2
    41    83    84    1
    42    82    81    1
    43    60    58   ar
    44    46    49   ar
    45    46    44   ar
    46    45    44   ar
    47    38    37   ar
    48    38    36   ar
    49    44    43    1
    50    37    35   ar
    51    80    81    1
    52    80    79    1
    53    36    34   ar
    54    58    57    1
    55    58    59   ar
    56   118   119    1
    57    77    78    2
    58    77    76    1
    59    57    54    1
    60    35    32   ar
    61    34    32   ar
    62    34    33   ar
    63    32    30   ar
    64    68    66   ar
    65    33    31   ar
    66    76    79    1
    67    76    75    1
    68    43    40    1
    69   120   119    1
    70   120   121    2
    71    30    31   ar
    72    30    29    1
    73   119   122    1
    74    66    65    1
    75    66    67   ar
    76    29    26    1
    77    54    53    1
    78    54    55    1
    79    65    62    1
    80    53    41   am
    81    39    40    1
    82    39    27   am
    83    40    41    1
    84   122   123    1
    85    41    42    2
    86   124   123   ar
    87   124   126   ar
    88    56    55    2
    89   123   125   ar
    90   126   128   ar
    91    24    22   ar
    92    24    23   ar
    93   125   127   ar
    94    26    27    1
    95    26    25    1
    96    22    20   ar
    97   128   127   ar
    98    27    28    2
    99    74    73    1
   100    62    61    1
   101    62    63    1
   102    23    21   ar
   103    73    70    1
   104    20    21   ar
   105    20    19    1
   106    63    64    2
   107    19    16    1
   108    70    69    1
   109    70    71    1
   110    14    12   ar
   111    14    13   ar
   112    12    10   ar
   113    13    11   ar
   114    10     9   ar
   115    10     8   ar
   116     9     7   ar
   117    11     8   ar
   118     8     6   ar
   119     7     6   ar
   120     6     5    1
   121    16    17    1
   122    16    15    1
   123    17    18    2
   124    71    72    2
   125     5     2    1
   126     2     1    1
   127     2     3    1
   128     3     4    2
