@<TRIPOS>MOLECULE
tmp/3eysA00.pdb
 79 77 0 0 0
SMALL
GASTEIGER

@<TRIPOS>ATOM
      1  N         16.0550   -6.1800  -26.5370 N.3    31  HIS31      -0.1226
      2  CA        17.1530   -7.0340  -26.1030 C.3    31  HIS31       0.1752
      3  C         18.0730   -7.2360  -27.3070 C.2    31  HIS31       0.2597
      4  O         17.6720   -6.9950  -28.4560 O.2    31  HIS31      -0.2718
      5  CB        16.5980   -8.3720  -25.6000 C.3    31  HIS31       0.0759
      6  CG        17.5450   -9.1620  -24.7460 C.ar   31  HIS31       0.0818
      7  ND1       18.1920  -10.2920  -25.2000 N.ar   31  HIS31      -0.2268
      8  CD2       17.9250   -9.0070  -23.4540 C.ar   31  HIS31       0.1154
      9  CE1       18.9350  -10.7940  -24.2280 C.ar   31  HIS31       0.1986
     10  NE2       18.7940  -10.0300  -23.1580 N.ar   31  HIS31      -0.2212
     11  N         19.3050   -7.6640  -27.0490 N.am   32  SER32      -0.1938
     12  CA        20.2480   -7.9590  -28.1250 C.3    32  SER32       0.2055
     13  C         19.7150   -9.0710  -29.0370 C.2    32  SER32       0.2643
     14  O         20.0220   -9.0870  -30.2310 O.2    32  SER32      -0.2714
     15  CB        21.6150   -8.3300  -27.5520 C.3    32  SER32       0.2130
     16  OG        21.5300   -9.4910  -26.7520 O.3    32  SER32      -0.2179
     17  N         18.9120   -9.9830  -28.4790 N.am   33  ASN33      -0.1971
     18  CA        18.2390  -11.0260  -29.2670 C.3    33  ASN33       0.1688
     19  C         17.1060  -10.5260  -30.1670 C.2    33  ASN33       0.2292
     20  O         16.5590  -11.2930  -30.9610 O.2    33  ASN33      -0.2864
     21  CB        17.7390  -12.1740  -28.3710 C.3    33  ASN33       0.1181
     22  CG        16.5720  -11.7740  -27.4670 C.2    33  ASN33       0.2629
     23  OD1       15.7740  -10.9060  -27.7980 O.2    33  ASN33      -0.2716
     24  ND2       16.4730  -12.4290  -26.3250 N.am   33  ASN33      -0.0877
     25  N         14.0750   -9.1960  -29.2470 N.3    35  ASN35      -0.1240
     26  CA        12.7790   -9.0670  -28.5710 C.3    35  ASN35       0.1653
     27  C         12.7340   -7.8610  -27.6480 C.2    35  ASN35       0.2266
     28  O         13.7600   -7.4340  -27.1130 O.2    35  ASN35      -0.2867
     29  CB        12.4510  -10.3150  -27.7600 C.3    35  ASN35       0.1155
     30  CG        12.3290  -11.5360  -28.6080 C.2    35  ASN35       0.2627
     31  OD1       11.7550  -11.5010  -29.7030 O.2    35  ASN35      -0.2716
     32  ND2       12.8790  -12.6300  -28.1280 N.am   35  ASN35      -0.0877
     33  N         11.1780   -6.9630  -24.2040 N.3    37  TYR37      -0.1241
     34  CA        10.5230   -7.5870  -23.0580 C.3    37  TYR37       0.1605
     35  C          9.8110   -6.5310  -22.2220 C.2    37  TYR37       0.2264
     36  O         10.2530   -6.1620  -21.1330 O.2    37  TYR37      -0.2867
     37  CB        11.4990   -8.4200  -22.2120 C.3    37  TYR37       0.0534
     38  CG        12.1190   -9.5780  -22.9770 C.ar   37  TYR37      -0.0201
     39  CD1       13.3950   -9.4590  -23.5400 C.ar   37  TYR37      -0.0009
     40  CD2       11.4250  -10.7890  -23.1470 C.ar   37  TYR37      -0.0009
     41  CE1       13.9670  -10.5070  -24.2350 C.ar   37  TYR37       0.0417
     42  CE2       11.9950  -11.8480  -23.8430 C.ar   37  TYR37       0.0417
     43  CZ        13.2620  -11.6990  -24.3900 C.ar   37  TYR37       0.1957
     44  OH        13.8380  -12.7530  -25.0820 O.3    37  TYR37      -0.2866
     45  N         11.8640   -6.4020  -18.7980 N.3    96  GLY96      -0.1210
     46  CA        12.6670   -7.5630  -18.4190 C.3    96  GLY96       0.1956
     47  C         13.9440   -7.7140  -19.2390 C.2    96  GLY96       0.2613
     48  O         14.5480   -8.8050  -19.2520 O.2    96  GLY96      -0.2717
     49  N         14.3710   -6.6210  -19.8830 N.am   97  SER97      -0.1938
     50  CA        15.5250   -6.6260  -20.7970 C.3    97  SER97       0.2055
     51  C         16.8670   -6.3170  -20.1460 C.2    97  SER97       0.2643
     52  O         17.8750   -6.8830  -20.5370 O.2    97  SER97      -0.2714
     53  CB        15.3040   -5.6310  -21.9430 C.3    97  SER97       0.2130
     54  OG        14.4330   -6.1830  -22.9090 O.3    97  SER97      -0.2179
     55  N         16.8730   -5.4090  -19.1780 N.am   98  HIS98      -0.1959
     56  CA        18.1070   -4.9180  -18.5740 C.3    98  HIS98       0.1787
     57  C         18.0940   -5.2040  -17.0890 C.2    98  HIS98       0.2620
     58  O         17.0330   -5.1780  -16.4760 O.2    98  HIS98      -0.2715
     59  CB        18.2420   -3.4100  -18.8170 C.3    98  HIS98       0.0785
     60  CG        18.0620   -3.0180  -20.2530 C.ar   98  HIS98       0.0821
     61  ND1       18.9000   -3.4620  -21.2560 N.ar   98  HIS98      -0.2267
     62  CD2       17.1180   -2.2610  -20.8620 C.ar   98  HIS98       0.1154
     63  CE1       18.4880   -2.9830  -22.4180 C.ar   98  HIS98       0.1986
     64  NE2       17.4110   -2.2450  -22.2050 N.ar   98  HIS98      -0.2212
     65  N         19.2630   -5.4780  -16.5110 N.am   99  VAL99      -0.1977
     66  CA        19.4010   -5.6520  -15.0590 C.3    99  VAL99       0.1596
     67  C         19.7430   -4.3010  -14.3970 C.2    99  VAL99       0.2287
     68  O         20.7200   -3.6570  -14.8110 O.2    99  VAL99      -0.2864
     69  CB        20.4980   -6.6880  -14.7290 C.3    99  VAL99       0.0276
     70  CG1       20.7280   -6.8040  -13.2170 C.3    99  VAL99       0.0022
     71  CG2       20.1470   -8.0540  -15.3210 C.3    99  VAL99       0.0022
     72  N         15.8750   -5.7270  -13.5060 N.3   101  LEU101     -0.1245
     73  CA        14.5010   -5.7060  -14.0200 C.3   101  LEU101      0.1561
     74  C         13.7360   -4.6290  -13.2490 C.2   101  LEU101      0.2260
     75  O         13.8990   -4.5030  -12.0310 O.2   101  LEU101     -0.2867
     76  CB        13.8360   -7.0800  -13.8410 C.3   101  LEU101      0.0270
     77  CG        14.6120   -8.3120  -14.3170 C.3   101  LEU101      0.0019
     78  CD1       13.7970   -9.5970  -14.1810 C.3   101  LEU101      0.0001
     79  CD2       15.1300   -8.1530  -15.7560 C.3   101  LEU101      0.0001
@<TRIPOS>BOND
     1    20    19    2
     2    14    13    2
     3    19    18    1
     4    31    30    2
     5    18    17    1
     6    18    21    1
     7    25    26    1
     8    13    17   am
     9    13    12    1
    10    30    32   am
    11    30    29    1
    12    26    29    1
    13    26    27    1
    14     4     3    2
    15    21    22    1
    16    12    15    1
    17    12    11    1
    18    23    22    2
    19    27    28    2
    20    15    16    1
    21    22    24   am
    22     3    11   am
    23     3     2    1
    24     1     2    1
    25     2     5    1
    26     5     6    1
    27     7     6   ar
    28     7     9   ar
    29    44    43    1
    30     6     8   ar
    31    43    41   ar
    32    43    42   ar
    33    41    39   ar
    34     9    10   ar
    35    33    34    1
    36    42    40   ar
    37    39    38   ar
    38     8    10   ar
    39    40    38   ar
    40    34    35    1
    41    34    37    1
    42    38    37    1
    43    54    53    1
    44    63    64   ar
    45    63    61   ar
    46    35    36    2
    47    64    62   ar
    48    53    50    1
    49    61    60   ar
    50    62    60   ar
    51    50    51    1
    52    50    49    1
    53    52    51    2
    54    60    59    1
    55    51    55   am
    56    49    47   am
    57    48    47    2
    58    47    46    1
    59    55    56    1
    60    59    56    1
    61    45    46    1
    62    56    57    1
    63    57    65   am
    64    57    58    2
    65    65    66    1
    66    79    77    1
    67    71    69    1
    68    66    69    1
    69    66    67    1
    70    68    67    2
    71    69    70    1
    72    77    78    1
    73    77    76    1
    74    73    76    1
    75    73    72    1
    76    73    74    1
    77    74    75    2
