@<TRIPOS>MOLECULE
tmp/3eyuA00.pdb
 95 92 0 0 0
SMALL
GASTEIGER

@<TRIPOS>ATOM
      1  N         23.2930  -14.3940  -40.8820 N.3    30  VAL30      -0.1231
      2  CA        23.6960  -15.3870  -41.8760 C.3    30  VAL30       0.1692
      3  C         24.9400  -16.1110  -41.3710 C.2    30  VAL30       0.2592
      4  O         26.0410  -15.5480  -41.3390 O.2    30  VAL30      -0.2718
      5  CB        24.0020  -14.7510  -43.2820 C.3    30  VAL30       0.0266
      6  CG1       24.0830  -15.8380  -44.3610 C.3    30  VAL30       0.0020
      7  CG2       22.9760  -13.6850  -43.6640 C.3    30  VAL30       0.0020
      8  N         24.7380  -17.3520  -40.9440 N.am   31  HIS31      -0.1962
      9  CA        25.8160  -18.2540  -40.5760 C.3    31  HIS31       0.1787
     10  C         26.6790  -18.4680  -41.8260 C.2    31  HIS31       0.2621
     11  O         26.1980  -18.3140  -42.9560 O.2    31  HIS31      -0.2715
     12  CB        25.2000  -19.5680  -40.0910 C.3    31  HIS31       0.0785
     13  CG        26.1650  -20.5060  -39.4340 C.ar   31  HIS31       0.0821
     14  ND1       27.0000  -21.3390  -40.1480 N.ar   31  HIS31      -0.2267
     15  CD2       26.3960  -20.7740  -38.1240 C.ar   31  HIS31       0.1154
     16  CE1       27.7140  -22.0680  -39.3080 C.ar   31  HIS31       0.1986
     17  NE2       27.3690  -21.7420  -38.0730 N.ar   31  HIS31      -0.2212
     18  N         27.9480  -18.8140  -41.6350 N.am   32  SER32      -0.1936
     19  CA        28.8410  -19.0350  -42.7740 C.3    32  SER32       0.2055
     20  C         28.4560  -20.2710  -43.5900 C.2    32  SER32       0.2643
     21  O         28.9650  -20.4750  -44.6870 O.2    32  SER32      -0.2714
     22  CB        30.3050  -19.1030  -42.3250 C.3    32  SER32       0.2130
     23  OG        30.5350  -20.2330  -41.5090 O.3    32  SER32      -0.2179
     24  N         27.5470  -21.0850  -43.0660 N.am   33  ASN33      -0.1971
     25  CA        27.1330  -22.2920  -43.7750 C.3    33  ASN33       0.1688
     26  C         26.0950  -22.0080  -44.8510 C.2    33  ASN33       0.2292
     27  O         25.9200  -22.8110  -45.7690 O.2    33  ASN33      -0.2864
     28  CB        26.6810  -23.4120  -42.8090 C.3    33  ASN33       0.1181
     29  CG        25.2710  -23.2100  -42.2490 C.2    33  ASN33       0.2629
     30  OD1       24.3610  -22.7660  -42.9470 O.2    33  ASN33      -0.2716
     31  ND2       25.0820  -23.5850  -40.9830 N.am   33  ASN33      -0.0877
     32  N         22.8750  -20.4420  -43.8320 N.3    35  ASN35      -0.1240
     33  CA        21.5940  -20.2620  -43.1670 C.3    35  ASN35       0.1653
     34  C         21.5490  -19.0970  -42.2110 C.2    35  ASN35       0.2266
     35  O         22.5590  -18.7180  -41.6300 O.2    35  ASN35      -0.2867
     36  CB        21.2020  -21.5300  -42.4170 C.3    35  ASN35       0.1155
     37  CG        20.8860  -22.6830  -43.3470 C.2    35  ASN35       0.2627
     38  OD1       20.1940  -22.5120  -44.3610 O.2    35  ASN35      -0.2716
     39  ND2       21.3910  -23.8720  -43.0100 N.am   35  ASN35      -0.0877
     40  N         19.8740  -18.3820  -38.8510 N.3    37  TYR37      -0.1241
     41  CA        19.2320  -19.0220  -37.7030 C.3    37  TYR37       0.1605
     42  C         18.5360  -17.9870  -36.8530 C.2    37  TYR37       0.2264
     43  O         19.0010  -17.6410  -35.7740 O.2    37  TYR37      -0.2867
     44  CB        20.2550  -19.8150  -36.8770 C.3    37  TYR37       0.0534
     45  CG        20.8760  -20.9600  -37.6510 C.ar   37  TYR37      -0.0201
     46  CD1       22.1170  -20.8190  -38.2640 C.ar   37  TYR37      -0.0009
     47  CD2       20.2060  -22.1840  -37.7850 C.ar   37  TYR37      -0.0009
     48  CE1       22.6810  -21.8670  -38.9820 C.ar   37  TYR37       0.0417
     49  CE2       20.7600  -23.2360  -38.4960 C.ar   37  TYR37       0.0417
     50  CZ        21.9960  -23.0710  -39.0940 C.ar   37  TYR37       0.1957
     51  OH        22.5560  -24.1140  -39.8030 O.3    37  TYR37      -0.2866
     52  N         15.0040  -17.2990  -35.0140 N.3    39  GLU39      -0.1245
     53  CA        13.8240  -17.9740  -34.5060 C.3    39  GLU39       0.1567
     54  C         12.9230  -17.0270  -33.7320 C.2    39  GLU39       0.2260
     55  O         13.3640  -15.9510  -33.3080 O.2    39  GLU39      -0.2867
     56  CB        14.2540  -19.1320  -33.6220 C.3    39  GLU39       0.0388
     57  CG        14.8650  -20.2760  -34.4090 C.3    39  GLU39       0.1160
     58  CD        16.1480  -20.7980  -33.8000 C.2    39  GLU39       0.3649
     59  OE1       16.1540  -21.1670  -32.6010 O.co2  39  GLU39      -0.2457
     60  OE2       17.1550  -20.8470  -34.5410 O.co2  39  GLU39      -0.2457
     61  N         20.6060  -17.8150  -33.3920 N.3    96  GLY96      -0.1210
     62  CA        21.4070  -18.9720  -33.0150 C.3    96  GLY96       0.1956
     63  C         22.6790  -19.1260  -33.8190 C.2    96  GLY96       0.2613
     64  O         23.2610  -20.2070  -33.8490 O.2    96  GLY96      -0.2717
     65  N         23.1240  -18.0470  -34.4580 N.am   97  SER97      -0.1938
     66  CA        24.2890  -18.1050  -35.3440 C.3    97  SER97       0.2055
     67  C         25.6210  -17.8160  -34.6600 C.2    97  SER97       0.2643
     68  O         26.6430  -18.4320  -34.9950 O.2    97  SER97      -0.2714
     69  CB        24.1100  -17.1660  -36.5330 C.3    97  SER97       0.2130
     70  OG        23.4230  -17.8290  -37.5730 O.3    97  SER97      -0.2179
     71  N         25.5950  -16.8760  -33.7150 N.am   98  HIS98      -0.1959
     72  CA        26.8000  -16.3740  -33.0740 C.3    98  HIS98       0.1787
     73  C         26.8430  -16.7370  -31.5970 C.2    98  HIS98       0.2620
     74  O         25.7940  -16.8770  -30.9580 O.2    98  HIS98      -0.2715
     75  CB        26.8680  -14.8580  -33.2320 C.3    98  HIS98       0.0785
     76  CG        26.7370  -14.3890  -34.6510 C.ar   98  HIS98       0.0821
     77  ND1       27.7120  -14.6070  -35.6040 N.ar   98  HIS98      -0.2267
     78  CD2       25.7450  -13.7100  -35.2770 C.ar   98  HIS98       0.1154
     79  CE1       27.3260  -14.0840  -36.7540 C.ar   98  HIS98       0.1986
     80  NE2       26.1350  -13.5380  -36.5840 N.ar   98  HIS98      -0.2212
     81  N         28.0590  -16.8930  -31.0660 N.am   99  VAL99      -0.1977
     82  CA        28.2790  -17.1240  -29.6310 C.3    99  VAL99       0.1596
     83  C         28.6590  -15.8110  -28.9580 C.2    99  VAL99       0.2287
     84  O         29.6850  -15.2150  -29.3040 O.2    99  VAL99      -0.2864
     85  CB        29.3730  -18.1950  -29.3690 C.3    99  VAL99       0.0276
     86  CG1       29.8740  -18.1450  -27.9200 C.3    99  VAL99       0.0022
     87  CG2       28.8400  -19.5740  -29.6970 C.3    99  VAL99       0.0022
     88  N         24.6370  -17.0510  -27.8680 N.3   101  LEU101     -0.1245
     89  CA        23.2610  -17.0090  -28.3570 C.3   101  LEU101      0.1561
     90  C         22.4650  -15.9140  -27.6360 C.2   101  LEU101      0.2260
     91  O         22.5140  -15.8170  -26.4030 O.2   101  LEU101     -0.2867
     92  CB        22.6010  -18.3700  -28.1610 C.3   101  LEU101      0.0270
     93  CG        23.2890  -19.5840  -28.7910 C.3   101  LEU101      0.0019
     94  CD1       22.4010  -20.8330  -28.6850 C.3   101  LEU101      0.0001
     95  CD2       23.6440  -19.3000  -30.2430 C.3   101  LEU101      0.0001
@<TRIPOS>BOND
     1    27    26    2
     2    26    25    1
     3    21    20    2
     4     6     5    1
     5    38    37    2
     6    32    33    1
     7    25    24    1
     8    25    28    1
     9     7     5    1
    10    20    24   am
    11    20    19    1
    12    37    39   am
    13    37    36    1
    14     5     2    1
    15    33    36    1
    16    33    34    1
    17    11    10    2
    18    30    29    2
    19    28    29    1
    20    19    22    1
    21    19    18    1
    22    22    23    1
    23    29    31   am
    24    34    35    2
    25     2     3    1
    26     2     1    1
    27    10    18   am
    28    10     9    1
    29     3     4    2
    30     3     8   am
    31     8     9    1
    32     9    12    1
    33    14    13   ar
    34    14    16   ar
    35    12    13    1
    36    51    50    1
    37    13    15   ar
    38    16    17   ar
    39    50    48   ar
    40    50    49   ar
    41    48    46   ar
    42    40    41    1
    43    49    47   ar
    44    46    45   ar
    45    15    17   ar
    46    47    45   ar
    47    41    44    1
    48    41    42    1
    49    45    44    1
    50    70    69    1
    51    42    43    2
    52    79    80   ar
    53    79    77   ar
    54    80    78   ar
    55    69    66    1
    56    77    76   ar
    57    66    67    1
    58    66    65    1
    59    78    76   ar
    60    52    53    1
    61    68    67    2
    62    67    71   am
    63    76    75    1
    64    60    58   ar
    65    53    54    1
    66    53    56    1
    67    65    63   am
    68    57    58    1
    69    57    56    1
    70    64    63    2
    71    63    62    1
    72    58    59   ar
    73    54    55    2
    74    71    72    1
    75    61    62    1
    76    75    72    1
    77    72    73    1
    78    73    81   am
    79    73    74    2
    80    81    82    1
    81    95    93    1
    82    87    85    1
    83    82    85    1
    84    82    83    1
    85    85    86    1
    86    84    83    2
    87    93    94    1
    88    93    92    1
    89    89    92    1
    90    89    88    1
    91    89    90    1
    92    90    91    2
