@<TRIPOS>MOLECULE
tmp/3eyvB00.pdb
 110 110 0 0 0
SMALL
GASTEIGER

@<TRIPOS>ATOM
      1  N         -8.9640   30.0380   -0.9200 N.3    31  ASP31      -0.1225
      2  CA        -8.7740   31.4830   -1.0240 C.3    31  ASP31       0.1805
      3  C         -7.3370   31.9190   -0.7030 C.2    31  ASP31       0.2598
      4  O         -6.9770   33.0680   -0.9500 O.2    31  ASP31      -0.2718
      5  CB        -9.7480   32.2200   -0.0760 C.3    31  ASP31       0.1424
      6  CG       -11.2050   32.1480   -0.5330 C.2    31  ASP31       0.3668
      7  OD1      -11.5790   31.1620   -1.2020 O.co2  31  ASP31      -0.2456
      8  OD2      -11.9920   33.0680   -0.2070 O.co2  31  ASP31      -0.2456
      9  N         -6.5080   31.0030   -0.1980 N.am   32  TYR32      -0.1962
     10  CA        -5.1480   31.3670    0.2080 C.3    32  TYR32       0.1771
     11  C         -3.9230   30.7490   -0.4740 C.2    32  TYR32       0.2619
     12  O         -3.8730   29.5550   -0.7670 O.2    32  TYR32      -0.2715
     13  CB        -4.9780   31.1200    1.7130 C.3    32  TYR32       0.0574
     14  CG        -5.8810   31.9180    2.6350 C.ar   32  TYR32      -0.0198
     15  CD1       -7.2220   31.5710    2.8180 C.ar   32  TYR32      -0.0009
     16  CD2       -5.3830   33.0070    3.3460 C.ar   32  TYR32      -0.0009
     17  CE1       -8.0430   32.2900    3.6920 C.ar   32  TYR32       0.0417
     18  CE2       -6.1910   33.7340    4.2140 C.ar   32  TYR32       0.0417
     19  CZ        -7.5170   33.3730    4.3860 C.ar   32  TYR32       0.1957
     20  OH        -8.3030   34.1050    5.2450 O.3    32  TYR32      -0.2866
     21  N         -2.9210   31.5940   -0.6990 N.am   33  TYR33      -0.1974
     22  CA        -1.6430   31.1600   -1.2530 C.3    33  TYR33       0.1639
     23  C         -1.0340   30.4160   -0.0620 C.2    33  TYR33       0.2290
     24  O         -1.1110   30.9070    1.0630 O.2    33  TYR33      -0.2864
     25  CB        -0.7510   32.3700   -1.5790 C.3    33  TYR33       0.0560
     26  CG        -0.8260   32.9090   -2.9940 C.ar   33  TYR33      -0.0198
     27  CD1       -2.0480   33.2610   -3.5760 C.ar   33  TYR33      -0.0009
     28  CD2        0.3420   33.1280   -3.7300 C.ar   33  TYR33      -0.0009
     29  CE1       -2.1060   33.8230   -4.8530 C.ar   33  TYR33       0.0417
     30  CE2        0.2970   33.6870   -5.0030 C.ar   33  TYR33       0.0417
     31  CZ        -0.9280   34.0350   -5.5580 C.ar   33  TYR33       0.1957
     32  OH        -0.9550   34.6070   -6.8100 O.3    33  TYR33      -0.2866
     33  N          2.3750   28.1720    1.7610 N.3    35  TYR35      -0.1241
     34  CA         3.8350   28.2290    1.7540 C.3    35  TYR35       0.1605
     35  C          4.4790   27.0700    2.4860 C.2    35  TYR35       0.2264
     36  O          3.8510   26.4240    3.3080 O.2    35  TYR35      -0.2867
     37  CB         4.3220   29.5050    2.4530 C.3    35  TYR35       0.0534
     38  CG         3.8220   30.8010    1.8790 C.ar   35  TYR35      -0.0201
     39  CD1        4.4300   31.3750    0.7680 C.ar   35  TYR35      -0.0009
     40  CD2        2.7520   31.4710    2.4620 C.ar   35  TYR35      -0.0009
     41  CE1        3.9830   32.5930    0.2520 C.ar   35  TYR35       0.0417
     42  CE2        2.3020   32.6860    1.9540 C.ar   35  TYR35       0.0417
     43  CZ         2.9220   33.2350    0.8540 C.ar   35  TYR35       0.1957
     44  OH         2.4800   34.4290    0.3530 O.3    35  TYR35      -0.2866
     45  N          6.0510   28.4800   -2.6110 N.3    50  TYR50      -0.1241
     46  CA         4.7440   29.0930   -2.4890 C.3    50  TYR50       0.1605
     47  C          3.8890   28.6450   -3.6740 C.2    50  TYR50       0.2264
     48  O          4.4100   28.2320   -4.7120 O.2    50  TYR50      -0.2867
     49  CB         4.8540   30.6230   -2.4120 C.3    50  TYR50       0.0534
     50  CG         4.9170   31.3650   -3.7210 C.ar   50  TYR50      -0.0201
     51  CD1        3.8220   31.4030   -4.5770 C.ar   50  TYR50      -0.0009
     52  CD2        6.0710   32.0560   -4.0950 C.ar   50  TYR50      -0.0009
     53  CE1        3.8690   32.1080   -5.7730 C.ar   50  TYR50       0.0417
     54  CE2        6.1290   32.7650   -5.2910 C.ar   50  TYR50       0.0417
     55  CZ         5.0240   32.7860   -6.1250 C.ar   50  TYR50       0.1957
     56  OH         5.0690   33.4750   -7.3140 O.3    50  TYR50      -0.2866
     57  N         -3.5300   30.3490   -4.7400 N.3    53  ASN53      -0.1240
     58  CA        -4.7710   29.6850   -4.3320 C.3    53  ASN53       0.1653
     59  C         -5.3460   28.9300   -5.5400 C.2    53  ASN53       0.2266
     60  O         -5.8150   27.7900   -5.4200 O.2    53  ASN53      -0.2867
     61  CB        -5.7590   30.7340   -3.8210 C.3    53  ASN53       0.1155
     62  CG        -6.1170   31.7590   -4.8800 C.2    53  ASN53       0.2627
     63  OD1       -7.2420   31.7750   -5.3810 O.2    53  ASN53      -0.2716
     64  ND2       -5.1600   32.6150   -5.2360 N.am   53  ASN53      -0.0877
     65  N         -0.7930   32.9340    5.0970 N.3    99  GLY99      -0.1210
     66  CA        -0.7940   34.3470    5.4580 C.3    99  GLY99       0.1956
     67  C         -2.1590   34.9600    5.7540 C.2    99  GLY99       0.2613
     68  O         -3.0930   34.2880    6.1820 O.2    99  GLY99      -0.2717
     69  N         -2.2760   36.2610    5.5380 N.am  100  THR100     -0.1938
     70  CA        -3.5390   36.9430    5.7690 C.3   100  THR100      0.2028
     71  C         -3.9010   37.7040    4.5040 C.2   100  THR100      0.2642
     72  O         -3.0180   38.0770    3.7240 O.2   100  THR100     -0.2714
     73  CB        -3.4410   37.9360    6.9500 C.3   100  THR100      0.1808
     74  OG1       -2.4010   38.8930    6.6900 O.3   100  THR100     -0.2208
     75  CG2       -3.1590   37.1810    8.2590 C.3   100  THR100      0.0379
     76  N         -5.1980   37.9250    4.3010 N.am  101  ARG101     -0.1977
     77  CA        -5.6700   38.6360    3.1230 C.3   101  ARG101      0.1597
     78  C         -5.0570   40.0320    3.0280 C.2   101  ARG101      0.2287
     79  O         -4.8480   40.5500    1.9300 O.2   101  ARG101     -0.2864
     80  CB        -7.2040   38.7220    3.1440 C.3   101  ARG101      0.0334
     81  CG        -7.9060   37.3530    3.0680 C.3   101  ARG101      0.0492
     82  CD        -9.4260   37.4560    3.2570 C.3   101  ARG101      0.2205
     83  NE       -10.0670   36.1490    3.4260 N.pl3 101  ARG101     -0.0865
     84  CZ       -10.3240   35.3000    2.4320 C.cat 101  ARG101      0.5346
     85  NH1      -10.9060   34.1300    2.6800 N.pl3 101  ARG101      0.1354
     86  NH2      -10.0140   35.6270    1.1840 N.pl3 101  ARG101      0.1354
     87  N         -1.9040   41.1030    3.6960 N.3   103  GLY103     -0.1210
     88  CA        -0.4690   41.3000    3.5790 C.3   103  GLY103      0.1956
     89  C          0.6160   40.5000    4.2740 C.2   103  GLY103      0.2613
     90  O          1.7760   40.6110    3.8760 O.2   103  GLY103     -0.2717
     91  N          0.3020   39.7190    5.2980 N.am  104  SER104     -0.1938
     92  CA         1.3620   38.9610    5.9410 C.3   104  SER104      0.2055
     93  C          1.5570   37.6060    5.2720 C.2   104  SER104      0.2643
     94  O          0.6190   37.0100    4.7350 O.2   104  SER104     -0.2714
     95  CB         1.0870   38.7760    7.4320 C.3   104  SER104      0.2130
     96  OG        -0.0380   37.9530    7.6490 O.3   104  SER104     -0.2179
     97  N          2.7990   37.1410    5.3030 N.am  105  TRP105     -0.1973
     98  CA         3.1740   35.8710    4.7120 C.3   105  TRP105      0.1640
     99  C          2.8980   34.6600    5.5940 C.2   105  TRP105      0.2290
    100  O          2.1600   33.7550    5.2120 O.2   105  TRP105     -0.2864
    101  CB         4.6660   35.8860    4.3630 C.3   105  TRP105      0.0576
    102  CG         4.9600   36.2500    2.9460 C.ar  105  TRP105      0.0006
    103  CD1        5.5700   35.4660    2.0120 C.ar  105  TRP105      0.0946
    104  CD2        4.6670   37.4910    2.3020 C.ar  105  TRP105      0.0152
    105  NE1        5.6790   36.1440    0.8250 N.ar  105  TRP105     -0.2442
    106  CE2        5.1340   37.3910    0.9750 C.ar  105  TRP105      0.0810
    107  CE3        4.0550   38.6820    2.7170 C.ar  105  TRP105      0.0012
    108  CZ2        5.0110   38.4360    0.0600 C.ar  105  TRP105      0.0191
    109  CZ3        3.9330   39.7170    1.8120 C.ar  105  TRP105      0.0001
    110  CH2        4.4090   39.5910    0.4970 C.ar  105  TRP105      0.0015
@<TRIPOS>BOND
     1    56    55    1
     2    32    31    1
     3    55    53   ar
     4    55    54   ar
     5    53    51   ar
     6    31    30   ar
     7    31    29   ar
     8    59    60    2
     9    59    58    1
    10    63    62    2
    11    54    52   ar
    12    64    62   am
    13    30    28   ar
    14    62    61    1
    15    29    27   ar
    16    57    58    1
    17    48    47    2
    18    51    50   ar
    19    58    61    1
    20    52    50   ar
    21    28    26   ar
    22    50    49    1
    23    47    46    1
    24    27    26   ar
    25    26    25    1
    26    45    46    1
    27    46    49    1
    28    25    22    1
    29    22    21    1
    30    22    23    1
    31     7     6   ar
    32     2     1    1
    33     2     3    1
    34     2     5    1
    35     4     3    2
    36    12    11    2
    37     3     9   am
    38    21    11   am
    39     6     8   ar
    40     6     5    1
    41    11    10    1
    42     9    10    1
    43    23    24    2
    44   108   110   ar
    45   108   106   ar
    46    10    13    1
    47    41    39   ar
    48    41    43   ar
    49    44    43    1
    50   110   109   ar
    51    39    38   ar
    52   105   106   ar
    53   105   103   ar
    54    43    42   ar
    55   106   104   ar
    56    86    84    1
    57    13    14    1
    58    34    33    1
    59    34    37    1
    60    34    35    1
    61   109   107   ar
    62    38    37    1
    63    38    40   ar
    64    79    78    2
    65    42    40   ar
    66   103   102   ar
    67   104   107   ar
    68   104   102   ar
    69    84    85    1
    70    84    83    2
    71    35    36    2
    72    14    15   ar
    73    14    16   ar
    74    15    17   ar
    75   102   101    1
    76    78    77    1
    77    81    80    1
    78    81    82    1
    79    77    80    1
    80    77    76    1
    81    82    83    1
    82    16    18   ar
    83    88    87    1
    84    88    89    1
    85    17    19   ar
    86    72    71    2
    87    90    89    2
    88    18    19   ar
    89    89    91   am
    90    76    71   am
    91   101    98    1
    92    19    20    1
    93    71    70    1
    94    98    97    1
    95    98    99    1
    96    94    93    2
    97    65    66    1
    98   100    99    2
    99    93    97   am
   100    93    92    1
   101    91    92    1
   102    66    67    1
   103    69    67   am
   104    69    70    1
   105    67    68    2
   106    70    73    1
   107    92    95    1
   108    74    73    1
   109    73    75    1
   110    95    96    1
