@<TRIPOS>MOLECULE
tmp/3ez0D00.pdb
 93 88 0 0 0
SMALL
GASTEIGER

@<TRIPOS>ATOM
      1  N        -18.9500   87.0870    3.9080 N.3   101  VAL101     -0.1231
      2  CA       -18.5970   86.0200    2.9330 C.3   101  VAL101      0.1692
      3  C        -19.3590   84.6820    3.1980 C.2   101  VAL101      0.2592
      4  O        -19.8430   84.0050    2.2820 O.2   101  VAL101     -0.2718
      5  CB       -17.0660   85.7540    2.9320 C.3   101  VAL101      0.0266
      6  CG1      -16.7250   84.5790    2.0340 C.3   101  VAL101      0.0020
      7  CG2      -16.3270   86.9740    2.4690 C.3   101  VAL101      0.0020
      8  N        -19.4670   84.3120    4.4640 N.am  102  SER102     -0.1952
      9  CA       -20.1730   83.0840    4.8290 C.3   102  SER102      0.1924
     10  C        -21.7030   83.1950    4.5190 C.2   102  SER102      0.2314
     11  O        -22.3110   82.2260    4.0430 O.2   102  SER102     -0.2863
     12  CB       -19.8980   82.7180    6.2880 C.3   102  SER102      0.2116
     13  OG       -20.3730   83.7180    7.1730 O.3   102  SER102     -0.2180
     14  N        -22.0330   82.7040    0.9060 N.3   105  PHE105     -0.1227
     15  CA       -21.8630   81.2740    0.7060 C.3   105  PHE105      0.1736
     16  C        -23.1820   80.5110    0.9090 C.2   105  PHE105      0.2595
     17  O        -23.6220   79.7680    0.0120 O.2   105  PHE105     -0.2718
     18  CB       -20.7540   80.7390    1.6420 C.3   105  PHE105      0.0547
     19  CG       -20.5920   79.2590    1.5960 C.ar  105  PHE105     -0.0202
     20  CD1      -19.9490   78.6550    0.5210 C.ar  105  PHE105     -0.0042
     21  CD2      -21.0860   78.4690    2.6190 C.ar  105  PHE105     -0.0042
     22  CE1      -19.8020   77.2720    0.4580 C.ar  105  PHE105     -0.0003
     23  CE2      -20.9470   77.0900    2.5770 C.ar  105  PHE105     -0.0003
     24  CZ       -20.3040   76.4790    1.4900 C.ar  105  PHE105     -0.0000
     25  N        -23.8290   80.7290    2.0550 N.am  106  TYR106     -0.1976
     26  CA       -25.0800   80.0250    2.3630 C.3   106  TYR106      0.1639
     27  C        -26.1600   80.3480    1.3470 C.2   106  TYR106      0.2290
     28  O        -26.8820   79.4510    0.9330 O.2   106  TYR106     -0.2864
     29  CB       -25.5490   80.2790    3.7980 C.3   106  TYR106      0.0560
     30  CG       -24.5540   79.8050    4.8670 C.ar  106  TYR106     -0.0198
     31  CD1      -23.8810   78.6050    4.7380 C.ar  106  TYR106     -0.0009
     32  CD2      -24.3160   80.5530    6.0130 C.ar  106  TYR106     -0.0009
     33  CE1      -22.9600   78.1860    5.6970 C.ar  106  TYR106      0.0417
     34  CE2      -23.4170   80.1380    6.9690 C.ar  106  TYR106      0.0417
     35  CZ       -22.7330   78.9510    6.8050 C.ar  106  TYR106      0.1957
     36  OH       -21.8220   78.5080    7.7550 O.3   106  TYR106     -0.2866
     37  N         -8.7590   87.8270    2.4130 N.3   156  LEU156     -0.1245
     38  CA        -9.2480   87.2060    1.1640 C.3   156  LEU156      0.1561
     39  C         -8.2430   86.1810    0.6360 C.2   156  LEU156      0.2260
     40  O         -8.6230   85.0640    0.2990 O.2   156  LEU156     -0.2867
     41  CB        -9.5330   88.2690    0.1050 C.3   156  LEU156      0.0270
     42  CG        -9.9740   87.8670   -1.3230 C.3   156  LEU156      0.0019
     43  CD1      -11.3070   87.1450   -1.3740 C.3   156  LEU156      0.0001
     44  CD2      -10.0290   89.1140   -2.1840 C.3   156  LEU156      0.0001
     45  N         -8.0190   82.9570    2.8600 N.3   159  ALA159     -0.1231
     46  CA        -9.2640   82.1600    2.7330 C.3   159  ALA159      0.1694
     47  C         -9.3040   81.4020    1.4020 C.2   159  ALA159      0.2591
     48  O         -9.5810   80.2140    1.3660 O.2   159  ALA159     -0.2718
     49  CB       -10.4850   83.0560    2.8650 C.3   159  ALA159      0.0304
     50  N         -9.0110   82.0920    0.3090 N.am  160  LEU160     -0.1980
     51  CA        -8.9660   81.4680   -1.0250 C.3   160  LEU160      0.1596
     52  C         -7.9510   80.3250   -1.1170 C.2   160  LEU160      0.2287
     53  O         -8.2090   79.3240   -1.7570 O.2   160  LEU160     -0.2864
     54  CB        -8.6130   82.5160   -2.1040 C.3   160  LEU160      0.0297
     55  CG        -9.6470   83.5450   -2.5750 C.3   160  LEU160      0.0022
     56  CD1       -8.9170   84.5900   -3.4770 C.3   160  LEU160      0.0001
     57  CD2      -10.8370   82.8880   -3.3330 C.3   160  LEU160      0.0001
     58  N         -9.5960   77.3840    0.5240 N.3   163  ALA163     -0.1245
     59  CA       -10.7100   76.8590   -0.2930 C.3   163  ALA163      0.1562
     60  C        -10.1480   75.9660   -1.3960 C.2   163  ALA163      0.2260
     61  O        -10.6440   74.8640   -1.6540 O.2   163  ALA163     -0.2867
     62  CB       -11.5440   77.9800   -0.8970 C.3   163  ALA163      0.0290
     63  N        -16.8070   80.2920   -5.9430 N.3   188  ILE188     -0.1245
     64  CA       -15.7330   80.9410   -5.2130 C.3   188  ILE188      0.1561
     65  C        -15.4550   82.3230   -5.7710 C.2   188  ILE188      0.2260
     66  O        -15.4290   83.3020   -5.0240 O.2   188  ILE188     -0.2867
     67  CB       -14.4470   80.0830   -5.2350 C.3   188  ILE188      0.0252
     68  CG1      -14.6010   78.8850   -4.2800 C.3   188  ILE188      0.0019
     69  CG2      -13.2470   80.8840   -4.7780 C.3   188  ILE188      0.0019
     70  CD1      -13.4250   77.9080   -4.3130 C.3   188  ILE188      0.0001
     71  N        -17.9960   84.8900   -4.7090 N.3   191  LEU191     -0.1231
     72  CA       -17.7850   85.3090   -3.3130 C.3   191  LEU191      0.1693
     73  C        -16.6900   86.3880   -3.2290 C.2   191  LEU191      0.2591
     74  O        -16.8230   87.3460   -2.4760 O.2   191  LEU191     -0.2718
     75  CB       -17.3970   84.1180   -2.4350 C.3   191  LEU191      0.0284
     76  CG       -18.4060   82.9830   -2.2850 C.3   191  LEU191      0.0019
     77  CD1      -17.8050   81.8220   -1.4930 C.3   191  LEU191      0.0001
     78  CD2      -19.6660   83.4770   -1.6350 C.3   191  LEU191      0.0001
     79  N        -15.6230   86.2220   -4.0130 N.am  192  ALA192     -0.1980
     80  CA       -14.4990   87.1710   -4.0710 C.3   192  ALA192      0.1597
     81  C        -14.9640   88.5050   -4.5500 C.2   192  ALA192      0.2287
     82  O        -14.5770   89.5270   -3.9880 O.2   192  ALA192     -0.2864
     83  CB       -13.4110   86.6720   -5.0080 C.3   192  ALA192      0.0319
     84  N        -17.0650   90.3420   -2.0240 N.3   195  HIS195     -0.1241
     85  CA       -16.1520   90.8070   -0.9900 C.3   195  HIS195      0.1621
     86  C        -15.5190   92.1480   -1.3850 C.2   195  HIS195      0.2264
     87  O        -15.5430   93.1300   -0.6290 O.2   195  HIS195     -0.2867
     88  CB       -15.0590   89.7800   -0.7740 C.3   195  HIS195      0.0745
     89  CG       -13.9480   90.2760    0.0860 C.ar  195  HIS195      0.0817
     90  ND1      -14.0280   90.2970    1.4550 N.ar  195  HIS195     -0.2268
     91  CD2      -12.7540   90.8170   -0.2310 C.ar  195  HIS195      0.1154
     92  CE1      -12.9260   90.8240    1.9450 C.ar  195  HIS195      0.1986
     93  NE2      -12.1380   91.1510    0.9430 N.ar  195  HIS195     -0.2212
@<TRIPOS>BOND
     1    63    64    1
     2    65    64    1
     3    65    66    2
     4    67    64    1
     5    67    69    1
     6    67    68    1
     7    83    80    1
     8    71    72    1
     9    81    80    1
    10    81    82    2
    11    70    68    1
    12    80    79    1
    13    79    73   am
    14    56    55    1
    15    57    55    1
    16    72    73    1
    17    72    75    1
    18    73    74    2
    19    55    54    1
    20    75    76    1
    21    76    78    1
    22    76    77    1
    23    44    42    1
    24    54    51    1
    25    84    85    1
    26    53    52    2
    27    61    60    2
    28    60    59    1
    29    86    85    1
    30    86    87    2
    31    43    42    1
    32    42    41    1
    33    52    51    1
    34    51    50    1
    35    85    88    1
    36    62    59    1
    37    88    89    1
    38    59    58    1
    39    91    89   ar
    40    91    93   ar
    41    17    16    2
    42    89    90   ar
    43    41    38    1
    44    40    39    2
    45    50    47   am
    46    22    20   ar
    47    22    24   ar
    48    20    19   ar
    49    39    38    1
    50    15    14    1
    51    15    16    1
    52    15    18    1
    53    16    25   am
    54    28    27    2
    55    93    92   ar
    56    38    37    1
    57    27    26    1
    58    48    47    2
    59    47    46    1
    60    90    92   ar
    61    24    23   ar
    62    19    18    1
    63    19    21   ar
    64     6     5    1
    65    25    26    1
    66     4     3    2
    67    26    29    1
    68     7     5    1
    69    23    21   ar
    70    46    45    1
    71    46    49    1
    72     5     2    1
    73     2     3    1
    74     2     1    1
    75     3     8   am
    76    29    30    1
    77    11    10    2
    78     8     9    1
    79    10     9    1
    80    31    30   ar
    81    31    33   ar
    82     9    12    1
    83    30    32   ar
    84    33    35   ar
    85    32    34   ar
    86    12    13    1
    87    35    34   ar
    88    35    36    1
