@<TRIPOS>MOLECULE
tmp/3ez0A00.pdb
 103 96 0 0 0
SMALL
GASTEIGER

@<TRIPOS>ATOM
      1  N         10.8100   95.5830   60.8310 N.3    16  LEU16      -0.1245
      2  CA        10.8680   94.1310   60.9310 C.3    16  LEU16       0.1561
      3  C         11.0630   93.6830   62.3710 C.2    16  LEU16       0.2260
      4  O         10.3170   92.8480   62.8570 O.2    16  LEU16      -0.2867
      5  CB        12.0180   93.5780   60.0830 C.3    16  LEU16       0.0270
      6  CG        12.2050   92.0660   60.1400 C.3    16  LEU16       0.0019
      7  CD1       11.0060   91.3530   59.4420 C.3    16  LEU16       0.0001
      8  CD2       13.5270   91.6740   59.5410 C.3    16  LEU16       0.0001
      9  N          9.2640   91.7460   67.6140 N.3    19  ALA19      -0.1245
     10  CA         9.2810   91.9390   69.0660 C.3    19  ALA19       0.1562
     11  C          7.8690   91.9030   69.5980 C.2    19  ALA19       0.2260
     12  O          7.5950   91.2010   70.5710 O.2    19  ALA19      -0.2867
     13  CB         9.9860   93.2340   69.4300 C.3    19  ALA19       0.0290
     14  N          5.2220   90.4870   68.1270 N.3    21  GLY21      -0.1210
     15  CA         4.7270   89.1380   67.9110 C.3    21  GLY21       0.1956
     16  C          5.1560   88.2190   69.0380 C.2    21  GLY21       0.2611
     17  O          4.3640   87.4370   69.5730 O.2    21  GLY21      -0.2717
     18  N          6.4240   88.3310   69.3990 N.am   22  GLU22      -0.1979
     19  CA         7.0370   87.5130   70.4460 C.3    22  GLU22       0.1602
     20  C          6.4460   87.7730   71.8310 C.2    22  GLU22       0.2287
     21  O          6.1090   86.8410   72.5480 O.2    22  GLU22      -0.2864
     22  CB         8.5570   87.6970   70.4190 C.3    22  GLU22       0.0415
     23  CG         9.1800   87.1310   69.1110 C.3    22  GLU22       0.1163
     24  CD        10.5170   87.7800   68.6920 C.2    22  GLU22       0.3649
     25  OE1       10.9390   88.7740   69.3320 O.co2  22  GLU22      -0.2457
     26  OE2       11.1480   87.3060   67.7000 O.co2  22  GLU22      -0.2457
     27  N          2.8660   86.3630   71.8680 N.3    25  ALA25      -0.1245
     28  CA         2.9280   84.9110   71.8940 C.3    25  ALA25       0.1562
     29  C          3.3140   84.4210   73.2980 C.2    25  ALA25       0.2260
     30  O          2.7860   83.4440   73.7770 O.2    25  ALA25      -0.2867
     31  CB         3.9260   84.4130   70.8350 C.3    25  ALA25       0.0290
     32  N          9.7670   82.5280   73.8060 N.3    52  GLU52      -0.1245
     33  CA         9.2120   83.6980   73.1270 C.3    52  GLU52       0.1567
     34  C          9.5840   85.0170   73.7880 C.2    52  GLU52       0.2260
     35  O          9.9210   85.9950   73.1090 O.2    52  GLU52      -0.2867
     36  CB         7.6860   83.5950   73.0350 C.3    52  GLU52       0.0388
     37  CG         7.2130   82.5170   72.1040 C.3    52  GLU52       0.1160
     38  CD         7.7720   82.6780   70.7150 C.2    52  GLU52       0.3649
     39  OE1        7.4510   83.6830   70.0690 O.co2  52  GLU52      -0.2457
     40  OE2        8.5290   81.7930   70.2720 O.co2  52  GLU52      -0.2457
     41  N         13.1830   85.7660   73.1110 N.3    55  HIS55      -0.1241
     42  CA        13.3240   86.3490   71.7730 C.3    55  HIS55       0.1621
     43  C         12.9530   87.8230   71.8040 C.2    55  HIS55       0.2264
     44  O         13.6840   88.6650   71.2600 O.2    55  HIS55      -0.2867
     45  CB        12.4470   85.6040   70.7520 C.3    55  HIS55       0.0745
     46  CG        12.8710   84.1920   70.5030 C.ar   55  HIS55       0.0817
     47  ND1       12.0650   83.2810   69.8550 N.ar   55  HIS55      -0.2268
     48  CD2       14.0120   83.5280   70.8290 C.ar   55  HIS55       0.1154
     49  CE1       12.7010   82.1200   69.7680 C.ar   55  HIS55       0.1986
     50  NE2       13.8830   82.2430   70.3530 N.ar   55  HIS55      -0.2212
     51  N          2.1240   78.7830   64.5580 N.3   100  ILE100     -0.1231
     52  CA         2.9200   80.0410   64.7160 C.3   100  ILE100      0.1692
     53  C          4.4480   79.8000   64.7880 C.2   100  ILE100      0.2592
     54  O          5.2280   80.5850   64.2910 O.2   100  ILE100     -0.2718
     55  CB         2.4790   80.8170   65.9990 C.3   100  ILE100      0.0266
     56  CG1        1.0290   81.2950   65.8900 C.3   100  ILE100      0.0019
     57  CG2        3.3680   82.0210   66.2940 C.3   100  ILE100      0.0020
     58  CD1        0.5390   82.0110   67.1280 C.3   100  ILE100      0.0001
     59  N          4.8780   78.7110   65.3920 N.am  101  ASP101     -0.1974
     60  CA         6.3130   78.4050   65.4930 C.3   101  ASP101      0.1709
     61  C          6.9470   78.0250   64.1580 C.2   101  ASP101      0.2293
     62  O          8.1050   78.3350   63.8920 O.2   101  ASP101     -0.2864
     63  CB         6.5190   77.2010   66.4180 C.3   101  ASP101      0.1436
     64  CG         7.8810   77.1810   67.0770 C.2   101  ASP101      0.3671
     65  OD1        8.3950   78.2760   67.4240 O.co2 101  ASP101     -0.2456
     66  OD2        8.4110   76.0610   67.2950 O.co2 101  ASP101     -0.2456
     67  N          6.7010   81.0460   61.4430 N.3   104  SER104     -0.1217
     68  CA         7.7120   82.0570   61.7560 C.3   104  SER104      0.1889
     69  C          9.1220   81.5740   61.3870 C.2   104  SER104      0.2288
     70  O          9.8780   82.3270   60.8290 O.2   104  SER104     -0.2866
     71  CB         7.6560   82.4650   63.2340 C.3   104  SER104      0.2089
     72  OG         8.1610   81.4320   64.0700 O.3   104  SER104     -0.2183
     73  N          9.4690   81.8000   57.6160 N.3   107  PHE107     -0.1227
     74  CA         9.5970   83.2010   57.2550 C.3   107  PHE107      0.1736
     75  C         11.0240   83.6830   57.5050 C.2   107  PHE107      0.2595
     76  O         11.6160   84.3620   56.6650 O.2   107  PHE107     -0.2718
     77  CB         8.6180   84.0010   58.0690 C.3   107  PHE107      0.0547
     78  CG         8.8650   85.4580   58.0480 C.ar  107  PHE107     -0.0202
     79  CD1        8.2340   86.2670   57.1270 C.ar  107  PHE107     -0.0042
     80  CD2        9.6970   86.0350   58.9900 C.ar  107  PHE107     -0.0042
     81  CE1        8.4440   87.6280   57.1280 C.ar  107  PHE107     -0.0003
     82  CE2        9.9160   87.3900   59.0020 C.ar  107  PHE107     -0.0003
     83  CZ         9.2930   88.1910   58.0690 C.ar  107  PHE107     -0.0000
     84  N         11.5970   83.3040   58.6430 N.am  108  TYR108     -0.1976
     85  CA        12.9580   83.7490   58.9620 C.3   108  TYR108      0.1639
     86  C         13.9800   83.2210   57.9640 C.2   108  TYR108      0.2290
     87  O         14.8540   83.9640   57.5480 O.2   108  TYR108     -0.2864
     88  CB        13.3580   83.4230   60.4110 C.3   108  TYR108      0.0560
     89  CG        12.5360   84.1590   61.4430 C.ar  108  TYR108     -0.0198
     90  CD1       12.1250   85.4720   61.2250 C.ar  108  TYR108     -0.0009
     91  CD2       12.1720   83.5460   62.6380 C.ar  108  TYR108     -0.0009
     92  CE1       11.3530   86.1490   62.1520 C.ar  108  TYR108      0.0417
     93  CE2       11.4130   84.2160   63.5830 C.ar  108  TYR108      0.0417
     94  CZ        11.0030   85.5280   63.3320 C.ar  108  TYR108      0.1957
     95  OH        10.2430   86.2330   64.2510 O.3   108  TYR108     -0.2866
     96  N         17.2260   83.6470   67.0670 N.3   126  ILE126     -0.1245
     97  CA        15.8070   83.4930   67.3750 C.3   126  ILE126      0.1561
     98  C         15.1910   82.2580   66.7260 C.2   126  ILE126      0.2260
     99  O         14.1830   81.7310   67.2010 O.2   126  ILE126     -0.2867
    100  CB        15.0240   84.7150   66.8570 C.3   126  ILE126      0.0252
    101  CG1       15.3430   85.9400   67.7090 C.3   126  ILE126      0.0019
    102  CG2       13.5360   84.4670   66.8710 C.3   126  ILE126      0.0019
    103  CD1       14.8430   87.2230   67.0840 C.3   126  ILE126      0.0001
@<TRIPOS>BOND
     1    76    75    2
     2    79    81   ar
     3    79    78   ar
     4    81    83   ar
     5    74    75    1
     6    74    73    1
     7    74    77    1
     8    75    84   am
     9    87    86    2
    10    86    85    1
    11    78    77    1
    12    78    80   ar
    13    83    82   ar
    14    84    85    1
    15    85    88    1
    16    80    82   ar
    17     7     6    1
    18     8     6    1
    19     5     6    1
    20     5     2    1
    21    88    89    1
    22    70    69    2
    23     1     2    1
    24     2     3    1
    25    90    89   ar
    26    90    92   ar
    27    69    68    1
    28    89    91   ar
    29    67    68    1
    30    68    71    1
    31    92    94   ar
    32     3     4    2
    33    91    93   ar
    34    71    72    1
    35    94    93   ar
    36    94    95    1
    37    62    61    2
    38    61    60    1
    39    54    53    2
    40    51    52    1
    41    52    53    1
    42    52    55    1
    43    53    59   am
    44    59    60    1
    45    60    63    1
    46    56    55    1
    47    56    58    1
    48    55    57    1
    49    63    64    1
    50    98    99    2
    51    98    97    1
    52   100   102    1
    53   100    97    1
    54   100   101    1
    55    96    97    1
    56    64    66   ar
    57    64    65   ar
    58   103   101    1
    59     9    10    1
    60    26    24   ar
    61    15    14    1
    62    15    16    1
    63    24    23    1
    64    24    25   ar
    65    16    18   am
    66    16    17    2
    67    10    13    1
    68    10    11    1
    69    23    22    1
    70    18    19    1
    71    11    12    2
    72    49    47   ar
    73    49    50   ar
    74    47    46   ar
    75    39    38   ar
    76    40    38   ar
    77    50    48   ar
    78    22    19    1
    79    19    20    1
    80    46    45    1
    81    46    48   ar
    82    38    37    1
    83    45    42    1
    84    31    28    1
    85    44    43    2
    86    42    43    1
    87    42    41    1
    88    20    21    2
    89    27    28    1
    90    28    29    1
    91    37    36    1
    92    36    33    1
    93    35    34    2
    94    33    34    1
    95    33    32    1
    96    29    30    2
