@<TRIPOS>MOLECULE
tmp/3ez2B01.pdb
 141 137 0 0 0
SMALL
GASTEIGER

@<TRIPOS>ATOM
      1  N         -1.9590   60.5700   51.7110 N.3   114  GLY114     -0.1210
      2  CA        -0.6310   61.1310   51.8590 C.3   114  GLY114      0.1956
      3  C         -0.3190   62.3350   51.0090 C.2   114  GLY114      0.2612
      4  O         -1.0380   62.6240   50.0450 O.2   114  GLY114     -0.2717
      5  N          0.7380   63.0520   51.4040 N.am  115  GLY115     -0.1942
      6  CA         1.1840   64.2310   50.6860 C.3   115  GLY115      0.2014
      7  C          0.2070   65.3880   50.7800 C.2   115  GLY115      0.2639
      8  O          0.2220   66.2840   49.9390 O.2   115  GLY115     -0.2714
      9  N         -0.6510   65.3850   51.7940 N.am  116  VAL116     -0.1963
     10  CA        -1.6190   66.4670   51.9060 C.3   116  VAL116      0.1727
     11  C         -1.1120   67.6180   52.7850 C.2   116  VAL116      0.2617
     12  O         -1.8030   68.6060   52.9390 O.2   116  VAL116     -0.2715
     13  CB        -3.0050   65.9570   52.4450 C.3   116  VAL116      0.0290
     14  CG1       -3.6180   64.9530   51.4400 C.3   116  VAL116      0.0023
     15  CG2       -2.8520   65.3160   53.8570 C.3   116  VAL116      0.0023
     16  N          0.1110   67.4830   53.3090 N.am  117  SER117     -0.1936
     17  CA         0.7570   68.4690   54.1740 C.3   117  SER117      0.2055
     18  C          0.6040   68.1980   55.6790 C.2   117  SER117      0.2643
     19  O          0.7260   69.1200   56.4780 O.2   117  SER117     -0.2714
     20  CB         0.2690   69.8850   53.9010 C.3   117  SER117      0.2130
     21  OG         1.2180   70.7800   54.4410 O.3   117  SER117     -0.2179
     22  N          0.3270   66.9520   56.0670 N.am  118  LYS118     -0.1963
     23  CA         0.2530   66.6250   57.4960 C.3   118  LYS118      0.1728
     24  C          1.5520   67.1060   58.1810 C.2   118  LYS118      0.2617
     25  O          1.5200   67.8280   59.1810 O.2   118  LYS118     -0.2715
     26  CB         0.1100   65.1040   57.7140 C.3   118  LYS118      0.0311
     27  CG        -1.2960   64.5310   57.4050 C.3   118  LYS118      0.0038
     28  CD        -1.4370   63.0660   57.7990 C.3   118  LYS118      0.0206
     29  CE        -0.5350   62.1660   56.9440 C.3   118  LYS118      0.1093
     30  NZ        -0.7270   62.4910   55.5150 N.3   118  LYS118     -0.1314
     31  N          2.6970   66.7300   57.6210 N.am  119  THR119     -0.1937
     32  CA         4.0070   67.1070   58.2040 C.3   119  THR119      0.2028
     33  C          4.3760   68.5960   58.1620 C.2   119  THR119      0.2642
     34  O          4.7100   69.1900   59.2100 O.2   119  THR119     -0.2714
     35  CB         5.1610   66.2770   57.5780 C.3   119  THR119      0.1808
     36  OG1        5.0080   64.9260   57.9940 O.3   119  THR119     -0.2208
     37  CG2        6.5300   66.7570   58.0640 C.3   119  THR119      0.0379
     38  N          4.3070   69.2000   56.9800 N.am  120  VAL120     -0.1977
     39  CA         4.6170   70.6180   56.8550 C.3   120  VAL120      0.1596
     40  C          3.6570   71.4500   57.7260 C.2   120  VAL120      0.2287
     41  O          4.0770   72.4510   58.3120 O.2   120  VAL120     -0.2864
     42  CB         4.5280   71.0880   55.3910 C.3   120  VAL120      0.0276
     43  CG1        4.7340   72.5930   55.3020 C.3   120  VAL120      0.0022
     44  CG2        5.5440   70.3510   54.5320 C.3   120  VAL120      0.0022
     45  N         10.1490   62.6240   58.4310 N.3   152  SER152     -0.1217
     46  CA        10.1030   63.9240   57.7810 C.3   152  SER152      0.1889
     47  C         10.0490   65.0380   58.7990 C.2   152  SER152      0.2288
     48  O         10.7610   66.0350   58.6450 O.2   152  SER152     -0.2866
     49  CB         8.8900   64.0210   56.8600 C.3   152  SER152      0.2089
     50  OG         8.8840   62.8980   56.0170 O.3   152  SER152     -0.2183
     51  N         12.7010   68.1840   59.2200 N.3   156  PHE156     -0.1241
     52  CA        12.3600   69.6020   59.1560 C.3   156  PHE156      0.1605
     53  C         12.7710   70.3660   60.3960 C.2   156  PHE156      0.2264
     54  O         13.2300   71.5190   60.3100 O.2   156  PHE156     -0.2867
     55  CB        10.8590   69.8140   58.9790 C.3   156  PHE156      0.0534
     56  CG        10.4100   69.7990   57.5460 C.ar  156  PHE156     -0.0203
     57  CD1        9.7830   68.6830   57.0150 C.ar  156  PHE156     -0.0042
     58  CD2       10.6140   70.9000   56.7410 C.ar  156  PHE156     -0.0042
     59  CE1        9.3590   68.6650   55.6960 C.ar  156  PHE156     -0.0003
     60  CE2       10.2000   70.8950   55.4240 C.ar  156  PHE156     -0.0003
     61  CZ         9.5690   69.7730   54.9010 C.ar  156  PHE156     -0.0000
     62  N          1.0600   57.8720   56.7960 N.3   250  PRO250     -0.2116
     63  CA        -0.3170   57.6290   56.3440 C.3   250  PRO250      0.1372
     64  C         -0.6390   56.1400   56.3280 C.2   250  PRO250      0.2244
     65  O         -1.1150   55.6070   55.3240 O.2   250  PRO250     -0.2868
     66  CB        -0.3050   58.2020   54.9420 C.3   250  PRO250      0.0268
     67  CG         1.0710   57.7100   54.4580 C.3   250  PRO250      0.0207
     68  CD         1.9690   58.0360   55.6440 C.3   250  PRO250      0.0892
     69  N         -5.6280   72.7280   52.4260 N.3   311  SER311     -0.1202
     70  CA        -4.1640   72.7120   52.3950 C.3   311  SER311      0.2020
     71  C         -3.6690   72.6560   50.9480 C.2   311  SER311      0.2618
     72  O         -4.1830   71.8700   50.1490 O.2   311  SER311     -0.2717
     73  CB        -3.6500   71.4850   53.1610 C.3   311  SER311      0.2103
     74  OG        -2.2440   71.5110   53.2860 O.3   311  SER311     -0.2182
     75  N         -2.6670   73.4790   50.6340 N.am  312  LYS312     -0.1979
     76  CA        -2.0960   73.5730   49.2980 C.3   312  LYS312      0.1596
     77  C         -3.1460   74.0910   48.3130 C.2   312  LYS312      0.2287
     78  O         -3.1710   73.7290   47.1490 O.2   312  LYS312     -0.2864
     79  CB        -1.5320   72.2180   48.8550 C.3   312  LYS312      0.0298
     80  CG        -0.4330   71.7340   49.7960 C.3   312  LYS312      0.0038
     81  CD         0.0850   70.3180   49.5120 C.3   312  LYS312      0.0206
     82  CE         0.9570   70.2810   48.2950 C.3   312  LYS312      0.1093
     83  NZ         1.6680   68.9750   48.2280 N.3   312  LYS312     -0.1314
     84  N         -4.0630   76.9510   54.2570 N.3   339  LEU339     -0.1231
     85  CA        -2.6310   76.9970   53.9630 C.3   339  LEU339      0.1678
     86  C         -2.5790   76.9290   52.4410 C.2   339  LEU339      0.2434
     87  O         -2.8610   75.8970   51.8240 O.2   339  LEU339     -0.2733
     88  CB        -1.8890   75.8010   54.5680 C.3   339  LEU339      0.0284
     89  CG        -1.2970   75.9430   55.9810 C.3   339  LEU339      0.0019
     90  CD1       -0.6650   74.6270   56.3750 C.3   339  LEU339      0.0001
     91  CD2       -0.2380   77.0400   56.0290 C.3   339  LEU339      0.0001
     92  N         -2.2170   78.0400   51.8140 N.am  340  PRO340     -0.2718
     93  CA        -2.1510   78.0870   50.3660 C.3   340  PRO340      0.1535
     94  C         -0.9160   77.4130   49.8250 C.2   340  PRO340      0.2598
     95  O          0.0740   77.2430   50.5360 O.2   340  PRO340     -0.2715
     96  CB        -2.1210   79.5840   50.0860 C.3   340  PRO340      0.0310
     97  CG        -1.1820   80.0660   51.1980 C.3   340  PRO340      0.0237
     98  CD        -1.6560   79.2680   52.4180 C.3   340  PRO340      0.0939
     99  N         -0.9860   77.0190   48.5640 N.am  341  ARG341     -0.1964
    100  CA         0.1820   76.4490   47.9040 C.3   341  ARG341      0.1729
    101  C          1.0450   77.7000   47.6220 C.2   341  ARG341      0.2616
    102  O          0.5280   78.7050   47.1250 O.2   341  ARG341     -0.2715
    103  CB        -0.2100   75.7670   46.5710 C.3   341  ARG341      0.0348
    104  CG         1.0040   75.4100   45.7190 C.3   341  ARG341      0.0492
    105  CD         0.6060   74.7140   44.4420 C.3   341  ARG341      0.2205
    106  NE         0.3270   73.3030   44.6610 N.pl3 341  ARG341     -0.0865
    107  CZ         1.2630   72.3880   44.8860 C.cat 341  ARG341      0.5346
    108  NH1        0.9200   71.1220   45.0770 N.pl3 341  ARG341      0.1354
    109  NH2        2.5420   72.7360   44.9130 N.pl3 341  ARG341      0.1354
    110  N          2.3310   77.6710   47.9670 N.am  342  LEU342     -0.1977
    111  CA         3.1980   78.8290   47.7090 C.3   342  LEU342      0.1596
    112  C          4.6260   78.3580   47.3900 C.2   342  LEU342      0.2287
    113  O          5.0560   77.3370   47.9210 O.2   342  LEU342     -0.2864
    114  CB         3.2220   79.7570   48.9310 C.3   342  LEU342      0.0297
    115  CG         2.0100   80.6000   49.3300 C.3   342  LEU342      0.0022
    116  CD1        2.3210   81.3020   50.6770 C.3   342  LEU342      0.0001
    117  CD2        1.7040   81.6350   48.2220 C.3   342  LEU342      0.0001
    118  N          6.9350   77.6620   50.4910 N.3   345  PHE345     -0.1227
    119  CA         6.7870   76.3360   51.0810 C.3   345  PHE345      0.1736
    120  C          7.4900   75.2800   50.2320 C.2   345  PHE345      0.2595
    121  O          8.1590   74.3940   50.7600 O.2   345  PHE345     -0.2718
    122  CB         5.3130   75.9390   51.2010 C.3   345  PHE345      0.0547
    123  CG         4.5940   76.6060   52.3360 C.ar  345  PHE345     -0.0202
    124  CD1        3.4650   77.3810   52.1020 C.ar  345  PHE345     -0.0042
    125  CD2        5.0510   76.4600   53.6470 C.ar  345  PHE345     -0.0042
    126  CE1        2.7920   78.0110   53.1590 C.ar  345  PHE345     -0.0003
    127  CE2        4.3840   77.0890   54.7200 C.ar  345  PHE345     -0.0003
    128  CZ         3.2570   77.8630   54.4770 C.ar  345  PHE345     -0.0000
    129  N          7.3330   75.3490   48.9120 N.am  346  GLU346     -0.1979
    130  CA         7.9870   74.3470   48.0700 C.3   346  GLU346      0.1602
    131  C          9.5110   74.4290   48.1700 C.2   346  GLU346      0.2287
    132  O         10.1790   73.4080   48.3390 O.2   346  GLU346     -0.2864
    133  CB         7.5580   74.4820   46.5910 C.3   346  GLU346      0.0415
    134  CG         6.2210   73.8390   46.2710 C.3   346  GLU346      0.1163
    135  CD         5.7290   74.1190   44.8420 C.2   346  GLU346      0.3649
    136  OE1        6.4880   73.8280   43.8800 O.co2 346  GLU346     -0.2457
    137  OE2        4.5810   74.6230   44.6930 O.co2 346  GLU346     -0.2457
    138  N         10.6970   73.3480   51.5360 N.3   349  GLY349     -0.1225
    139  CA        10.4930   71.9050   51.6490 C.3   349  GLY349      0.1811
    140  C         11.6150   71.0540   51.0520 C.2   349  GLY349      0.2280
    141  O         11.9170   69.9790   51.5710 O.2   349  GLY349     -0.2866
@<TRIPOS>BOND
     1   136   135   ar
     2   105   106    1
     3   105   104    1
     4   106   107    2
     5   137   135   ar
     6   135   134    1
     7   107   109    1
     8   107   108    1
     9   104   103    1
    10   134   133    1
    11   103   100    1
    12   133   130    1
    13   102   101    2
    14    78    77    2
    15   112   111    1
    16   112   113    2
    17   101   100    1
    18   101   110   am
    19   111   110    1
    20   111   114    1
    21   100    99    1
    22   130   131    1
    23   130   129    1
    24   131   132    2
    25   117   115    1
    26    83    82    1
    27    82    81    1
    28    77    76    1
    29    99    94   am
    30    79    76    1
    31    79    80    1
    32   129   120   am
    33   114   115    1
    34    76    75    1
    35   115   116    1
    36    81    80    1
    37    94    93    1
    38    94    95    2
    39     8     7    2
    40     4     3    2
    41    96    93    1
    42    96    97    1
    43    72    71    2
    44   120   121    2
    45   120   119    1
    46    93    92    1
    47   118   119    1
    48    75    71   am
    49     6     7    1
    50     6     5    1
    51     7     9   am
    52    71    70    1
    53     3     5   am
    54     3     2    1
    55   140   141    2
    56   140   139    1
    57   119   122    1
    58    97    98    1
    59   122   123    1
    60    14    13    1
    61   138   139    1
    62     1     2    1
    63     9    10    1
    64    92    98    1
    65    92    86   am
    66    87    86    2
    67    10    13    1
    68    10    11    1
    69   124   123   ar
    70   124   126   ar
    71   123   125   ar
    72    70    69    1
    73    70    73    1
    74    86    85    1
    75    13    15    1
    76    11    12    2
    77    11    16   am
    78   126   128   ar
    79    73    74    1
    80    16    17    1
    81   125   127   ar
    82    20    17    1
    83    20    21    1
    84    85    84    1
    85    85    88    1
    86    17    18    1
    87    67    66    1
    88    67    68    1
    89   128   127   ar
    90    44    42    1
    91    88    89    1
    92    61    60   ar
    93    61    59   ar
    94    66    63    1
    95    43    42    1
    96    65    64    2
    97    42    39    1
    98    60    58   ar
    99    30    29    1
   100    68    62    1
   101    18    22   am
   102    18    19    2
   103    59    57   ar
   104    89    91    1
   105    89    90    1
   106    50    49    1
   107    22    23    1
   108    64    63    1
   109    63    62    1
   110    58    56   ar
   111    39    38    1
   112    39    40    1
   113    49    46    1
   114    29    28    1
   115    38    33   am
   116    57    56   ar
   117    27    26    1
   118    27    28    1
   119    23    26    1
   120    23    24    1
   121    56    55    1
   122    35    36    1
   123    35    37    1
   124    35    32    1
   125    31    24   am
   126    31    32    1
   127    40    41    2
   128    46    45    1
   129    46    47    1
   130    33    32    1
   131    33    34    2
   132    24    25    2
   133    48    47    2
   134    55    52    1
   135    52    51    1
   136    52    53    1
   137    54    53    2
