@<TRIPOS>MOLECULE
tmp/3ez2B03.pdb
 88 87 0 0 0
SMALL
GASTEIGER

@<TRIPOS>ATOM
      1  N         11.1900   65.0740   61.8390 N.3   154  THR154     -0.1203
      2  CA        12.5240   65.1580   62.4500 C.3   154  THR154      0.1994
      3  C         13.4810   65.9470   61.5730 C.2   154  THR154      0.2617
      4  O         14.2390   66.8050   62.0410 O.2   154  THR154     -0.2717
      5  CB        13.1120   63.7470   62.6700 C.3   154  THR154      0.1784
      6  OG1       12.2400   63.0280   63.5440 O.3   154  THR154     -0.2211
      7  CG2       14.5180   63.8130   63.2960 C.3   154  THR154      0.0376
      8  N         13.4300   65.6750   60.2800 N.am  155  MET155     -0.1979
      9  CA        14.3220   66.3580   59.3820 C.3   155  MET155      0.1605
     10  C         13.9840   67.8360   59.2740 C.2   155  MET155      0.2287
     11  O         14.8790   68.6620   59.2300 O.2   155  MET155     -0.2864
     12  CB        14.2970   65.6630   58.0140 C.3   155  MET155      0.0413
     13  CG        14.9630   64.3160   58.0920 C.3   155  MET155      0.0598
     14  SD        15.2120   63.6740   56.4710 S.3   155  MET155     -0.1393
     15  CE        14.0190   62.2940   56.3720 C.3   155  MET155      0.0692
     16  N         15.2070   69.6190   62.8560 N.3   158  SER158     -0.1202
     17  CA        16.6150   69.6990   63.2140 C.3   158  SER158      0.2020
     18  C         17.4620   70.2040   62.0500 C.2   158  SER158      0.2619
     19  O         16.9630   70.4280   60.9360 O.2   158  SER158     -0.2717
     20  CB        17.1110   68.3200   63.6350 C.3   158  SER158      0.2103
     21  OG        17.0320   67.4340   62.5400 O.3   158  SER158     -0.2182
     22  N         18.7410   70.4340   62.3270 N.am  159  HIS159     -0.1961
     23  CA        19.6860   70.8270   61.2810 C.3   159  HIS159      0.1787
     24  C         20.3760   69.5400   60.8440 C.2   159  HIS159      0.2620
     25  O         20.6120   68.6590   61.6690 O.2   159  HIS159     -0.2715
     26  CB        20.7220   71.8050   61.8130 C.3   159  HIS159      0.0785
     27  CG        20.3920   73.2280   61.5090 C.ar  159  HIS159      0.0821
     28  ND1       20.9940   74.2890   62.1500 N.ar  159  HIS159     -0.2267
     29  CD2       19.5030   73.7660   60.6400 C.ar  159  HIS159      0.1154
     30  CE1       20.4870   75.4200   61.6920 C.ar  159  HIS159      0.1986
     31  NE2       19.5790   75.1310   60.7750 N.ar  159  HIS159     -0.2212
     32  N         20.7050   69.4330   59.5610 N.am  160  LYS160     -0.1963
     33  CA        21.3450   68.2230   59.0310 C.3   160  LYS160      0.1728
     34  C         22.4350   67.6210   59.9320 C.2   160  LYS160      0.2616
     35  O         22.4050   66.4260   60.2310 O.2   160  LYS160     -0.2715
     36  CB        21.9250   68.5040   57.6350 C.3   160  LYS160      0.0311
     37  CG        20.9210   69.2050   56.7200 C.3   160  LYS160      0.0038
     38  CD        21.3680   69.2940   55.2700 C.3   160  LYS160      0.0206
     39  CE        20.2390   69.8430   54.4010 C.3   160  LYS160      0.1093
     40  NZ        20.4850   69.6360   52.9480 N.3   160  LYS160     -0.1314
     41  N         23.3730   68.4500   60.3840 N.am  161  HIS161     -0.1973
     42  CA        24.4790   67.9590   61.2110 C.3   161  HIS161      0.1656
     43  C         24.3140   68.2100   62.6980 C.2   161  HIS161      0.2291
     44  O         25.2270   67.9930   63.4950 O.2   161  HIS161     -0.2864
     45  CB        25.7960   68.5740   60.7240 C.3   161  HIS161      0.0771
     46  CG        26.1340   68.2160   59.3090 C.ar  161  HIS161      0.0820
     47  ND1       26.5470   66.9520   58.9390 N.ar  161  HIS161     -0.2267
     48  CD2       26.0690   68.9420   58.1670 C.ar  161  HIS161      0.1154
     49  CE1       26.7200   66.9170   57.6290 C.ar  161  HIS161      0.1986
     50  NE2       26.4370   68.1110   57.1370 N.ar  161  HIS161     -0.2212
     51  N         21.7230   66.8090   64.4840 N.3   163  ILE163     -0.1231
     52  CA        21.1850   65.6150   65.0980 C.3   163  ILE163      0.1692
     53  C         22.0200   64.3280   65.0350 C.2   163  ILE163      0.2592
     54  O         22.0410   63.5600   65.9990 O.2   163  ILE163     -0.2718
     55  CB        19.7500   65.3990   64.5330 C.3   163  ILE163      0.0266
     56  CG1       18.9750   64.4130   65.4020 C.3   163  ILE163      0.0019
     57  CG2       19.8280   65.0160   63.0480 C.3   163  ILE163      0.0020
     58  CD1       17.4750   64.5050   65.1890 C.3   163  ILE163      0.0001
     59  N         22.7180   64.0970   63.9260 N.am  164  GLY164     -0.1957
     60  CA        23.5120   62.8840   63.8100 C.3   164  GLY164      0.1869
     61  C         22.6360   61.6720   63.5240 C.2   164  GLY164      0.2309
     62  O         21.4930   61.8210   63.1120 O.2   164  GLY164     -0.2863
     63  N         12.2440   71.5310   49.9730 N.3   350  GLU350     -0.1231
     64  CA        13.3260   70.7920   49.3180 C.3   350  GLU350      0.1699
     65  C         14.5840   70.7170   50.1790 C.2   350  GLU350      0.2593
     66  O         15.3320   69.7570   50.0820 O.2   350  GLU350     -0.2718
     67  CB        13.6480   71.4240   47.9570 C.3   350  GLU350      0.0402
     68  CG        12.4290   71.5110   47.0420 C.3   350  GLU350      0.1161
     69  CD        12.6530   72.4040   45.8290 C.2   350  GLU350      0.3649
     70  OE1       13.1470   73.5470   45.9930 O.co2 350  GLU350     -0.2457
     71  OE2       12.3140   71.9600   44.7120 O.co2 350  GLU350     -0.2457
     72  N         14.8200   71.7180   51.0240 N.am  351  SER351     -0.1938
     73  CA        15.9760   71.6850   51.9090 C.3   351  SER351      0.2055
     74  C         15.5930   71.2920   53.3610 C.2   351  SER351      0.2643
     75  O         16.4280   71.3290   54.2660 O.2   351  SER351     -0.2714
     76  CB        16.6780   73.0450   51.8960 C.3   351  SER351      0.2130
     77  OG        15.7940   74.0840   52.2770 O.3   351  SER351     -0.2179
     78  N         14.3360   70.8880   53.5640 N.am  352  PHE352     -0.1973
     79  CA        13.8400   70.5170   54.9000 C.3   352  PHE352      0.1639
     80  C         13.9950   71.6380   55.9400 C.2   352  PHE352      0.2290
     81  O         14.4800   71.4430   57.0600 O.2   352  PHE352     -0.2864
     82  CB        14.4870   69.2150   55.3780 C.3   352  PHE352      0.0560
     83  CG        13.9650   67.9910   54.6480 C.ar  352  PHE352     -0.0200
     84  CD1       14.6910   67.4150   53.5970 C.ar  352  PHE352     -0.0042
     85  CD2       12.7240   67.4350   54.9930 C.ar  352  PHE352     -0.0042
     86  CE1       14.1900   66.2980   52.8990 C.ar  352  PHE352     -0.0003
     87  CE2       12.2060   66.3230   54.3100 C.ar  352  PHE352     -0.0003
     88  CZ        12.9400   65.7500   53.2600 C.ar  352  PHE352     -0.0000
@<TRIPOS>BOND
     1    71    69   ar
     2    69    70   ar
     3    69    68    1
     4    68    67    1
     5    67    64    1
     6    64    63    1
     7    64    65    1
     8    66    65    2
     9    65    72   am
    10    72    73    1
    11    76    73    1
    12    76    77    1
    13    73    74    1
    14    86    88   ar
    15    86    84   ar
    16    40    39    1
    17    88    87   ar
    18    74    78   am
    19    74    75    2
    20    78    79    1
    21    84    83   ar
    22    87    85   ar
    23    39    38    1
    24    83    85   ar
    25    83    82    1
    26    79    82    1
    27    79    80    1
    28    38    37    1
    29    80    81    2
    30    15    14    1
    31    14    13    1
    32    37    36    1
    33    50    49   ar
    34    50    48   ar
    35    49    47   ar
    36    36    33    1
    37    12    13    1
    38    12     9    1
    39    48    46   ar
    40    47    46   ar
    41    33    32    1
    42    33    34    1
    43    11    10    2
    44    10     9    1
    45    46    45    1
    46     9     8    1
    47    32    24   am
    48    34    35    2
    49    34    41   am
    50     8     3   am
    51    41    42    1
    52    29    31   ar
    53    29    27   ar
    54    45    42    1
    55    31    30   ar
    56    24    23    1
    57    24    25    2
    58    19    18    2
    59    42    43    1
    60    23    26    1
    61    23    22    1
    62    27    26    1
    63    27    28   ar
    64     3     4    2
    65     3     2    1
    66    30    28   ar
    67     1     2    1
    68    18    22   am
    69    18    17    1
    70     2     5    1
    71    21    20    1
    72     5     7    1
    73     5     6    1
    74    43    44    2
    75    16    17    1
    76    57    55    1
    77    62    61    2
    78    17    20    1
    79    61    60    1
    80    60    59    1
    81    59    53   am
    82    51    52    1
    83    55    52    1
    84    55    56    1
    85    53    52    1
    86    53    54    2
    87    58    56    1
