@<TRIPOS>MOLECULE
tmp/3ez3D01.pdb
 150 142 0 0 0
SMALL
GASTEIGER

@<TRIPOS>ATOM
      1  N         16.3660  -22.1730  -15.9530 N.3    44  GLY44      -0.1210
      2  CA        17.0720  -21.2310  -16.8220 C.3    44  GLY44       0.1956
      3  C         17.6950  -21.8850  -18.0400 C.2    44  GLY44       0.2612
      4  O         17.4510  -23.0500  -18.3100 O.2    44  GLY44      -0.2717
      5  N         18.5020  -21.1250  -18.7770 N.am   45  LYS45      -0.1965
      6  CA        19.2190  -21.6500  -19.9140 C.3    45  LYS45       0.1728
      7  C         20.4750  -22.3870  -19.4440 C.2    45  LYS45       0.2616
      8  O         21.0080  -23.2310  -20.1750 O.2    45  LYS45      -0.2715
      9  CB        19.6070  -20.5150  -20.8570 C.3    45  LYS45       0.0311
     10  CG        18.4470  -19.8440  -21.5530 C.3    45  LYS45       0.0038
     11  CD        18.9540  -18.6800  -22.4270 C.3    45  LYS45       0.0206
     12  CE        19.3240  -17.4830  -21.5940 C.3    45  LYS45       0.1093
     13  NZ        18.1500  -17.0780  -20.8040 N.3    45  LYS45      -0.1314
     14  N         20.8880  -22.0880  -18.2060 N.am   46  ASN46      -0.1958
     15  CA        22.1530  -22.5210  -17.5930 C.3    46  ASN46       0.1819
     16  C         23.3740  -22.1750  -18.4350 C.2    46  ASN46       0.2621
     17  O         24.2900  -22.9920  -18.5670 O.2    46  ASN46      -0.2715
     18  CB        22.1580  -24.0190  -17.2240 C.3    46  ASN46       0.1195
     19  CG        20.9620  -24.4400  -16.3730 C.2    46  ASN46       0.2630
     20  OD1       20.2400  -25.3710  -16.7320 O.2    46  ASN46      -0.2716
     21  ND2       20.7600  -23.7760  -15.2410 N.am   46  ASN46      -0.0877
     22  N         23.3830  -20.9710  -19.0170 N.am   47  ASN47      -0.1958
     23  CA        24.4750  -20.5410  -19.9190 C.3    47  ASN47       0.1819
     24  C         25.8040  -20.4430  -19.1650 C.2    47  ASN47       0.2621
     25  O         26.8080  -20.9610  -19.6190 O.2    47  ASN47      -0.2715
     26  CB        24.1740  -19.1960  -20.5650 C.3    47  ASN47       0.1195
     27  CG        23.2670  -19.2920  -21.7790 C.2    47  ASN47       0.2630
     28  OD1       23.1080  -20.3440  -22.4070 O.2    47  ASN47      -0.2716
     29  ND2       22.7200  -18.1570  -22.1550 N.am   47  ASN47      -0.0877
     30  N         25.7680  -19.7950  -18.0020 N.am   48  ARG48      -0.1977
     31  CA        26.9150  -19.6390  -17.1030 C.3    48  ARG48       0.1597
     32  C         27.4770  -20.9800  -16.5860 C.2    48  ARG48       0.2287
     33  O         28.6900  -21.1750  -16.5900 O.2    48  ARG48      -0.2864
     34  CB        26.5370  -18.7330  -15.9170 C.3    48  ARG48       0.0334
     35  CG        26.1820  -17.2770  -16.3010 C.3    48  ARG48       0.0492
     36  CD        25.4870  -16.5170  -15.1380 C.3    48  ARG48       0.2205
     37  NE        24.7030  -15.4130  -15.6660 N.pl3  48  ARG48      -0.0865
     38  CZ        23.4880  -15.5210  -16.2060 C.cat  48  ARG48       0.5346
     39  NH1       22.8750  -16.6930  -16.2870 N.pl3  48  ARG48       0.1354
     40  NH2       22.8880  -14.4380  -16.6630 N.pl3  48  ARG48       0.1354
     41  N         25.2950  -20.9120  -11.1800 N.3    76  GLU76      -0.1245
     42  CA        23.8270  -21.0530  -11.2160 C.3    76  GLU76       0.1567
     43  C         23.1770  -20.6460   -9.9060 C.2    76  GLU76       0.2260
     44  O         22.1670  -19.9400   -9.9140 O.2    76  GLU76      -0.2867
     45  CB        23.3740  -22.4640  -11.6350 C.3    76  GLU76       0.0388
     46  CG        23.6410  -22.8200  -13.0940 C.3    76  GLU76       0.1160
     47  CD        23.0940  -21.7990  -14.0550 C.2    76  GLU76       0.3649
     48  OE1       21.8870  -21.5030  -13.9840 O.co2  76  GLU76      -0.2457
     49  OE2       23.8600  -21.2910  -14.8970 O.co2  76  GLU76      -0.2457
     50  N         23.6160  -16.7800   -9.7850 N.3    79  GLN79      -0.1245
     51  CA        22.5210  -16.2710  -10.6000 C.3    79  GLN79       0.1566
     52  C         21.2120  -16.2190   -9.7490 C.2    79  GLN79       0.2260
     53  O         20.5300  -15.1910   -9.6920 O.2    79  GLN79      -0.2867
     54  CB        22.4310  -17.1130  -11.8800 C.3    79  GLN79       0.0367
     55  CG        21.1570  -16.9960  -12.7590 C.3    79  GLN79       0.0905
     56  CD        20.9430  -15.6480  -13.4620 C.2    79  GLN79       0.2608
     57  OE1       21.3960  -14.5990  -13.0060 O.2    79  GLN79      -0.2717
     58  NE2       20.1930  -15.6740  -14.5430 N.am   79  GLN79      -0.0878
     59  N         19.0650  -12.8760   -8.7760 N.3    83  LEU83      -0.1245
     60  CA        17.7130  -12.7090   -9.3220 C.3    83  LEU83       0.1561
     61  C         16.6290  -12.6360   -8.2570 C.2    83  LEU83       0.2260
     62  O         15.6500  -11.9010   -8.4200 O.2    83  LEU83      -0.2867
     63  CB        17.3800  -13.8360  -10.3110 C.3    83  LEU83       0.0270
     64  CG        18.2660  -13.9110  -11.5650 C.3    83  LEU83       0.0019
     65  CD1       17.7360  -15.0190  -12.5110 C.3    83  LEU83       0.0001
     66  CD2       18.4460  -12.5110  -12.2560 C.3    83  LEU83       0.0001
     67  N          9.4400  -14.9830  -12.7070 N.3    95  ARG95      -0.1231
     68  CA        10.8200  -15.3250  -13.0200 C.3    95  ARG95       0.1694
     69  C         10.8110  -16.7640  -13.5740 C.2    95  ARG95       0.2591
     70  O         10.3230  -17.6890  -12.8980 O.2    95  ARG95      -0.2718
     71  CB        11.6930  -15.2010  -11.7420 C.3    95  ARG95       0.0321
     72  CG        13.1790  -15.4520  -11.8780 C.3    95  ARG95       0.0489
     73  CD        13.8000  -14.6490  -12.9950 C.3    95  ARG95       0.2205
     74  NE        14.0540  -13.2490  -12.6710 N.pl3  95  ARG95      -0.0865
     75  CZ        14.6780  -12.4130  -13.4940 C.cat  95  ARG95       0.5346
     76  NH1       15.1290  -12.8510  -14.6630 N.pl3  95  ARG95       0.1354
     77  NH2       14.8950  -11.1640  -13.1420 N.pl3  95  ARG95       0.1354
     78  N         11.3310  -16.9720  -14.7870 N.am   96  ARG96      -0.1980
     79  CA        11.3030  -18.3390  -15.4060 C.3    96  ARG96       0.1597
     80  C          9.8920  -18.9510  -15.3450 C.2    96  ARG96       0.2287
     81  O          9.7000  -20.1460  -15.0590 O.2    96  ARG96      -0.2864
     82  CB        12.3570  -19.2710  -14.7700 C.3    96  ARG96       0.0334
     83  CG        13.7400  -18.6610  -14.8230 C.3    96  ARG96       0.0492
     84  CD        14.7710  -19.4830  -14.1130 C.3    96  ARG96       0.2205
     85  NE        16.0970  -18.8670  -14.0730 N.pl3  96  ARG96      -0.0865
     86  CZ        17.0740  -19.2760  -13.2530 C.cat  96  ARG96       0.5346
     87  NH1       16.8460  -20.2860  -12.4060 N.pl3  96  ARG96       0.1354
     88  NH2       18.2710  -18.6790  -13.2410 N.pl3  96  ARG96       0.1354
     89  N         26.0010   -6.8910  -15.1890 N.3   202  THR202     -0.1218
     90  CA        25.8770   -8.1290  -16.0260 C.3   202  THR202      0.1862
     91  C         27.1540   -8.8860  -16.4850 C.2   202  THR202      0.2287
     92  O         27.2010  -10.1260  -16.4060 O.2   202  THR202     -0.2866
     93  CB        24.9090   -7.9430  -17.2100 C.3   202  THR202      0.1770
     94  OG1       23.6170   -7.5790  -16.7030 O.3   202  THR202     -0.2211
     95  CG2       24.7700   -9.2530  -18.0830 C.3   202  THR202      0.0375
     96  N         29.6210  -11.1980  -13.6760 N.3   205  TYR205     -0.1227
     97  CA        29.1270  -12.4730  -13.1110 C.3   205  TYR205      0.1736
     98  C         28.6750  -13.4330  -14.2010 C.2   205  TYR205      0.2596
     99  O         28.5250  -14.6380  -13.9730 O.2   205  TYR205     -0.2718
    100  CB        28.0560  -12.2490  -12.0190 C.3   205  TYR205      0.0548
    101  CG        26.6020  -12.2360  -12.4670 C.ar  205  TYR205     -0.0200
    102  CD1       25.8510  -13.4060  -12.4400 C.ar  205  TYR205     -0.0009
    103  CD2       25.9780  -11.0480  -12.8670 C.ar  205  TYR205     -0.0009
    104  CE1       24.5400  -13.4180  -12.8210 C.ar  205  TYR205      0.0417
    105  CE2       24.6310  -11.0240  -13.2600 C.ar  205  TYR205      0.0417
    106  CZ        23.9220  -12.2330  -13.2280 C.ar  205  TYR205      0.1957
    107  OH        22.5970  -12.2830  -13.5940 O.3   205  TYR205     -0.2866
    108  N         28.4520  -12.8760  -15.3860 N.am  206  SER206     -0.1952
    109  CA        27.7730  -13.6120  -16.4490 C.3   206  SER206      0.1924
    110  C         28.6960  -14.1400  -17.5050 C.2   206  SER206      0.2314
    111  O         28.3370  -15.0710  -18.2400 O.2   206  SER206     -0.2863
    112  CB        26.7180  -12.7330  -17.1050 C.3   206  SER206      0.2116
    113  OG        25.5310  -12.8050  -16.3650 O.3   206  SER206     -0.2180
    114  N         24.7290   -8.8520  -24.2940 N.3   239  PHE239     -0.1227
    115  CA        23.7130   -9.6190  -23.5800 C.3   239  PHE239      0.1736
    116  C         22.6760   -8.7090  -22.9100 C.2   239  PHE239      0.2595
    117  O         21.4750   -8.9430  -23.0450 O.2   239  PHE239     -0.2718
    118  CB        24.3580  -10.5800  -22.5630 C.3   239  PHE239      0.0547
    119  CG        23.4110  -11.6520  -22.0400 C.ar  239  PHE239     -0.0202
    120  CD1       22.7200  -12.4920  -22.9170 C.ar  239  PHE239     -0.0042
    121  CD2       23.2370  -11.8420  -20.6730 C.ar  239  PHE239     -0.0042
    122  CE1       21.8680  -13.4630  -22.4460 C.ar  239  PHE239     -0.0003
    123  CE2       22.4020  -12.8270  -20.1940 C.ar  239  PHE239     -0.0003
    124  CZ        21.7220  -13.6420  -21.0800 C.ar  239  PHE239     -0.0000
    125  N         23.1340   -7.6720  -22.2090 N.am  240  GLN240     -0.1979
    126  CA        22.2250   -6.7880  -21.4900 C.3   240  GLN240      0.1601
    127  C         21.3250   -5.9550  -22.4250 C.2   240  GLN240      0.2287
    128  O         20.1500   -5.7080  -22.1280 O.2   240  GLN240     -0.2864
    129  CB        22.9930   -5.8830  -20.5170 C.3   240  GLN240      0.0394
    130  CG        22.0920   -5.1130  -19.5650 C.3   240  GLN240      0.0908
    131  CD        21.2900   -6.0060  -18.6920 C.2   240  GLN240      0.2608
    132  OE1       21.8320   -6.8990  -18.0210 O.2   240  GLN240     -0.2717
    133  NE2       19.9810   -5.7820  -18.6680 N.am  240  GLN240     -0.0878
    134  N         18.5150   -8.1230  -23.5280 N.3   243  ASP243     -0.1239
    135  CA        17.5910   -8.1290  -22.3940 C.3   243  ASP243      0.1674
    136  C         16.7060   -6.8810  -22.3730 C.2   243  ASP243      0.2266
    137  O         15.4910   -6.9710  -22.2300 O.2   243  ASP243     -0.2867
    138  CB        18.4070   -8.1900  -21.1070 C.3   243  ASP243      0.1410
    139  CG        17.5830   -8.5180  -19.9400 C.2   243  ASP243      0.3668
    140  OD1       17.5400   -7.7020  -19.0120 O.co2 243  ASP243     -0.2456
    141  OD2       16.9430   -9.5920  -19.9470 O.co2 243  ASP243     -0.2456
    142  N          9.3090  -13.8610  -17.8500 N.3   257  LYS257     -0.1245
    143  CA         9.3260  -12.7080  -16.9430 C.3   257  LYS257      0.1561
    144  C          8.5730  -11.4990  -17.5770 C.2   257  LYS257      0.2260
    145  O          8.4980  -11.3670  -18.8050 O.2   257  LYS257     -0.2867
    146  CB        10.7700  -12.3220  -16.6110 C.3   257  LYS257      0.0271
    147  CG        11.6120  -12.0370  -17.8490 C.3   257  LYS257      0.0035
    148  CD        12.9930  -11.6250  -17.4930 C.3   257  LYS257      0.0206
    149  CE        13.8180  -11.1710  -18.7000 C.3   257  LYS257      0.1093
    150  NZ        15.2970  -11.1740  -18.3500 N.3   257  LYS257     -0.1314
@<TRIPOS>BOND
     1   114   115    1
     2   115   116    1
     3   115   118    1
     4   134   135    1
     5   117   116    2
     6   120   122   ar
     7   120   119   ar
     8   116   125   am
     9   118   119    1
    10   122   124   ar
    11    11    12    1
    12    11    10    1
    13   127   128    2
    14   127   126    1
    15    28    27    2
    16   135   136    1
    17   135   138    1
    18   136   137    2
    19   125   126    1
    20    29    27   am
    21   119   121   ar
    22    27    26    1
    23    12    13    1
    24    10     9    1
    25   126   129    1
    26   138   139    1
    27   124   123   ar
    28     9     6    1
    29   121   123   ar
    30    26    23    1
    31   129   130    1
    32     8     7    2
    33   141   139   ar
    34   139   140   ar
    35    23    24    1
    36    23    22    1
    37     6     7    1
    38     6     5    1
    39    25    24    2
    40   130   131    1
    41     7    14   am
    42    24    30   am
    43    22    16   am
    44   145   144    2
    45     5     3   am
    46   149   150    1
    47   149   148    1
    48   131   133   am
    49   131   132    2
    50    17    16    2
    51    16    15    1
    52     4     3    2
    53   111   110    2
    54    14    15    1
    55    95    93    1
    56     3     2    1
    57    30    31    1
    58   142   143    1
    59   147   148    1
    60   147   146    1
    61    15    18    1
    62   144   143    1
    63   110   109    1
    64    18    19    1
    65    93    94    1
    66    93    90    1
    67   112   109    1
    68   112   113    1
    69    31    32    1
    70    31    34    1
    71   143   146    1
    72     2     1    1
    73    20    19    2
    74    40    38    1
    75    33    32    2
    76    91    92    2
    77    91    90    1
    78   109   108    1
    79    19    21   am
    80    35    34    1
    81    35    36    1
    82    39    38    1
    83    38    37    2
    84    90    89    1
    85    37    36    1
    86    79    80    1
    87    79    78    1
    88    79    82    1
    89   108    98   am
    90    80    81    2
    91    49    47   ar
    92    83    82    1
    93    83    84    1
    94    78    69   am
    95    76    75    1
    96    58    56   am
    97    98    99    2
    98    98    97    1
    99    84    85    1
   100    85    86    2
   101    47    48   ar
   102    47    46    1
   103    96    97    1
   104   107   106    1
   105    69    68    1
   106    69    70    2
   107    75    77    1
   108    75    74    2
   109    56    57    2
   110    56    55    1
   111   105   106   ar
   112   105   103   ar
   113    86    88    1
   114    86    87    1
   115   106   104   ar
   116    97   100    1
   117    46    45    1
   118    68    67    1
   119    68    71    1
   120    73    74    1
   121    73    72    1
   122   103   101   ar
   123   104   102   ar
   124    55    54    1
   125    65    64    1
   126   101   102   ar
   127   101   100    1
   128    66    64    1
   129    54    51    1
   130    72    71    1
   131    45    42    1
   132    64    63    1
   133    42    41    1
   134    42    43    1
   135    51    50    1
   136    51    52    1
   137    63    60    1
   138    44    43    2
   139    52    53    2
   140    60    59    1
   141    60    61    1
   142    62    61    2
