@<TRIPOS>MOLECULE
tmp/3ez3D00.pdb
 165 152 0 0 0
SMALL
GASTEIGER

@<TRIPOS>ATOM
      1  N         21.2740  -13.4660   -7.0310 N.3    82  PHE82      -0.1227
      2  CA        21.1390  -12.1680   -7.7210 C.3    82  PHE82       0.1736
      3  C         19.7540  -11.8570   -8.2730 C.2    82  PHE82       0.2595
      4  O         19.3230  -10.6950   -8.2520 O.2    82  PHE82      -0.2718
      5  CB        22.2030  -12.0190   -8.8390 C.3    82  PHE82       0.0547
      6  CG        23.6000  -11.7230   -8.3220 C.ar   82  PHE82      -0.0202
      7  CD1       23.7980  -10.8750   -7.2450 C.ar   82  PHE82      -0.0042
      8  CD2       24.7080  -12.2480   -8.9380 C.ar   82  PHE82      -0.0042
      9  CE1       25.0980  -10.5950   -6.7760 C.ar   82  PHE82      -0.0003
     10  CE2       26.0140  -11.9770   -8.4720 C.ar   82  PHE82      -0.0003
     11  CZ        26.2080  -11.1560   -7.4120 C.ar   82  PHE82      -0.0000
     12  N         19.0650  -12.8760   -8.7760 N.am   83  LEU83      -0.1980
     13  CA        17.7130  -12.7090   -9.3220 C.3    83  LEU83       0.1596
     14  C         16.6290  -12.6360   -8.2570 C.2    83  LEU83       0.2287
     15  O         15.6500  -11.9010   -8.4200 O.2    83  LEU83      -0.2864
     16  CB        17.3800  -13.8360  -10.3110 C.3    83  LEU83       0.0297
     17  CG        18.2660  -13.9110  -11.5650 C.3    83  LEU83       0.0022
     18  CD1       17.7360  -15.0190  -12.5110 C.3    83  LEU83       0.0001
     19  CD2       18.4460  -12.5110  -12.2560 C.3    83  LEU83       0.0001
     20  N         17.2170   -9.0560   -7.3020 N.3    86  ASP86      -0.1225
     21  CA        16.8230   -8.1780   -8.4160 C.3    86  ASP86       0.1805
     22  C         15.3090   -8.0290   -8.5630 C.2    86  ASP86       0.2597
     23  O         14.8050   -6.9550   -8.8760 O.2    86  ASP86      -0.2718
     24  CB        17.4330   -8.7160   -9.7050 C.3    86  ASP86       0.1424
     25  CG        17.0380   -7.9220  -10.8760 C.2    86  ASP86       0.3668
     26  OD1       16.0970   -8.3950  -11.5470 O.co2  86  ASP86      -0.2456
     27  OD2       17.6120   -6.8060  -11.0660 O.co2  86  ASP86      -0.2456
     28  N         14.5870   -9.1240   -8.3190 N.am   87  ASP87      -0.1974
     29  CA        13.1150   -9.1100   -8.4030 C.3    87  ASP87       0.1709
     30  C         12.4830   -8.3600   -7.2670 C.2    87  ASP87       0.2293
     31  O         11.4530   -7.7180   -7.4390 O.2    87  ASP87      -0.2864
     32  CB        12.5290  -10.5140   -8.5780 C.3    87  ASP87       0.1436
     33  CG        12.7130  -11.0440   -9.9920 C.2    87  ASP87       0.3671
     34  OD1       12.7850  -10.2210  -10.9560 O.co2  87  ASP87      -0.2456
     35  OD2       12.7320  -12.2870  -10.1490 O.co2  87  ASP87      -0.2456
     36  N         13.3430   -4.6050   -8.5490 N.3    90  ASP90      -0.1239
     37  CA        12.5910   -4.1370   -9.7080 C.3    90  ASP90       0.1674
     38  C         11.0960   -4.4800   -9.6600 C.2    90  ASP90       0.2266
     39  O         10.3700   -4.2520  -10.6500 O.2    90  ASP90      -0.2867
     40  CB        13.1510   -4.8310  -10.9420 C.3    90  ASP90       0.1410
     41  CG        14.6230   -4.5990  -11.1530 C.2    90  ASP90       0.3668
     42  OD1       15.2250   -3.6840  -10.5500 O.co2  90  ASP90      -0.2456
     43  OD2       15.1820   -5.3580  -11.9740 O.co2  90  ASP90      -0.2456
     44  N          9.4400  -14.9830  -12.7070 N.3    95  ARG95      -0.1245
     45  CA        10.8200  -15.3250  -13.0200 C.3    95  ARG95       0.1563
     46  C         10.8110  -16.7640  -13.5740 C.2    95  ARG95       0.2260
     47  O         10.3230  -17.6890  -12.8980 O.2    95  ARG95      -0.2867
     48  CB        11.6930  -15.2010  -11.7420 C.3    95  ARG95       0.0307
     49  CG        13.1790  -15.4520  -11.8780 C.3    95  ARG95       0.0489
     50  CD        13.8000  -14.6490  -12.9950 C.3    95  ARG95       0.2205
     51  NE        14.0540  -13.2490  -12.6710 N.pl3  95  ARG95      -0.0865
     52  CZ        14.6780  -12.4130  -13.4940 C.cat  95  ARG95       0.5346
     53  NH1       15.1290  -12.8510  -14.6630 N.pl3  95  ARG95       0.1354
     54  NH2       14.8950  -11.1640  -13.1420 N.pl3  95  ARG95       0.1354
     55  N         29.0060   -6.6930   -9.5070 N.3   151  THR151     -0.1218
     56  CA        27.5640   -6.8190   -9.7390 C.3   151  THR151      0.1862
     57  C         26.7310   -5.9340   -8.7930 C.2   151  THR151      0.2287
     58  O         25.7320   -5.3310   -9.2090 O.2   151  THR151     -0.2866
     59  CB        27.0850   -8.3190   -9.6920 C.3   151  THR151      0.1770
     60  OG1       27.9150   -9.1320  -10.5320 O.3   151  THR151     -0.2211
     61  CG2       25.6310   -8.4470  -10.1810 C.3   151  THR151      0.0375
     62  N         24.2780   -2.9440   -9.8660 N.3   155  GLN155     -0.1245
     63  CA        22.8700   -3.0310   -9.4090 C.3   155  GLN155      0.1566
     64  C         22.4540   -1.7810   -8.6180 C.2   155  GLN155      0.2260
     65  O         21.2980   -1.3110   -8.6900 O.2   155  GLN155     -0.2867
     66  CB        22.6970   -4.2730   -8.5550 C.3   155  GLN155      0.0367
     67  CG        22.5820   -5.5930   -9.3180 C.3   155  GLN155      0.0905
     68  CD        21.3800   -5.6270  -10.2380 C.2   155  GLN155      0.2608
     69  OE1       21.3690   -4.9760  -11.2910 O.2   155  GLN155     -0.2717
     70  NE2       20.3370   -6.3620   -9.8310 N.am  155  GLN155     -0.0878
     71  N         22.0540    0.8680  -11.5290 N.3   158  ASP158     -0.1239
     72  CA        20.8220    0.5650  -12.2260 C.3   158  ASP158      0.1674
     73  C         19.5890    1.1480  -11.5370 C.2   158  ASP158      0.2266
     74  O         18.6880    1.6600  -12.1920 O.2   158  ASP158     -0.2867
     75  CB        20.7090   -0.9630  -12.3780 C.3   158  ASP158      0.1410
     76  CG        19.3350   -1.4190  -12.8140 C.2   158  ASP158      0.3668
     77  OD1       19.1790   -1.8370  -13.9680 O.co2 158  ASP158     -0.2456
     78  OD2       18.3880   -1.3870  -12.0040 O.co2 158  ASP158     -0.2456
     79  N         26.7220   -4.6280  -13.5690 N.3   201  LYS201     -0.1231
     80  CA        25.5320   -5.4290  -13.2360 C.3   201  LYS201      0.1693
     81  C         25.3830   -6.7530  -13.9990 C.2   201  LYS201      0.2592
     82  O         24.6720   -7.6260  -13.5110 O.2   201  LYS201     -0.2718
     83  CB        24.2240   -4.5840  -13.3410 C.3   201  LYS201      0.0285
     84  CG        23.5060   -4.5560  -14.7230 C.3   201  LYS201      0.0035
     85  CD        22.1190   -3.8970  -14.6200 C.3   201  LYS201      0.0206
     86  CE        21.4550   -3.7200  -15.9610 C.3   201  LYS201      0.1093
     87  NZ        19.9160   -3.6480  -15.8520 N.3   201  LYS201     -0.1314
     88  N         26.0010   -6.8910  -15.1890 N.am  202  THR202     -0.1953
     89  CA        25.8770   -8.1290  -16.0260 C.3   202  THR202      0.1897
     90  C         27.1540   -8.8860  -16.4850 C.2   202  THR202      0.2313
     91  O         27.2010  -10.1260  -16.4060 O.2   202  THR202     -0.2863
     92  CB        24.9090   -7.9430  -17.2100 C.3   202  THR202      0.1794
     93  OG1       23.6170   -7.5790  -16.7030 O.3   202  THR202     -0.2208
     94  CG2       24.7700   -9.2530  -18.0830 C.3   202  THR202      0.0378
     95  N         29.6210  -11.1980  -13.6760 N.3   205  TYR205     -0.1241
     96  CA        29.1270  -12.4730  -13.1110 C.3   205  TYR205      0.1605
     97  C         28.6750  -13.4330  -14.2010 C.2   205  TYR205      0.2264
     98  O         28.5250  -14.6380  -13.9730 O.2   205  TYR205     -0.2867
     99  CB        28.0560  -12.2490  -12.0190 C.3   205  TYR205      0.0534
    100  CG        26.6020  -12.2360  -12.4670 C.ar  205  TYR205     -0.0201
    101  CD1       25.8510  -13.4060  -12.4400 C.ar  205  TYR205     -0.0009
    102  CD2       25.9780  -11.0480  -12.8670 C.ar  205  TYR205     -0.0009
    103  CE1       24.5400  -13.4180  -12.8210 C.ar  205  TYR205      0.0417
    104  CE2       24.6310  -11.0240  -13.2600 C.ar  205  TYR205      0.0417
    105  CZ        23.9220  -12.2330  -13.2280 C.ar  205  TYR205      0.1957
    106  OH        22.5970  -12.2830  -13.5940 O.3   205  TYR205     -0.2866
    107  N         23.1340   -7.6720  -22.2090 N.3   240  GLN240     -0.1245
    108  CA        22.2250   -6.7880  -21.4900 C.3   240  GLN240      0.1566
    109  C         21.3250   -5.9550  -22.4250 C.2   240  GLN240      0.2260
    110  O         20.1500   -5.7080  -22.1280 O.2   240  GLN240     -0.2867
    111  CB        22.9930   -5.8830  -20.5170 C.3   240  GLN240      0.0367
    112  CG        22.0920   -5.1130  -19.5650 C.3   240  GLN240      0.0905
    113  CD        21.2900   -6.0060  -18.6920 C.2   240  GLN240      0.2608
    114  OE1       21.8320   -6.8990  -18.0210 O.2   240  GLN240     -0.2717
    115  NE2       19.9810   -5.7820  -18.6680 N.am  240  GLN240     -0.0878
    116  N         18.5150   -8.1230  -23.5280 N.3   243  ASP243     -0.1225
    117  CA        17.5910   -8.1290  -22.3940 C.3   243  ASP243      0.1805
    118  C         16.7060   -6.8810  -22.3730 C.2   243  ASP243      0.2597
    119  O         15.4910   -6.9710  -22.2300 O.2   243  ASP243     -0.2718
    120  CB        18.4070   -8.1900  -21.1070 C.3   243  ASP243      0.1424
    121  CG        17.5830   -8.5180  -19.9400 C.2   243  ASP243      0.3668
    122  OD1       17.5400   -7.7020  -19.0120 O.co2 243  ASP243     -0.2456
    123  OD2       16.9430   -9.5920  -19.9470 O.co2 243  ASP243     -0.2456
    124  N         17.3190   -5.7120  -22.5300 N.am  244  ASP244     -0.1974
    125  CA        16.5630   -4.4700  -22.5910 C.3   244  ASP244      0.1709
    126  C         15.5470   -4.5190  -23.7160 C.2   244  ASP244      0.2293
    127  O         14.4230   -4.0330  -23.5830 O.2   244  ASP244     -0.2864
    128  CB        17.5060   -3.2880  -22.8000 C.3   244  ASP244      0.1436
    129  CG        18.2770   -2.9090  -21.5400 C.2   244  ASP244      0.3671
    130  OD1       18.9430   -1.8700  -21.5680 O.co2 244  ASP244     -0.2456
    131  OD2       18.2540   -3.6310  -20.5350 O.co2 244  ASP244     -0.2456
    132  N         12.6280   -6.6960  -22.8420 N.3   247  ASP247     -0.1239
    133  CA        11.7530   -6.0830  -21.8480 C.3   247  ASP247      0.1674
    134  C         10.5920   -5.3780  -22.5540 C.2   247  ASP247      0.2266
    135  O          9.4480   -5.4700  -22.0890 O.2   247  ASP247     -0.2867
    136  CB        12.5320   -5.1690  -20.8940 C.3   247  ASP247      0.1410
    137  CG        11.6470   -4.6040  -19.7530 C.2   247  ASP247      0.3668
    138  OD1       11.1100   -3.4960  -19.9450 O.co2 247  ASP247     -0.2456
    139  OD2       11.4970   -5.2500  -18.6720 O.co2 247  ASP247     -0.2456
    140  N          9.3090  -13.8610  -17.8500 N.3   257  LYS257     -0.1245
    141  CA         9.3260  -12.7080  -16.9430 C.3   257  LYS257      0.1561
    142  C          8.5730  -11.4990  -17.5770 C.2   257  LYS257      0.2260
    143  O          8.4980  -11.3670  -18.8050 O.2   257  LYS257     -0.2867
    144  CB        10.7700  -12.3220  -16.6110 C.3   257  LYS257      0.0271
    145  CG        11.6120  -12.0370  -17.8490 C.3   257  LYS257      0.0035
    146  CD        12.9930  -11.6250  -17.4930 C.3   257  LYS257      0.0206
    147  CE        13.8180  -11.1710  -18.7000 C.3   257  LYS257      0.1093
    148  NZ        15.2970  -11.1740  -18.3500 N.3   257  LYS257     -0.1314
    149  N         10.8310   -2.1130  -17.3490 N.3   261  ASP261     -0.1239
    150  CA        11.8900   -1.0640  -17.3380 C.3   261  ASP261      0.1674
    151  C         11.3920    0.3700  -17.4130 C.2   261  ASP261      0.2266
    152  O         11.9860    1.2650  -16.8180 O.2   261  ASP261     -0.2867
    153  CB        12.9150   -1.2440  -18.4660 C.3   261  ASP261      0.1410
    154  CG        13.8320   -2.4620  -18.2550 C.2   261  ASP261      0.3668
    155  OD1       14.0040   -2.8720  -17.0990 O.co2 261  ASP261     -0.2456
    156  OD2       14.3610   -3.0020  -19.2550 O.co2 261  ASP261     -0.2456
    157  N         14.2580    2.8210  -15.5520 N.3   266  LYS266     -0.1245
    158  CA        15.6160    2.3170  -15.8950 C.3   266  LYS266      0.1561
    159  C         16.3080    3.0620  -17.0130 C.2   266  LYS266      0.2260
    160  O         15.6730    3.5020  -17.9810 O.2   266  LYS266     -0.2867
    161  CB        15.6030    0.8170  -16.2390 C.3   266  LYS266      0.0271
    162  CG        15.0050   -0.0520  -15.1440 C.3   266  LYS266      0.0035
    163  CD        15.8100   -0.0650  -13.8600 C.3   266  LYS266      0.0206
    164  CE        15.0090   -0.8160  -12.7880 C.3   266  LYS266      0.1093
    165  NZ        15.7700   -1.1520  -11.5900 N.3   266  LYS266     -0.1314
@<TRIPOS>BOND
     1   126   127    2
     2   126   125    1
     3   116   117    1
     4   132   133    1
     5   128   125    1
     6   128   129    1
     7   125   124    1
     8   134   135    2
     9   134   133    1
    10   124   118   am
    11   109   110    2
    12   109   108    1
    13   117   118    1
    14   117   120    1
    15   118   119    2
    16   107   108    1
    17   133   136    1
    18   130   129   ar
    19   129   131   ar
    20   108   111    1
    21   120   121    1
    22   136   137    1
    23   111   112    1
    24   123   121   ar
    25   138   137   ar
    26   121   122   ar
    27   137   139   ar
    28   112   113    1
    29   156   154   ar
    30   143   142    2
    31   147   148    1
    32   147   146    1
    33   113   115   am
    34   113   114    2
    35   153   154    1
    36   153   150    1
    37   154   155   ar
    38    94    92    1
    39   160   159    2
    40   140   141    1
    41   145   146    1
    42   145   144    1
    43   142   141    1
    44   151   150    1
    45   151   152    2
    46   149   150    1
    47    92    93    1
    48    92    89    1
    49   159   158    1
    50   141   144    1
    51    90    91    2
    52    90    89    1
    53   161   158    1
    54   161   162    1
    55    89    88    1
    56    86    87    1
    57    86    85    1
    58   158   157    1
    59    88    81   am
    60   162   163    1
    61    84    85    1
    62    84    83    1
    63    53    52    1
    64    97    98    2
    65    97    96    1
    66    81    82    2
    67    81    80    1
    68    77    76   ar
    69   163   164    1
    70    95    96    1
    71   106   105    1
    72    46    45    1
    73    46    47    2
    74    79    80    1
    75    52    54    1
    76    52    51    2
    77    83    80    1
    78   104   105   ar
    79   104   102   ar
    80   105   103   ar
    81    96    99    1
    82    45    44    1
    83    45    48    1
    84    50    51    1
    85    50    49    1
    86   102   100   ar
    87   103   101   ar
    88    76    75    1
    89    76    78   ar
    90   164   165    1
    91    18    17    1
    92   100   101   ar
    93   100    99    1
    94    75    72    1
    95    19    17    1
    96    72    73    1
    97    72    71    1
    98    74    73    2
    99    43    41   ar
   100    49    48    1
   101    17    16    1
   102    26    25   ar
   103    69    68    2
   104    41    40    1
   105    41    42   ar
   106    27    25   ar
   107    34    33   ar
   108    40    37    1
   109    25    24    1
   110    39    38    2
   111    60    59    1
   112    16    13    1
   113    68    70   am
   114    68    67    1
   115    61    59    1
   116    35    33   ar
   117    33    32    1
   118    62    63    1
   119    56    59    1
   120    56    55    1
   121    56    57    1
   122    37    38    1
   123    37    36    1
   124    24    21    1
   125    63    64    1
   126    63    66    1
   127    13    12    1
   128    13    14    1
   129    67    66    1
   130    58    57    2
   131     8    10   ar
   132     8     6   ar
   133    23    22    2
   134     5     6    1
   135     5     2    1
   136    12     3   am
   137    65    64    2
   138    32    29    1
   139    22    21    1
   140    22    28   am
   141    10    11   ar
   142    15    14    2
   143    21    20    1
   144    29    28    1
   145    29    30    1
   146     6     7   ar
   147     3     4    2
   148     3     2    1
   149     2     1    1
   150    31    30    2
   151    11     9   ar
   152     7     9   ar
