@<TRIPOS>MOLECULE
tmp/3eznA01.pdb
 102 99 0 0 0
SMALL
GASTEIGER

@<TRIPOS>ATOM
      1  N         10.5600  -27.5270   19.7660 N.3   190  ILE190     -0.1245
      2  CA        10.0360  -28.5640   18.8600 C.3   190  ILE190      0.1561
      3  C         10.0340  -28.0250   17.3920 C.2   190  ILE190      0.2260
      4  O         10.4830  -28.7220   16.4480 O.2   190  ILE190     -0.2867
      5  CB         8.6680  -29.0630   19.3610 C.3   190  ILE190      0.0252
      6  CG1        8.8480  -29.8530   20.6490 C.3   190  ILE190      0.0019
      7  CG2        8.0100  -30.0120   18.3800 C.3   190  ILE190      0.0019
      8  CD1        7.5050  -30.1310   21.3940 C.3   190  ILE190      0.0001
      9  N         12.1770  -30.2220   14.8140 N.3   194  ASP194     -0.1239
     10  CA        11.4510  -30.9430   13.7710 C.3   194  ASP194      0.1674
     11  C         11.2750  -30.1240   12.4540 C.2   194  ASP194      0.2266
     12  O         10.6040  -30.5770   11.5320 O.2   194  ASP194     -0.2867
     13  CB        10.0600  -31.3590   14.3040 C.3   194  ASP194      0.1410
     14  CG        10.1020  -32.6330   15.1080 C.2   194  ASP194      0.3668
     15  OD1       11.0160  -33.4870   14.8570 O.co2 194  ASP194     -0.2456
     16  OD2        9.2010  -32.7870   15.9560 O.co2 194  ASP194     -0.2456
     17  N          9.4720  -27.4430   11.8450 N.3   196  ILE196     -0.1245
     18  CA         8.0570  -27.2710   11.6300 C.3   196  ILE196      0.1561
     19  C          7.8480  -25.8530   11.0580 C.2   196  ILE196      0.2260
     20  O          8.5810  -24.9210   11.3970 O.2   196  ILE196     -0.2867
     21  CB         7.2820  -27.4960   12.9230 C.3   196  ILE196      0.0252
     22  CG1        7.4750  -28.9260   13.4410 C.3   196  ILE196      0.0019
     23  CG2        5.7750  -27.1490   12.7360 C.3   196  ILE196      0.0019
     24  CD1        6.7210  -29.2180   14.8230 C.3   196  ILE196      0.0001
     25  N          0.3330  -27.1420   16.9790 N.3   204  LEU204     -0.1231
     26  CA         0.8140  -28.1940   17.9050 C.3   204  LEU204      0.1693
     27  C          0.3910  -27.8810   19.3260 C.2   204  LEU204      0.2592
     28  O          0.8280  -26.8790   19.8840 O.2   204  LEU204     -0.2718
     29  CB         2.3400  -28.2830   17.8670 C.3   204  LEU204      0.0284
     30  CG         3.0170  -29.1110   18.9650 C.3   204  LEU204      0.0019
     31  CD1        2.6920  -30.5900   18.7540 C.3   204  LEU204      0.0001
     32  CD2        4.5540  -28.8340   19.0230 C.3   204  LEU204      0.0001
     33  N         -0.4580  -28.7050   19.9290 N.am  205  ASN205     -0.1960
     34  CA        -0.6580  -28.5380   21.3620 C.3   205  ASN205      0.1819
     35  C          0.1380  -29.6210   22.1310 C.2   205  ASN205      0.2621
     36  O          0.2880  -30.7230   21.6480 O.2   205  ASN205     -0.2715
     37  CB        -2.1410  -28.5110   21.7450 C.3   205  ASN205      0.1195
     38  CG        -2.9080  -27.3130   21.1350 C.2   205  ASN205      0.2630
     39  OD1       -2.6700  -26.1410   21.4830 O.2   205  ASN205     -0.2716
     40  ND2       -3.8750  -27.6210   20.2480 N.am  205  ASN205     -0.0877
     41  N          0.6750  -29.2800   23.2990 N.am  206  ILE206     -0.1977
     42  CA         1.4580  -30.2230   24.0990 C.3   206  ILE206      0.1596
     43  C          0.7260  -30.4680   25.4020 C.2   206  ILE206      0.2287
     44  O          0.3710  -29.5240   26.1070 O.2   206  ILE206     -0.2864
     45  CB         2.8590  -29.6740   24.4040 C.3   206  ILE206      0.0276
     46  CG1        3.6440  -29.5110   23.1010 C.3   206  ILE206      0.0022
     47  CG2        3.5570  -30.6030   25.4190 C.3   206  ILE206      0.0022
     48  CD1        4.3370  -28.1640   22.9770 C.3   206  ILE206      0.0001
     49  N          7.7900  -36.1060   27.0350 N.3   212  LEU212     -0.1245
     50  CA         7.8650  -36.1370   25.5800 C.3   212  LEU212      0.1561
     51  C          9.3010  -36.4010   25.2720 C.2   212  LEU212      0.2260
     52  O         10.1680  -35.5490   25.5350 O.2   212  LEU212     -0.2867
     53  CB         7.4350  -34.8230   24.9340 C.3   212  LEU212      0.0270
     54  CG         7.6210  -34.5950   23.4300 C.3   212  LEU212      0.0019
     55  CD1        7.2020  -35.8160   22.5320 C.3   212  LEU212      0.0001
     56  CD2        6.8510  -33.3600   23.0350 C.3   212  LEU212      0.0001
     57  N         12.4080  -37.2640   22.8020 N.3   214  TYR214     -0.1241
     58  CA        13.0440  -37.0860   21.4630 C.3   214  TYR214      0.1605
     59  C         14.3060  -37.9530   21.4430 C.2   214  TYR214      0.2264
     60  O         15.1650  -37.8930   22.3600 O.2   214  TYR214     -0.2867
     61  CB        13.3950  -35.5950   21.1620 C.3   214  TYR214      0.0534
     62  CG        12.2880  -34.8660   20.4610 C.ar  214  TYR214     -0.0201
     63  CD1       12.3530  -34.5880   19.0820 C.ar  214  TYR214     -0.0009
     64  CD2       11.1370  -34.5110   21.1420 C.ar  214  TYR214     -0.0009
     65  CE1       11.2970  -33.9640   18.4100 C.ar  214  TYR214      0.0417
     66  CE2       10.0760  -33.9090   20.4980 C.ar  214  TYR214      0.0417
     67  CZ        10.1460  -33.6250   19.1290 C.ar  214  TYR214      0.1957
     68  OH         9.0630  -33.0270   18.5060 O.3   214  TYR214     -0.2866
     69  N         10.1960  -39.1400   18.0230 N.3   225  HIS225     -0.1226
     70  CA         9.7410  -38.7020   19.3410 C.3   225  HIS225      0.1752
     71  C          8.4570  -39.3880   19.7440 C.2   225  HIS225      0.2596
     72  O          7.6780  -39.7420   18.8990 O.2   225  HIS225     -0.2718
     73  CB         9.5330  -37.2100   19.3060 C.3   225  HIS225      0.0759
     74  CG         8.4260  -36.7920   18.4020 C.ar  225  HIS225      0.0818
     75  ND1        8.6260  -36.4680   17.0740 N.ar  225  HIS225     -0.2268
     76  CD2        7.1010  -36.6460   18.6350 C.ar  225  HIS225      0.1154
     77  CE1        7.4720  -36.1100   16.5380 C.ar  225  HIS225      0.1986
     78  NE2        6.5280  -36.2170   17.4590 N.ar  225  HIS225     -0.2212
     79  N          8.2180  -39.5350   21.0420 N.am  226  TYR226     -0.1962
     80  CA         7.0110  -40.1820   21.5680 C.3   226  TYR226      0.1771
     81  C          6.7360  -39.6720   22.9790 C.2   226  TYR226      0.2619
     82  O          7.6630  -39.2460   23.6860 O.2   226  TYR226     -0.2715
     83  CB         7.1480  -41.7360   21.5750 C.3   226  TYR226      0.0574
     84  CG         8.5120  -42.2070   21.9740 C.ar  226  TYR226     -0.0198
     85  CD1        8.8240  -42.4990   23.3270 C.ar  226  TYR226     -0.0009
     86  CD2        9.5480  -42.2600   21.0310 C.ar  226  TYR226     -0.0009
     87  CE1       10.1190  -42.8780   23.7020 C.ar  226  TYR226      0.0417
     88  CE2       10.8470  -42.6390   21.4130 C.ar  226  TYR226      0.0417
     89  CZ        11.1090  -42.9590   22.7420 C.ar  226  TYR226      0.1957
     90  OH        12.4040  -43.3310   23.0840 O.3   226  TYR226     -0.2866
     91  N          5.4760  -39.6950   23.3770 N.am  227  TYR227     -0.1974
     92  CA         5.0720  -39.4260   24.7500 C.3   227  TYR227      0.1639
     93  C          5.2230  -40.6920   25.5310 C.2   227  TYR227      0.2290
     94  O          5.1200  -41.7680   24.9670 O.2   227  TYR227     -0.2864
     95  CB         3.6110  -38.9720   24.8160 C.3   227  TYR227      0.0560
     96  CG         3.4190  -37.5620   24.3360 C.ar  227  TYR227     -0.0198
     97  CD1        3.9770  -36.5080   25.0250 C.ar  227  TYR227     -0.0009
     98  CD2        2.6920  -37.2790   23.2040 C.ar  227  TYR227     -0.0009
     99  CE1        3.8330  -35.2230   24.6190 C.ar  227  TYR227      0.0417
    100  CE2        2.5230  -35.9660   22.7650 C.ar  227  TYR227      0.0417
    101  CZ         3.1080  -34.9340   23.4780 C.ar  227  TYR227      0.1957
    102  OH         2.9490  -33.6010   23.0860 O.3   227  TYR227     -0.2866
@<TRIPOS>BOND
     1    19    20    2
     2    19    18    1
     3    12    11    2
     4    18    17    1
     5    18    21    1
     6    11    10    1
     7    23    21    1
     8    21    22    1
     9    22    24    1
    10    10    13    1
    11    10     9    1
    12    13    14    1
    13    15    14   ar
    14    14    16   ar
    15     4     3    2
    16    77    75   ar
    17    77    78   ar
    18    25    26    1
    19    75    74   ar
    20     3     2    1
    21    78    76   ar
    22    29    26    1
    23    29    30    1
    24    26    27    1
    25    69    70    1
    26     7     5    1
    27    74    76   ar
    28    74    73    1
    29    65    63   ar
    30    65    67   ar
    31    68    67    1
    32    31    30    1
    33     2     5    1
    34     2     1    1
    35    72    71    2
    36    30    32    1
    37    63    62   ar
    38    67    66   ar
    39    73    70    1
    40    27    28    2
    41    27    33   am
    42    70    71    1
    43     5     6    1
    44    71    79   am
    45    33    34    1
    46    40    38   am
    47    62    64   ar
    48    62    61    1
    49    66    64   ar
    50     6     8    1
    51    86    88   ar
    52    86    84   ar
    53    79    80    1
    54    38    39    2
    55    38    37    1
    56    61    58    1
    57    34    37    1
    58    34    35    1
    59    88    89   ar
    60    59    58    1
    61    59    60    2
    62    58    57    1
    63    80    83    1
    64    80    81    1
    65    83    84    1
    66    36    35    2
    67    84    85   ar
    68    35    41   am
    69    55    54    1
    70    89    90    1
    71    89    87   ar
    72   100    98   ar
    73   100   101   ar
    74    48    46    1
    75    81    91   am
    76    81    82    2
    77    56    54    1
    78   102   101    1
    79    46    45    1
    80    98    96   ar
    81    41    42    1
    82    85    87   ar
    83    91    92    1
    84    54    53    1
    85   101    99   ar
    86    42    45    1
    87    42    43    1
    88    96    95    1
    89    96    97   ar
    90    45    47    1
    91    99    97   ar
    92    92    95    1
    93    92    93    1
    94    53    50    1
    95    94    93    2
    96    51    52    2
    97    51    50    1
    98    43    44    2
    99    50    49    1
