@<TRIPOS>MOLECULE
tmp/3eznB01.pdb
 94 90 0 0 0
SMALL
GASTEIGER

@<TRIPOS>ATOM
      1  N         32.6240  -23.6590   59.5070 N.3   191  ILE191     -0.1245
      2  CA        32.7990  -22.6490   60.5930 C.3   191  ILE191      0.1561
      3  C         34.2030  -22.7300   61.2730 C.2   191  ILE191      0.2260
      4  O         34.8290  -21.6860   61.5840 O.2   191  ILE191     -0.2867
      5  CB        31.6900  -22.8060   61.6830 C.3   191  ILE191      0.0252
      6  CG1       30.3220  -22.4000   61.1300 C.3   191  ILE191      0.0019
      7  CG2       32.0780  -22.0610   62.9510 C.3   191  ILE191      0.0019
      8  CD1       29.1360  -22.9540   62.0060 C.3   191  ILE191      0.0001
      9  N         36.0880  -19.1620   61.2780 N.3   195  ASP195     -0.1239
     10  CA        36.4280  -18.5900   62.5770 C.3   195  ASP195      0.1674
     11  C         37.8190  -19.0120   63.1150 C.2   195  ASP195      0.2266
     12  O         38.1880  -18.6240   64.2130 O.2   195  ASP195     -0.2867
     13  CB        35.3220  -18.8990   63.6230 C.3   195  ASP195      0.1410
     14  CG        34.1510  -17.9600   63.5300 C.2   195  ASP195      0.3668
     15  OD1       34.3080  -16.8360   63.0370 O.co2 195  ASP195     -0.2456
     16  OD2       33.0660  -18.3140   63.9870 O.co2 195  ASP195     -0.2456
     17  N         38.8600  -21.7660   64.3500 N.3   197  ILE197     -0.1245
     18  CA        38.6490  -22.4750   65.6320 C.3   197  ILE197      0.1561
     19  C         39.6660  -23.6130   65.7310 C.2   197  ILE197      0.2260
     20  O         39.9650  -24.2690   64.7110 O.2   197  ILE197     -0.2867
     21  CB        37.1990  -23.0150   65.7340 C.3   197  ILE197      0.0252
     22  CG1       36.2230  -21.8400   65.6420 C.3   197  ILE197      0.0019
     23  CG2       36.9890  -23.7750   67.0080 C.3   197  ILE197      0.0019
     24  CD1       34.7500  -22.2340   65.6830 C.3   197  ILE197      0.0001
     25  N         31.2870  -27.5250   69.4890 N.3   205  LEU205     -0.1245
     26  CA        30.3450  -26.6610   68.7700 C.3   205  LEU205      0.1561
     27  C         29.1880  -27.5060   68.2420 C.2   205  LEU205      0.2260
     28  O         29.4060  -28.4940   67.5360 O.2   205  LEU205     -0.2867
     29  CB        31.0270  -25.8970   67.6330 C.3   205  LEU205      0.0270
     30  CG        30.0340  -25.1480   66.7150 C.3   205  LEU205      0.0019
     31  CD1       29.4390  -23.9690   67.4950 C.3   205  LEU205      0.0001
     32  CD2       30.7000  -24.6940   65.4560 C.3   205  LEU205      0.0001
     33  N         25.2900  -27.0300   66.2210 N.3   207  ILE207     -0.1245
     34  CA        24.4650  -26.0760   65.4850 C.3   207  ILE207      0.1561
     35  C         23.0080  -26.5080   65.5050 C.2   207  ILE207      0.2260
     36  O         22.7090  -27.5890   65.1430 O.2   207  ILE207     -0.2867
     37  CB        24.9740  -25.8600   64.0140 C.3   207  ILE207      0.0252
     38  CG1       26.4860  -25.5560   64.0370 C.3   207  ILE207      0.0019
     39  CG2       24.1720  -24.7130   63.3820 C.3   207  ILE207      0.0019
     40  CD1       27.0930  -25.2500   62.7550 C.3   207  ILE207      0.0001
     41  N         22.0520  -19.0620   60.4410 N.3   213  LEU213     -0.1245
     42  CA        23.2420  -18.5480   61.0640 C.3   213  LEU213      0.1561
     43  C         23.8930  -17.5930   60.1140 C.2   213  LEU213      0.2260
     44  O         24.2880  -17.9880   58.9870 O.2   213  LEU213     -0.2867
     45  CB        24.1830  -19.6840   61.4110 C.3   213  LEU213      0.0270
     46  CG        25.5580  -19.3490   61.9940 C.3   213  LEU213      0.0019
     47  CD1       25.4960  -18.3270   63.1350 C.3   213  LEU213      0.0001
     48  CD2       26.3110  -20.6900   62.3490 C.3   213  LEU213      0.0001
     49  N         26.8210  -14.9730   58.9980 N.3   215  TYR215     -0.1241
     50  CA        28.2010  -14.4820   59.1460 C.3   215  TYR215      0.1605
     51  C         28.3580  -13.1610   58.3790 C.2   215  TYR215      0.2264
     52  O         27.9720  -13.0890   57.1810 O.2   215  TYR215     -0.2867
     53  CB        29.2470  -15.5100   58.6550 C.3   215  TYR215      0.0534
     54  CG        29.7030  -16.4600   59.7130 C.ar  215  TYR215     -0.0201
     55  CD1       30.9320  -16.2880   60.3330 C.ar  215  TYR215     -0.0009
     56  CD2       28.8790  -17.5120   60.1540 C.ar  215  TYR215     -0.0009
     57  CE1       31.3400  -17.1300   61.3590 C.ar  215  TYR215      0.0417
     58  CE2       29.2820  -18.3480   61.1940 C.ar  215  TYR215      0.0417
     59  CZ        30.5160  -18.1410   61.8000 C.ar  215  TYR215      0.1957
     60  OH        30.9560  -18.9240   62.8650 O.3   215  TYR215     -0.2866
     61  N         29.0520  -13.0540   63.9170 N.3   226  HIS226     -0.1226
     62  CA        28.0320  -13.9320   63.4330 C.3   226  HIS226      0.1752
     63  C         26.9530  -14.0260   64.4960 C.2   226  HIS226      0.2596
     64  O         27.2180  -13.7690   65.6800 O.2   226  HIS226     -0.2718
     65  CB        28.6360  -15.2970   63.1180 C.3   226  HIS226      0.0759
     66  CG        29.1200  -16.0190   64.3340 C.ar  226  HIS226      0.0818
     67  ND1       30.3850  -15.8420   64.8510 N.ar  226  HIS226     -0.2268
     68  CD2       28.4870  -16.8740   65.1660 C.ar  226  HIS226      0.1154
     69  CE1       30.5170  -16.5850   65.9340 C.ar  226  HIS226      0.1986
     70  NE2       29.3720  -17.2020   66.1640 N.ar  226  HIS226     -0.2212
     71  N         25.7540  -14.4170   64.0680 N.am  227  TYR227     -0.1962
     72  CA        24.5730  -14.4420   64.9360 C.3   227  TYR227      0.1771
     73  C         23.5360  -15.3220   64.3120 C.2   227  TYR227      0.2619
     74  O         23.4320  -15.3970   63.0920 O.2   227  TYR227     -0.2715
     75  CB        23.9830  -13.0420   65.1560 C.3   227  TYR227      0.0574
     76  CG        23.9330  -12.1620   63.9580 C.ar  227  TYR227     -0.0198
     77  CD1       22.8250  -12.1470   63.1000 C.ar  227  TYR227     -0.0009
     78  CD2       24.9990  -11.3340   63.6530 C.ar  227  TYR227     -0.0009
     79  CE1       22.8230  -11.3490   61.9360 C.ar  227  TYR227      0.0417
     80  CE2       24.9680  -10.5040   62.5310 C.ar  227  TYR227      0.0417
     81  CZ        23.8780  -10.5270   61.6770 C.ar  227  TYR227      0.1957
     82  OH        23.9120   -9.7180   60.5610 O.3   227  TYR227     -0.2866
     83  N         22.7410  -15.9750   65.1380 N.am  228  TYR228     -0.1974
     84  CA        21.5520  -16.6420   64.6520 C.3   228  TYR228      0.1639
     85  C         20.4490  -15.6590   64.3780 C.2   228  TYR228      0.2290
     86  O         20.3740  -14.6340   65.0080 O.2   228  TYR228     -0.2864
     87  CB        21.1100  -17.6700   65.6400 C.3   228  TYR228      0.0560
     88  CG        22.0330  -18.8340   65.6850 C.ar  228  TYR228     -0.0198
     89  CD1       22.0290  -19.7770   64.6650 C.ar  228  TYR228     -0.0009
     90  CD2       22.9340  -18.9890   66.7110 C.ar  228  TYR228     -0.0009
     91  CE1       22.8550  -20.8520   64.6800 C.ar  228  TYR228      0.0417
     92  CE2       23.7890  -20.1020   66.7540 C.ar  228  TYR228      0.0417
     93  CZ        23.7410  -21.0270   65.7270 C.ar  228  TYR228      0.1957
     94  OH        24.5830  -22.1130   65.7350 O.3   228  TYR228     -0.2866
@<TRIPOS>BOND
     1    52    51    2
     2    51    50    1
     3    53    50    1
     4    53    54    1
     5    44    43    2
     6    49    50    1
     7     1     2    1
     8    54    56   ar
     9    54    55   ar
    10    43    42    1
    11    56    58   ar
    12    55    57   ar
    13    41    42    1
    14    82    81    1
    15     2     3    1
    16     2     5    1
    17    42    45    1
    18     6     5    1
    19     6     8    1
    20    58    59   ar
    21     3     4    2
    22     9    10    1
    23    57    59   ar
    24    45    46    1
    25    81    79   ar
    26    81    80   ar
    27     5     7    1
    28    59    60    1
    29    79    77   ar
    30    46    48    1
    31    46    47    1
    32    80    78   ar
    33    10    11    1
    34    10    13    1
    35    40    38    1
    36    15    14   ar
    37    74    73    2
    38    77    76   ar
    39    11    12    2
    40    65    62    1
    41    65    66    1
    42    39    37    1
    43    62    61    1
    44    62    63    1
    45    14    13    1
    46    14    16   ar
    47    78    76   ar
    48    76    75    1
    49    37    38    1
    50    37    34    1
    51    71    63   am
    52    71    72    1
    53    73    72    1
    54    73    83   am
    55    66    67   ar
    56    66    68   ar
    57    17    18    1
    58    85    84    1
    59    85    86    2
    60    63    64    2
    61    84    83    1
    62    84    87    1
    63    89    91   ar
    64    89    88   ar
    65    91    93   ar
    66    20    19    2
    67    67    69   ar
    68    72    75    1
    69    36    35    2
    70    68    70   ar
    71    32    30    1
    72    34    35    1
    73    34    33    1
    74    18    19    1
    75    18    21    1
    76    87    88    1
    77    22    24    1
    78    22    21    1
    79    88    90   ar
    80    93    94    1
    81    93    92   ar
    82    21    23    1
    83    69    70   ar
    84    90    92   ar
    85    30    31    1
    86    30    29    1
    87    28    27    2
    88    29    26    1
    89    27    26    1
    90    26    25    1
