@<TRIPOS>MOLECULE
tmp/3ezpB01.pdb
 131 127 0 0 0
SMALL
GASTEIGER

@<TRIPOS>ATOM
      1  N         -4.5890   21.8890   22.4720 N.3    20  LYS20      -0.1245
      2  CA        -3.2650   21.8970   23.0750 C.3    20  LYS20       0.1561
      3  C         -2.9500   22.9550   24.1480 C.2    20  LYS20       0.2260
      4  O         -2.2030   22.6930   25.0990 O.2    20  LYS20      -0.2867
      5  CB        -2.2590   21.9870   21.9420 C.3    20  LYS20       0.0271
      6  CG        -2.6820   21.1480   20.7470 C.3    20  LYS20       0.0035
      7  CD        -2.7540   19.6660   21.1070 C.3    20  LYS20       0.0206
      8  CE        -3.1660   18.8210   19.9060 C.3    20  LYS20       0.1093
      9  NZ        -2.8820   17.3640   20.1160 N.3    20  LYS20      -0.1314
     10  N         -3.2500   12.6850   13.3110 N.3    80  TYR80      -0.1227
     11  CA        -2.9230   12.6930   14.7410 C.3    80  TYR80       0.1736
     12  C         -2.6340   14.0770   15.3250 C.2    80  TYR80       0.2595
     13  O         -3.1770   14.4410   16.3730 O.2    80  TYR80      -0.2718
     14  CB        -1.7230   11.7760   15.0040 C.3    80  TYR80       0.0548
     15  CG        -1.2850   11.7080   16.4570 C.ar   80  TYR80      -0.0200
     16  CD1       -2.1320   11.1980   17.4400 C.ar   80  TYR80      -0.0009
     17  CD2       -0.0080   12.1280   16.8410 C.ar   80  TYR80      -0.0009
     18  CE1       -1.7180   11.1030   18.7700 C.ar   80  TYR80       0.0417
     19  CE2        0.4170   12.0390   18.1680 C.ar   80  TYR80       0.0417
     20  CZ        -0.4420   11.5240   19.1270 C.ar   80  TYR80       0.1957
     21  OH        -0.0260   11.4180   20.4370 O.3    80  TYR80      -0.2866
     22  N         -1.7650   14.8310   14.6510 N.am   81  ASN81      -0.1974
     23  CA        -1.3850   16.1740   15.0860 C.3    81  ASN81       0.1688
     24  C         -2.5370   17.1450   14.9020 C.2    81  ASN81       0.2292
     25  O         -2.9600   17.8030   15.8490 O.2    81  ASN81      -0.2864
     26  CB        -0.1690   16.6740   14.2990 C.3    81  ASN81       0.1181
     27  CG         1.1320   15.9780   14.7070 C.2    81  ASN81       0.2629
     28  OD1        2.1790   16.2060   14.1040 O.2    81  ASN81      -0.2716
     29  ND2        1.0700   15.1340   15.7340 N.am   81  ASN81      -0.0877
     30  N          3.0130   28.6210   12.4730 N.3   122  HIS122     -0.1226
     31  CA         3.9510   28.4950   11.3640 C.3   122  HIS122      0.1752
     32  C          4.1330   27.2160   10.5790 C.2   122  HIS122      0.2596
     33  O          4.8190   27.2340    9.5760 O.2   122  HIS122     -0.2718
     34  CB         5.3260   28.9810   11.8260 C.3   122  HIS122      0.0759
     35  CG         5.8710   28.2170   12.9880 C.ar  122  HIS122      0.0818
     36  ND1        7.1310   28.4340   13.4950 N.ar  122  HIS122     -0.2268
     37  CD2        5.3410   27.2120   13.7210 C.ar  122  HIS122      0.1154
     38  CE1        7.3560   27.5950   14.4880 C.ar  122  HIS122      0.1986
     39  NE2        6.2860   26.8410   14.6450 N.ar  122  HIS122     -0.2212
     40  N          3.5200   26.1150   10.9820 N.am  123  HIS123     -0.1975
     41  CA         3.7130   24.8670   10.2460 C.3   123  HIS123      0.1656
     42  C          2.8100   24.5490    9.0740 C.2   123  HIS123      0.2291
     43  O          3.1070   23.6290    8.3210 O.2   123  HIS123     -0.2864
     44  CB         3.6270   23.6890   11.1920 C.3   123  HIS123      0.0771
     45  CG         4.6070   23.7420   12.3120 C.ar  123  HIS123      0.0820
     46  ND1        5.9610   23.8670   12.1050 N.ar  123  HIS123     -0.2267
     47  CD2        4.4340   23.6730   13.6500 C.ar  123  HIS123      0.1154
     48  CE1        6.5820   23.8750   13.2720 C.ar  123  HIS123      0.1986
     49  NE2        5.6770   23.7600   14.2250 N.ar  123  HIS123     -0.2212
     50  N          1.5430   20.1110   12.4570 N.3   131  GLY131     -0.1210
     51  CA         1.9240   20.5450   13.7880 C.3   131  GLY131      0.1956
     52  C          0.9290   21.4010   14.5410 C.2   131  GLY131      0.2612
     53  O          1.3250   22.3740   15.1940 O.2   131  GLY131     -0.2717
     54  N         -0.3530   21.0220   14.4580 N.am  132  PHE132     -0.1962
     55  CA        -1.4790   21.6980   15.1160 C.3   132  PHE132      0.1771
     56  C         -1.8690   23.0120   14.4650 C.2   132  PHE132      0.2619
     57  O         -2.5380   23.8330   15.0800 O.2   132  PHE132     -0.2715
     58  CB        -1.1680   21.9570   16.5880 C.3   132  PHE132      0.0574
     59  CG        -0.6310   20.7580   17.3210 C.ar  132  PHE132     -0.0200
     60  CD1       -1.1630   19.4950   17.1030 C.ar  132  PHE132     -0.0042
     61  CD2        0.3930   20.9020   18.2590 C.ar  132  PHE132     -0.0042
     62  CE1       -0.6830   18.3840   17.8090 C.ar  132  PHE132     -0.0003
     63  CE2        0.8800   19.7990   18.9740 C.ar  132  PHE132     -0.0003
     64  CZ         0.3410   18.5380   18.7470 C.ar  132  PHE132     -0.0000
     65  N         -1.4570   23.2000   13.2190 N.am  133  CYS133     -0.1968
     66  CA        -1.7390   24.4180   12.4800 C.3   133  CYS133      0.1712
     67  C         -2.6650   24.1250   11.3150 C.2   133  CYS133      0.2296
     68  O         -2.3320   23.3370   10.4370 O.2   133  CYS133     -0.2864
     69  CB        -0.4340   25.0320   11.9480 C.3   133  CYS133      0.0983
     70  SG         0.8400   25.3510   13.2070 S.3   133  CYS133     -0.0798
     71  N         10.6900   30.4320   17.6710 N.3   158  ASP158     -0.1239
     72  CA        10.0070   29.2930   18.2700 C.3   158  ASP158      0.1674
     73  C         11.0080   28.1420   18.3740 C.2   158  ASP158      0.2266
     74  O         11.9720   28.0790   17.6170 O.2   158  ASP158     -0.2867
     75  CB         8.8530   28.8650   17.3510 C.3   158  ASP158      0.1410
     76  CG         7.7450   28.1560   18.0890 C.2   158  ASP158      0.3668
     77  OD1        6.7330   28.8190   18.3580 O.co2 158  ASP158     -0.2456
     78  OD2        7.8660   26.9570   18.4120 O.co2 158  ASP158     -0.2456
     79  N         10.6140   25.4170   17.3090 N.3   160  HIS160     -0.1241
     80  CA        10.5330   24.6260   16.0950 C.3   160  HIS160      0.1621
     81  C         10.8080   25.4170   14.8400 C.2   160  HIS160      0.2264
     82  O         10.6210   26.6240   14.7900 O.2   160  HIS160     -0.2867
     83  CB         9.1540   23.9560   15.9450 C.3   160  HIS160      0.0745
     84  CG         8.7800   23.0490   17.0700 C.ar  160  HIS160      0.0817
     85  ND1        8.3250   23.5180   18.2860 N.ar  160  HIS160     -0.2268
     86  CD2        8.8860   21.7070   17.2000 C.ar  160  HIS160      0.1154
     87  CE1        8.1870   22.5060   19.1230 C.ar  160  HIS160      0.1986
     88  NE2        8.5230   21.3930   18.4910 N.ar  160  HIS160     -0.2212
     89  N         10.4290   17.2660   15.5800 N.3   188  PHE188     -0.1241
     90  CA         9.5330   17.9750   14.6830 C.3   188  PHE188      0.1605
     91  C         10.0700   19.3330   14.2410 C.2   188  PHE188      0.2264
     92  O         10.6140   20.0880   15.0460 O.2   188  PHE188     -0.2867
     93  CB         8.1580   18.1270   15.3780 C.3   188  PHE188      0.0534
     94  CG         7.0520   18.5600   14.4550 C.ar  188  PHE188     -0.0203
     95  CD1        6.4460   17.6460   13.6110 C.ar  188  PHE188     -0.0042
     96  CD2        6.6990   19.9000   14.3540 C.ar  188  PHE188     -0.0042
     97  CE1        5.5170   18.0550   12.6700 C.ar  188  PHE188     -0.0003
     98  CE2        5.7770   20.3250   13.4150 C.ar  188  PHE188     -0.0003
     99  CZ         5.1850   19.4000   12.5680 C.ar  188  PHE188     -0.0000
    100  N          8.0600   28.1060   23.6740 N.3   247  ASP247     -0.1239
    101  CA         8.3840   26.7280   24.0390 C.3   247  ASP247      0.1674
    102  C          9.9140   26.5110   24.1550 C.2   247  ASP247      0.2266
    103  O         10.4070   25.3980   24.3560 O.2   247  ASP247     -0.2867
    104  CB         7.7180   25.7140   23.0740 C.3   247  ASP247      0.1410
    105  CG         7.7770   26.1260   21.6040 C.2   247  ASP247      0.3668
    106  OD1        8.2530   27.2270   21.2860 O.co2 247  ASP247     -0.2456
    107  OD2        7.3280   25.3360   20.7410 O.co2 247  ASP247     -0.2456
    108  N          8.5920   20.7150   26.9420 N.3   254  MET254     -0.1245
    109  CA         9.3520   20.3790   25.7460 C.3   254  MET254      0.1570
    110  C         10.7760   20.0350   26.1760 C.2   254  MET254      0.2261
    111  O         11.4640   19.2440   25.5370 O.2   254  MET254     -0.2867
    112  CB         9.3630   21.5700   24.7930 C.3   254  MET254      0.0387
    113  CG         9.0780   21.2280   23.3510 C.3   254  MET254      0.0595
    114  SD         7.4450   20.5740   23.1230 S.3   254  MET254     -0.1393
    115  CE         7.3550   20.3590   21.3830 C.3   254  MET254      0.0692
    116  N          4.2260   28.4060   19.8080 N.3   284  GLY284     -0.1225
    117  CA         4.3540   27.3590   20.8050 C.3   284  GLY284      0.1811
    118  C          4.4490   27.9660   22.1920 C.2   284  GLY284      0.2280
    119  O          4.6810   29.1650   22.3420 O.2   284  GLY284     -0.2866
    120  N          4.0480   25.5400   25.9000 N.3   286  TYR286     -0.1241
    121  CA         3.2260   24.4970   26.5770 C.3   286  TYR286      0.1605
    122  C          3.2650   24.4770   28.0930 C.2   286  TYR286      0.2264
    123  O          2.7320   23.5540   28.7220 O.2   286  TYR286     -0.2867
    124  CB         3.5410   23.0970   25.9600 C.3   286  TYR286      0.0534
    125  CG         3.4200   23.2640   24.4490 C.ar  286  TYR286     -0.0201
    126  CD1        4.5510   23.4090   23.6390 C.ar  286  TYR286     -0.0009
    127  CD2        2.1650   23.3320   23.8370 C.ar  286  TYR286     -0.0009
    128  CE1        4.4280   23.6380   22.2700 C.ar  286  TYR286      0.0417
    129  CE2        2.0410   23.5890   22.4720 C.ar  286  TYR286      0.0417
    130  CZ         3.1760   23.7530   21.7030 C.ar  286  TYR286      0.1957
    131  OH         3.0580   24.0350   20.3620 O.3   286  TYR286     -0.2866
@<TRIPOS>BOND
     1    43    42    2
     2    42    41    1
     3    33    32    2
     4    41    40    1
     5    41    44    1
     6    68    67    2
     7    32    40   am
     8    32    31    1
     9    44    45    1
    10    67    66    1
    11    31    34    1
    12    31    30    1
    13    34    35    1
    14    69    66    1
    15    69    70    1
    16    46    45   ar
    17    46    48   ar
    18    45    47   ar
    19    50    51    1
    20    66    65    1
    21    99    97   ar
    22    99    98   ar
    23    97    95   ar
    24    35    36   ar
    25    35    37   ar
    26    65    56   am
    27    48    49   ar
    28    10    11    1
    29    98    96   ar
    30    36    38   ar
    31    95    94   ar
    32    47    49   ar
    33    37    39   ar
    34    51    52    1
    35    28    27    2
    36    91    90    1
    37    91    92    2
    38    26    27    1
    39    26    23    1
    40    96    94   ar
    41    94    93    1
    42    54    52   am
    43    54    55    1
    44    56    57    2
    45    56    55    1
    46    38    39   ar
    47    52    53    2
    48    22    23    1
    49    22    12   am
    50    90    93    1
    51    90    89    1
    52    27    29   am
    53    11    14    1
    54    11    12    1
    55    82    81    2
    56    81    80    1
    57    24    23    1
    58    24    25    2
    59    14    15    1
    60    55    58    1
    61    12    13    2
    62    83    80    1
    63    83    84    1
    64    80    79    1
    65    15    17   ar
    66    15    16   ar
    67    58    59    1
    68    17    19   ar
    69    84    86   ar
    70    84    85   ar
    71    60    59   ar
    72    60    62   ar
    73    86    88   ar
    74    59    61   ar
    75    75    76    1
    76    75    72    1
    77    16    18   ar
    78    74    73    2
    79    71    72    1
    80    62    64   ar
    81    76    77   ar
    82    76    78   ar
    83    19    20   ar
    84    61    63   ar
    85    72    73    1
    86    85    87   ar
    87    88    87   ar
    88    64    63   ar
    89    18    20   ar
    90    20    21    1
    91   116   117    1
    92     8     9    1
    93     8     7    1
    94   131   130    1
    95   107   105   ar
    96     6     7    1
    97     6     5    1
    98   117   118    1
    99   106   105   ar
   100   115   114    1
   101   105   104    1
   102   130   128   ar
   103   130   129   ar
   104     5     2    1
   105   118   119    2
   106   128   126   ar
   107     1     2    1
   108   129   127   ar
   109   104   101    1
   110     2     3    1
   111   114   113    1
   112   113   112    1
   113   126   125   ar
   114   100   101    1
   115   127   125   ar
   116   101   102    1
   117     3     4    2
   118   102   103    2
   119   125   124    1
   120   112   109    1
   121   111   110    2
   122   109   110    1
   123   109   108    1
   124   120   121    1
   125   124   121    1
   126   121   122    1
   127   122   123    2
