@<TRIPOS>MOLECULE
tmp/3ezvA00.pdb
 197 188 0 0 0
SMALL
GASTEIGER

@<TRIPOS>ATOM
      1  N         -1.0010   23.7500    3.8430 N.3    10  ILE10      -0.1231
      2  CA         0.0150   24.2290    4.7940 C.3    10  ILE10       0.1692
      3  C         -0.1280   23.6250    6.1880 C.2    10  ILE10       0.2593
      4  O          0.8580   23.3790    6.8770 O.2    10  ILE10      -0.2718
      5  CB        -0.1140   25.7510    5.0080 C.3    10  ILE10       0.0266
      6  CG1        0.7760   26.5220    4.0440 C.3    10  ILE10       0.0019
      7  CG2        0.2530   26.1150    6.4350 C.3    10  ILE10       0.0020
      8  CD1        0.6700   28.0260    4.2390 C.3    10  ILE10       0.0001
      9  N         -1.3680   23.4490    6.6220 N.am   11  GLY11      -0.1942
     10  CA        -1.6410   22.9980    7.9720 C.3    11  GLY11       0.2014
     11  C         -3.0220   22.3970    8.1060 C.2    11  GLY11       0.2638
     12  O         -3.9040   22.6420    7.2850 O.2    11  GLY11      -0.2714
     13  N         -3.1880   21.5820    9.1400 N.am   12  GLU12      -0.1977
     14  CA        -4.4760   21.0020    9.4860 C.3    12  GLU12       0.1602
     15  C         -4.6920   21.1600   10.9810 C.2    12  GLU12       0.2287
     16  O         -3.7770   20.9320   11.7750 O.2    12  GLU12      -0.2864
     17  CB        -4.5200   19.5180    9.1180 C.3    12  GLU12       0.0415
     18  CG        -4.4180   19.2200    7.6250 C.3    12  GLU12       0.1163
     19  CD        -4.1220   17.7490    7.3460 C.2    12  GLU12       0.3649
     20  OE1       -3.9850   16.9760    8.3200 O.co2  12  GLU12      -0.2457
     21  OE2       -4.0140   17.3660    6.1570 O.co2  12  GLU12      -0.2457
     22  N         -5.4610   24.8930    6.5890 N.3    18  VAL18      -0.1245
     23  CA        -4.7780   26.0760    6.0670 C.3    18  VAL18       0.1561
     24  C         -4.0350   25.7560    4.7830 C.2    18  VAL18       0.2260
     25  O         -3.2900   24.7800    4.7070 O.2    18  VAL18      -0.2867
     26  CB        -3.7900   26.6620    7.0940 C.3    18  VAL18       0.0252
     27  CG1       -3.1460   27.9390    6.5520 C.3    18  VAL18       0.0019
     28  CG2       -4.5070   26.9390    8.4160 C.3    18  VAL18       0.0019
     29  N         -2.0880   32.9830    3.2180 N.3    31  ALA31      -0.1245
     30  CA        -2.4310   31.7600    3.9350 C.3    31  ALA31       0.1562
     31  C         -3.9310   31.7910    4.1020 C.2    31  ALA31       0.2260
     32  O         -4.4730   32.7140    4.6860 O.2    31  ALA31      -0.2867
     33  CB        -1.7550   31.7160    5.2960 C.3    31  ALA31       0.0290
     34  N         -7.2220   30.1000    5.5800 N.3    33  LYS33      -0.1245
     35  CA        -7.7780   29.1540    6.5310 C.3    33  LYS33       0.1561
     36  C         -9.2670   28.9050    6.2500 C.2    33  LYS33       0.2260
     37  O        -10.0810   29.8300    6.2760 O.2    33  LYS33      -0.2867
     38  CB        -7.5790   29.6480    7.9660 C.3    33  LYS33       0.0271
     39  CG        -7.8250   28.5760    9.0020 C.3    33  LYS33       0.0035
     40  CD        -7.5980   29.0670   10.4250 C.3    33  LYS33       0.0206
     41  CE        -7.8010   27.9380   11.4250 C.3    33  LYS33       0.1093
     42  NZ        -7.0030   26.7140   11.0840 N.3    33  LYS33      -0.1314
     43  N        -10.7300   41.0230   15.4150 N.3    48  LEU48      -0.1245
     44  CA        -9.3490   40.6040   15.2770 C.3    48  LEU48       0.1561
     45  C         -8.7040   41.2740   14.0650 C.2    48  LEU48       0.2260
     46  O         -7.4790   41.4180   14.0040 O.2    48  LEU48      -0.2867
     47  CB        -9.2510   39.0780   15.1780 C.3    48  LEU48       0.0270
     48  CG        -9.5200   38.3480   16.5010 C.3    48  LEU48       0.0019
     49  CD1       -8.9860   36.9030   16.4620 C.3    48  LEU48       0.0001
     50  CD2       -8.9020   39.1190   17.6790 C.3    48  LEU48       0.0001
     51  N          0.4900   38.1460   12.9980 N.3    57  VAL57      -0.1245
     52  CA         0.2450   37.8190   11.5950 C.3    57  VAL57       0.1561
     53  C         -1.0510   38.4960   11.1300 C.2    57  VAL57       0.2260
     54  O         -2.0900   38.3630   11.7650 O.2    57  VAL57      -0.2867
     55  CB         0.1700   36.2970   11.3810 C.3    57  VAL57       0.0252
     56  CG1       -0.2390   35.9630    9.9520 C.3    57  VAL57       0.0019
     57  CG2        1.5090   35.6650   11.7180 C.3    57  VAL57       0.0019
     58  N        -10.6450   32.6430    6.3030 N.3    71  LEU71      -0.1245
     59  CA        -9.8190   33.7240    6.8050 C.3    71  LEU71       0.1561
     60  C         -8.5330   33.8160    5.9900 C.2    71  LEU71       0.2260
     61  O         -7.8070   32.8280    5.8190 O.2    71  LEU71      -0.2867
     62  CB        -9.5080   33.5090    8.2830 C.3    71  LEU71       0.0270
     63  CG       -10.7310   33.2290    9.1670 C.3    71  LEU71       0.0019
     64  CD1      -10.2950   32.9490   10.5870 C.3    71  LEU71       0.0001
     65  CD2      -11.6810   34.4060    9.1180 C.3    71  LEU71       0.0001
     66  N         -4.9380   35.2760    5.5720 N.3    73  PHE73      -0.1227
     67  CA        -3.8430   35.8140    6.3610 C.3    73  PHE73       0.1736
     68  C         -2.6400   36.1290    5.4980 C.2    73  PHE73       0.2595
     69  O         -2.4180   35.5360    4.4520 O.2    73  PHE73      -0.2718
     70  CB        -3.4020   34.8120    7.4410 C.3    73  PHE73       0.0547
     71  CG        -4.4010   34.6240    8.5290 C.ar   73  PHE73      -0.0202
     72  CD1       -5.2610   33.5360    8.5180 C.ar   73  PHE73      -0.0042
     73  CD2       -4.4890   35.5280    9.5660 C.ar   73  PHE73      -0.0042
     74  CE1       -6.1920   33.3600    9.5220 C.ar   73  PHE73      -0.0003
     75  CE2       -5.4250   35.3660   10.5690 C.ar   73  PHE73      -0.0003
     76  CZ        -6.2830   34.2900   10.5430 C.ar   73  PHE73      -0.0000
     77  N         -1.8760   37.0900    5.9720 N.am   74  GLU74      -0.1965
     78  CA        -0.5240   37.3120    5.5260 C.3    74  GLU74       0.1733
     79  C          0.2600   35.9970    5.5860 C.2    74  GLU74       0.2616
     80  O          0.1560   35.2440    6.5640 O.2    74  GLU74      -0.2715
     81  CB         0.0800   38.3520    6.4590 C.3    74  GLU74       0.0429
     82  CG         1.5260   38.1610    6.7260 C.3    74  GLU74       0.1163
     83  CD         2.0740   39.1690    7.7160 C.2    74  GLU74       0.3649
     84  OE1        3.2350   39.5900    7.5260 O.co2  74  GLU74      -0.2457
     85  OE2        1.3710   39.5190    8.6940 O.co2  74  GLU74      -0.2457
     86  N          0.9920   35.7010    4.5150 N.am   75  PHE75      -0.1960
     87  CA         1.8030   34.4940    4.4190 C.3    75  PHE75       0.1771
     88  C          3.2400   34.7250    4.9150 C.2    75  PHE75       0.2619
     89  O          3.8950   35.6880    4.5310 O.2    75  PHE75      -0.2715
     90  CB         1.8430   34.0160    2.9660 C.3    75  PHE75       0.0574
     91  CG         2.6150   32.7470    2.7640 C.ar   75  PHE75      -0.0200
     92  CD1        2.0580   31.5240    3.0860 C.ar   75  PHE75      -0.0042
     93  CD2        3.8950   32.7760    2.2360 C.ar   75  PHE75      -0.0042
     94  CE1        2.7580   30.3530    2.9040 C.ar   75  PHE75      -0.0003
     95  CE2        4.6040   31.6160    2.0600 C.ar   75  PHE75      -0.0003
     96  CZ         4.0330   30.3930    2.3880 C.ar   75  PHE75      -0.0000
     97  N          3.7260   33.8340    5.7700 N.am   76  LEU76      -0.1963
     98  CA         5.1440   33.8300    6.1410 C.3    76  LEU76       0.1728
     99  C          5.7370   32.4760    5.7770 C.2    76  LEU76       0.2616
    100  O          5.0100   31.5040    5.6110 O.2    76  LEU76      -0.2715
    101  CB         5.3390   34.1660    7.6240 C.3    76  LEU76       0.0311
    102  CG         5.1740   35.6620    7.9560 C.3    76  LEU76       0.0022
    103  CD1        3.7590   35.9250    8.4300 C.3    76  LEU76       0.0001
    104  CD2        6.1610   36.1050    9.0170 C.3    76  LEU76       0.0001
    105  N          7.0520   32.3980    5.6680 N.am   77  HIS77      -0.1959
    106  CA         7.6580   31.2600    4.9930 C.3    77  HIS77       0.1787
    107  C          8.0870   30.1130    5.8680 C.2    77  HIS77       0.2620
    108  O          8.3300   29.0240    5.3600 O.2    77  HIS77      -0.2715
    109  CB         8.8310   31.7030    4.1320 C.3    77  HIS77       0.0785
    110  CG         8.4150   32.1550    2.7740 C.ar   77  HIS77       0.0821
    111  ND1        7.8360   33.3840    2.5520 N.ar   77  HIS77      -0.2267
    112  CD2        8.4610   31.5310    1.5720 C.ar   77  HIS77       0.1154
    113  CE1        7.5500   33.5010    1.2670 C.ar   77  HIS77       0.1986
    114  NE2        7.9320   32.3970    0.6500 N.ar   77  HIS77      -0.2212
    115  N          8.1430   30.3250    7.1730 N.am   78  GLN78      -0.1963
    116  CA         8.5350   29.2430    8.0700 C.3    78  GLN78       0.1733
    117  C          7.9800   29.4080    9.4770 C.2    78  GLN78       0.2616
    118  O          7.7530   30.5200    9.9380 O.2    78  GLN78      -0.2715
    119  CB        10.0530   29.1390    8.1230 C.3    78  GLN78       0.0408
    120  CG        10.5450   27.8170    8.6600 C.3    78  GLN78       0.0908
    121  CD        11.9960   27.5760    8.3340 C.2    78  GLN78       0.2608
    122  OE1       12.8560   27.7050    9.1990 O.2    78  GLN78      -0.2717
    123  NE2       12.2890   27.2630    7.0640 N.am   78  GLN78      -0.0878
    124  N          7.7750   28.2890   10.1570 N.am   79  ASP79      -0.1971
    125  CA         7.4000   28.3180   11.5690 C.3    79  ASP79       0.1709
    126  C          8.6000   28.0690   12.4670 C.2    79  ASP79       0.2293
    127  O          9.6070   27.5000   12.0380 O.2    79  ASP79      -0.2864
    128  CB         6.2640   27.3350   11.8720 C.3    79  ASP79       0.1436
    129  CG         6.7020   25.8820   11.8160 C.2    79  ASP79       0.3671
    130  OD1        7.5720   25.4610   12.5950 O.co2  79  ASP79      -0.2456
    131  OD2        6.1510   25.1410   11.0060 O.co2  79  ASP79      -0.2456
    132  N          9.9360   24.4210   12.8280 N.3    82  LYS82      -0.1245
    133  CA        10.8170   23.9310   11.7750 C.3    82  LYS82       0.1561
    134  C         12.2020   24.5140   11.9750 C.2    82  LYS82       0.2260
    135  O         13.2060   23.8270   11.8440 O.2    82  LYS82      -0.2867
    136  CB        10.2670   24.3070   10.3980 C.3    82  LYS82       0.0271
    137  CG        11.0850   23.7790    9.2430 C.3    82  LYS82       0.0035
    138  CD        10.3300   23.9500    7.9350 C.3    82  LYS82       0.0206
    139  CE        10.9300   23.0950    6.8300 C.3    82  LYS82       0.1093
    140  NZ        10.5850   23.6210    5.4720 N.3    82  LYS82      -0.1314
    141  N          4.6990   25.9220   16.6400 N.3   124  GLN124     -0.1231
    142  CA         4.0330   25.6890   15.3540 C.3   124  GLN124      0.1698
    143  C          3.1990   26.8680   14.8900 C.2   124  GLN124      0.2592
    144  O          2.9250   27.0070   13.7040 O.2   124  GLN124     -0.2718
    145  CB         3.1070   24.4760   15.4420 C.3   124  GLN124      0.0381
    146  CG         3.8280   23.1910   15.7130 C.3   124  GLN124      0.0905
    147  CD         3.7150   22.8070   17.1580 C.2   124  GLN124      0.2608
    148  OE1        4.4370   23.3200   18.0150 O.2   124  GLN124     -0.2717
    149  NE2        2.7720   21.9160   17.4500 N.am  124  GLN124     -0.0878
    150  N          2.7710   27.7190   15.8030 N.am  125  ASN125     -0.1974
    151  CA         2.0300   28.9060   15.3650 C.3   125  ASN125      0.1688
    152  C          2.7740   30.2100   15.6270 C.2   125  ASN125      0.2292
    153  O          2.1750   31.2840   15.7390 O.2   125  ASN125     -0.2864
    154  CB         0.6110   28.9230   15.9440 C.3   125  ASN125      0.1181
    155  CG         0.5820   28.8340   17.4330 C.2   125  ASN125      0.2629
    156  OD1        1.3670   29.4830   18.1170 O.2   125  ASN125     -0.2716
    157  ND2       -0.3660   28.0560   17.9600 N.am  125  ASN125     -0.0877
    158  N          5.5110   32.2970   13.5940 N.3   127  LEU127     -0.1245
    159  CA         5.9810   32.3320   12.2220 C.3   127  LEU127      0.1561
    160  C          7.0830   33.3700   12.0510 C.2   127  LEU127      0.2260
    161  O          7.0100   34.4540   12.6320 O.2   127  LEU127     -0.2867
    162  CB         4.8130   32.6410   11.2900 C.3   127  LEU127      0.0270
    163  CG         3.6050   31.7030   11.4090 C.3   127  LEU127      0.0019
    164  CD1        2.5260   32.1500   10.4210 C.3   127  LEU127      0.0001
    165  CD2        4.0010   30.2280   11.1740 C.3   127  LEU127      0.0001
    166  N          0.5540   33.8220   15.4900 N.3   137  ALA137     -0.1231
    167  CA        -0.4920   33.3610   14.5880 C.3   137  ALA137      0.1694
    168  C         -1.4140   32.3610   15.2800 C.2   137  ALA137      0.2592
    169  O         -1.1180   31.8500   16.3560 O.2   137  ALA137     -0.2718
    170  CB         0.1190   32.7310   13.3620 C.3   137  ALA137      0.0304
    171  N         -2.5410   32.0890   14.6480 N.am  138  ASP138     -0.1960
    172  CA        -3.4360   31.0260   15.0900 C.3   138  ASP138      0.1840
    173  C         -3.9910   31.3370   16.4550 C.2   138  ASP138      0.2622
    174  O         -3.9590   30.4970   17.3480 O.2   138  ASP138     -0.2715
    175  CB        -2.6740   29.7250   15.1620 C.3   138  ASP138      0.1450
    176  CG        -3.3990   28.5950   14.4780 C.2   138  ASP138      0.3671
    177  OD1       -2.7160   27.8430   13.7470 O.co2 138  ASP138     -0.2456
    178  OD2       -4.6410   28.4680   14.6630 O.co2 138  ASP138     -0.2456
    179  N         -4.4660   32.5550   16.6460 N.am  139  PHE139     -0.1974
    180  CA        -5.0600   32.8610   17.9130 C.3   139  PHE139      0.1639
    181  C         -6.1610   31.8550   18.1870 C.2   139  PHE139      0.2290
    182  O         -6.9420   31.5120   17.2960 O.2   139  PHE139     -0.2864
    183  CB        -5.6010   34.2800   17.9290 C.3   139  PHE139      0.0560
    184  CG        -4.5610   35.2990   18.1870 C.ar  139  PHE139     -0.0200
    185  CD1       -3.6130   35.5810   17.2330 C.ar  139  PHE139     -0.0042
    186  CD2       -4.5250   35.9780   19.3810 C.ar  139  PHE139     -0.0042
    187  CE1       -2.6540   36.5330   17.4660 C.ar  139  PHE139     -0.0003
    188  CE2       -3.5640   36.9190   19.6180 C.ar  139  PHE139     -0.0003
    189  CZ        -2.6260   37.1930   18.6580 C.ar  139  PHE139     -0.0000
    190  N         -9.6350   30.8700   20.1430 N.3   141  LEU141     -0.1245
    191  CA       -10.8350   31.6400   20.4460 C.3   141  LEU141      0.1561
    192  C        -11.5160   31.1450   21.7110 C.2   141  LEU141      0.2260
    193  O        -12.0460   31.9440   22.4830 O.2   141  LEU141     -0.2867
    194  CB       -11.8120   31.5760   19.2750 C.3   141  LEU141      0.0270
    195  CG       -11.4170   32.4650   18.0990 C.3   141  LEU141      0.0019
    196  CD1      -10.2640   31.8440   17.3090 C.3   141  LEU141      0.0001
    197  CD2      -12.6340   32.7210   17.2090 C.3   141  LEU141      0.0001
@<TRIPOS>BOND
     1   114   113   ar
     2   114   112   ar
     3   113   111   ar
     4   112   110   ar
     5    95    93   ar
     6    95    96   ar
     7    93    91   ar
     8    96    94   ar
     9   111   110   ar
    10    91    90    1
    11    91    92   ar
    12   110   109    1
    13    94    92   ar
    14    90    87    1
    15    29    30    1
    16     1     2    1
    17    30    31    1
    18    30    33    1
    19     6     8    1
    20     6     5    1
    21    31    32    2
    22   109   106    1
    23    87    86    1
    24    87    88    1
    25    69    68    2
    26    86    79   am
    27    89    88    2
    28    25    24    2
    29    24    23    1
    30     2     5    1
    31     2     3    1
    32    88    97   am
    33   106   105    1
    34   106   107    1
    35     5     7    1
    36   108   107    2
    37   140   139    1
    38    68    77   am
    39    68    67    1
    40    78    79    1
    41    78    77    1
    42    78    81    1
    43    66    67    1
    44    34    35    1
    45    79    80    2
    46   100    99    2
    47   105    99   am
    48    97    98    1
    49    99    98    1
    50    61    60    2
    51   107   115   am
    52    60    59    1
    53    23    22    1
    54    23    26    1
    55    98   101    1
    56    21    19   ar
    57     3     9   am
    58     3     4    2
    59    36    37    2
    60    36    35    1
    61    58    59    1
    62    67    70    1
    63    81    82    1
    64    35    38    1
    65    27    26    1
    66     9    10    1
    67    82    83    1
    68    59    62    1
    69   139   138    1
    70   123   121   am
    71    26    28    1
    72   115   116    1
    73    12    11    2
    74    19    18    1
    75    19    20   ar
    76    70    71    1
    77    84    83   ar
    78   101   102    1
    79    18    17    1
    80    83    85   ar
    81   138   137    1
    82   102   103    1
    83   102   104    1
    84    38    39    1
    85    10    11    1
    86   116   119    1
    87   116   117    1
    88    11    13   am
    89   119   120    1
    90    62    63    1
    91   121   120    1
    92   121   122    2
    93    72    71   ar
    94    72    74   ar
    95    71    73   ar
    96    39    40    1
    97    17    14    1
    98    65    63    1
    99    13    14    1
   100    63    64    1
   101   137   136    1
   102   117   118    2
   103   117   124   am
   104    14    15    1
   105    74    76   ar
   106    73    75   ar
   107    56    55    1
   108   124   125    1
   109   136   133    1
   110   164   163    1
   111    40    41    1
   112    76    75   ar
   113    15    16    2
   114   131   129   ar
   115    42    41    1
   116    53    52    1
   117    53    54    2
   118   165   163    1
   119   162   163    1
   120   162   159    1
   121    55    52    1
   122    55    57    1
   123   125   128    1
   124   125   126    1
   125    52    51    1
   126   133   134    1
   127   133   132    1
   128   129   128    1
   129   129   130   ar
   130   135   134    2
   131   127   126    2
   132   160   159    1
   133   160   161    2
   134   159   158    1
   135   170   167    1
   136   144   143    2
   137   177   176   ar
   138    46    45    2
   139    45    44    1
   140   176   178   ar
   141   176   175    1
   142   167   168    1
   143   167   166    1
   144   171   172    1
   145   171   168   am
   146   143   142    1
   147   143   150   am
   148   172   175    1
   149   172   173    1
   150    47    44    1
   151    47    48    1
   152    44    43    1
   153   168   169    2
   154   142   145    1
   155   142   141    1
   156   151   152    1
   157   151   150    1
   158   151   154    1
   159   145   146    1
   160   152   153    2
   161   146   147    1
   162   154   155    1
   163   173   179   am
   164   173   174    2
   165    49    48    1
   166    48    50    1
   167   179   180    1
   168   147   149   am
   169   147   148    2
   170   197   195    1
   171   185   187   ar
   172   185   184   ar
   173   182   181    2
   174   196   195    1
   175   155   157   am
   176   155   156    2
   177   187   189   ar
   178   180   183    1
   179   180   181    1
   180   183   184    1
   181   195   194    1
   182   184   186   ar
   183   189   188   ar
   184   194   191    1
   185   186   188   ar
   186   190   191    1
   187   191   192    1
   188   192   193    2
