@<TRIPOS>MOLECULE
tmp/3f03A00.pdb
 111 107 0 0 0
SMALL
GASTEIGER

@<TRIPOS>ATOM
      1  N         25.2530    6.4930   19.6320 N.3    24  THR24      -0.1218
      2  CA        25.2410    6.3570   18.1900 C.3    24  THR24       0.1862
      3  C         26.5230    6.9330   17.5950 C.2    24  THR24       0.2287
      4  O         26.7990    8.0970   17.8230 O.2    24  THR24      -0.2866
      5  CB        23.9550    7.0430   17.6440 C.3    24  THR24       0.1770
      6  OG1       22.7980    6.2900   18.0180 O.3    24  THR24      -0.2211
      7  CG2       23.9510    7.1990   16.1300 C.3    24  THR24       0.0375
      8  N         22.4080    2.6680   19.9280 N.3    56  ALA56      -0.1245
      9  CA        21.0600    2.2410   19.5440 C.3    56  ALA56       0.1562
     10  C         21.1440    1.3540   18.3010 C.2    56  ALA56       0.2260
     11  O         21.8610    1.6710   17.3260 O.2    56  ALA56      -0.2867
     12  CB        20.1900    3.4710   19.2910 C.3    56  ALA56       0.0290
     13  N         18.9140    6.0710   10.6480 N.3    66  TYR66      -0.1241
     14  CA        20.2150    6.6950   10.4550 C.3    66  TYR66       0.1605
     15  C         21.0810    5.7620    9.6110 C.2    66  TYR66       0.2264
     16  O         21.2220    4.5950    9.9450 O.2    66  TYR66      -0.2867
     17  CB        20.9240    6.9190   11.8030 C.3    66  TYR66       0.0534
     18  CG        20.2520    7.8880   12.7490 C.ar   66  TYR66      -0.0201
     19  CD1       19.0780    7.5480   13.3910 C.ar   66  TYR66      -0.0009
     20  CD2       20.7730    9.1400   12.9770 C.ar   66  TYR66      -0.0009
     21  CE1       18.4640    8.4230   14.2510 C.ar   66  TYR66       0.0417
     22  CE2       20.1420   10.0370   13.8360 C.ar   66  TYR66       0.0417
     23  CZ        18.9520    9.6800   14.4320 C.ar   66  TYR66       0.1957
     24  OH        18.3270   10.5850   15.2830 O.3    66  TYR66      -0.2866
     25  N         21.2130   -1.5310   23.3400 N.3    98  GLN98      -0.1245
     26  CA        20.0640   -0.6190   23.3010 C.3    98  GLN98       0.1566
     27  C         19.3310   -0.8780   21.9910 C.2    98  GLN98       0.2260
     28  O         19.8930   -0.7670   20.9100 O.2    98  GLN98      -0.2867
     29  CB        20.4910    0.8550   23.4180 C.3    98  GLN98       0.0367
     30  CG        19.2360    1.7110   23.5780 C.3    98  GLN98       0.0905
     31  CD        19.4800    3.2020   23.4980 C.2    98  GLN98       0.2608
     32  OE1       20.0380    3.6790   22.5020 O.2    98  GLN98      -0.2717
     33  NE2       19.0300    3.9430   24.5260 N.am   98  GLN98      -0.0878
     34  N         16.1970    0.0430   19.4570 N.3   100  TRP100     -0.1241
     35  CA        15.2510    1.0760   19.0440 C.3   100  TRP100      0.1605
     36  C         14.4890    0.7510   17.7810 C.2   100  TRP100      0.2264
     37  O         14.8590   -0.0900   16.9890 O.2   100  TRP100     -0.2867
     38  CB        15.8870    2.4810   18.8410 C.3   100  TRP100      0.0550
     39  CG        16.8650    2.6860   17.7060 C.ar  100  TRP100      0.0003
     40  CD1       17.3560    1.7320   16.8440 C.ar  100  TRP100      0.0946
     41  CD2       17.5660    3.8830   17.4250 C.ar  100  TRP100      0.0152
     42  NE1       18.3430    2.2820   16.0440 N.ar  100  TRP100     -0.2442
     43  CE2       18.5000    3.5930   16.3820 C.ar  100  TRP100      0.0810
     44  CE3       17.5400    5.1710   17.9650 C.ar  100  TRP100      0.0012
     45  CZ2       19.4150    4.5440   15.8880 C.ar  100  TRP100      0.0191
     46  CZ3       18.4460    6.1300   17.4540 C.ar  100  TRP100      0.0001
     47  CH2       19.3700    5.7990   16.4500 C.ar  100  TRP100      0.0015
     48  N         23.5330   15.4980    7.3600 N.3   140  ARG140     -0.1245
     49  CA        22.2530   15.7360    7.9890 C.3   140  ARG140      0.1563
     50  C         21.1960   15.9220    6.9030 C.2   140  ARG140      0.2260
     51  O         21.4500   16.4500    5.7960 O.2   140  ARG140     -0.2867
     52  CB        22.3170   16.9350    8.9540 C.3   140  ARG140      0.0307
     53  CG        23.2430   16.7440   10.1790 C.3   140  ARG140      0.0489
     54  CD        22.6820   15.7350   11.2170 C.3   140  ARG140      0.2205
     55  NE        21.6890   16.3100   12.1400 N.pl3 140  ARG140     -0.0865
     56  CZ        20.9420   15.6060   12.9950 C.cat 140  ARG140      0.5346
     57  NH1       21.0260   14.2780   13.0400 N.pl3 140  ARG140      0.1354
     58  NH2       20.0760   16.2350   13.7980 N.pl3 140  ARG140      0.1354
     59  N         14.8380    1.4240   24.0070 N.3   179  HIS179     -0.1241
     60  CA        14.9820    2.8590   23.7720 C.3   179  HIS179      0.1621
     61  C         13.6010    3.5300   23.7360 C.2   179  HIS179      0.2264
     62  O         12.9550    3.6440   22.6780 O.2   179  HIS179     -0.2867
     63  CB        15.7430    3.1320   22.4800 C.3   179  HIS179      0.0745
     64  CG        16.2760    4.5230   22.3870 C.ar  179  HIS179      0.0817
     65  ND1       15.8230    5.5580   23.1770 N.ar  179  HIS179     -0.2268
     66  CD2       17.3030    5.0160   21.6380 C.ar  179  HIS179      0.1154
     67  CE1       16.5110    6.6510   22.8760 C.ar  179  HIS179      0.1986
     68  NE2       17.4330    6.3420   21.9530 N.ar  179  HIS179     -0.2212
     69  N         13.9830   10.0990   23.8270 N.3   182  HIS182     -0.1241
     70  CA        14.6100   10.9410   22.7970 C.3   182  HIS182      0.1621
     71  C         13.8130   11.0480   21.5080 C.2   182  HIS182      0.2264
     72  O         14.3530   11.2950   20.4500 O.2   182  HIS182     -0.2867
     73  CB        16.0520   10.4950   22.5380 C.3   182  HIS182      0.0745
     74  CG        16.9160   10.6100   23.7590 C.ar  182  HIS182      0.0817
     75  ND1       18.1480    9.9910   23.8600 N.ar  182  HIS182     -0.2268
     76  CD2       16.7190   11.2510   24.9480 C.ar  182  HIS182      0.1154
     77  CE1       18.6690   10.2840   25.0410 C.ar  182  HIS182      0.1986
     78  NE2       17.8360   11.0430   25.7210 N.ar  182  HIS182     -0.2212
     79  N         12.0680    8.7980   19.7730 N.3   184  TYR184     -0.1241
     80  CA        11.9770    7.6410   18.8560 C.3   184  TYR184      0.1605
     81  C         10.5970    6.9580   19.0310 C.2   184  TYR184      0.2264
     82  O          9.7090    7.5380   19.6660 O.2   184  TYR184     -0.2867
     83  CB        13.2000    6.7480   18.9580 C.3   184  TYR184      0.0534
     84  CG        14.4360    7.5440   18.6330 C.ar  184  TYR184     -0.0201
     85  CD1       14.6830    7.9810   17.3270 C.ar  184  TYR184     -0.0009
     86  CD2       15.3470    7.8660   19.6090 C.ar  184  TYR184     -0.0009
     87  CE1       15.7970    8.7240   17.0340 C.ar  184  TYR184      0.0417
     88  CE2       16.4460    8.6320   19.3230 C.ar  184  TYR184      0.0417
     89  CZ        16.6660    9.0680   18.0310 C.ar  184  TYR184      0.1957
     90  OH        17.8120    9.8350   17.7760 O.3   184  TYR184     -0.2866
     91  N         14.6510   16.3240   21.0890 N.3   239  GLN239     -0.1245
     92  CA        14.5180   16.2300   19.6360 C.3   239  GLN239      0.1566
     93  C         13.1150   16.5620   19.2020 C.2   239  GLN239      0.2260
     94  O         12.4850   15.8600   18.3990 O.2   239  GLN239     -0.2867
     95  CB        14.9600   14.8620   19.1370 C.3   239  GLN239      0.0367
     96  CG        16.4000   14.6160   19.4640 C.3   239  GLN239      0.0905
     97  CD        17.0210   13.4970   18.6340 C.2   239  GLN239      0.2608
     98  OE1       17.8430   13.7510   17.7580 O.2   239  GLN239     -0.2717
     99  NE2       16.6640   12.2670   18.9230 N.am  239  GLN239     -0.0878
    100  N         30.2000   11.2930   14.8120 N.3   349  TYR349     -0.1241
    101  CA        29.3200   10.5970   13.8580 C.3   349  TYR349      0.1605
    102  C         30.0080   10.2800   12.5490 C.2   349  TYR349      0.2264
    103  O         30.5250   11.1830   11.8720 O.2   349  TYR349     -0.2867
    104  CB        28.0920   11.4520   13.5610 C.3   349  TYR349      0.0534
    105  CG        27.2270   11.7570   14.7440 C.ar  349  TYR349     -0.0201
    106  CD1       26.4830   10.7490   15.3410 C.ar  349  TYR349     -0.0009
    107  CD2       27.1180   13.0360   15.2530 C.ar  349  TYR349     -0.0009
    108  CE1       25.6430   11.0170   16.4080 C.ar  349  TYR349      0.0417
    109  CE2       26.3090   13.2970   16.3370 C.ar  349  TYR349      0.0417
    110  CZ        25.5490   12.2840   16.9010 C.ar  349  TYR349      0.1957
    111  OH        24.7320   12.5540   17.9690 O.3   349  TYR349     -0.2866
@<TRIPOS>BOND
     1    51    50    2
     2    50    49    1
     3    48    49    1
     4    49    52    1
     5    52    53    1
     6    15    16    2
     7    15    14    1
     8    53    54    1
     9    14    13    1
    10    14    17    1
    11    54    55    1
    12    17    18    1
    13   103   102    2
    14    55    56    2
    15   102   101    1
    16    18    20   ar
    17    18    19   ar
    18    20    22   ar
    19    56    57    1
    20    56    58    1
    21    19    21   ar
    22   104   101    1
    23   104   105    1
    24    22    23   ar
    25   101   100    1
    26    21    23   ar
    27    23    24    1
    28   105   107   ar
    29   105   106   ar
    30   107   109   ar
    31   106   108   ar
    32    45    43   ar
    33    45    47   ar
    34    42    43   ar
    35    42    40   ar
    36     7     5    1
    37   109   110   ar
    38    43    41   ar
    39   108   110   ar
    40    47    46   ar
    41    40    39   ar
    42   110   111    1
    43    37    36    2
    44    87    85   ar
    45    87    89   ar
    46    11    10    2
    47    85    84   ar
    48    41    39   ar
    49    41    44   ar
    50    46    44   ar
    51     3     4    2
    52     3     2    1
    53     5     6    1
    54     5     2    1
    55    39    38    1
    56    98    97    2
    57    90    89    1
    58    36    35    1
    59    89    88   ar
    60     2     1    1
    61    10     9    1
    62    94    93    2
    63    84    83    1
    64    84    86   ar
    65    97    99   am
    66    97    96    1
    67    38    35    1
    68    80    83    1
    69    80    81    1
    70    80    79    1
    71    81    82    2
    72    35    34    1
    73    95    96    1
    74    95    92    1
    75    93    92    1
    76    12     9    1
    77    88    86   ar
    78     9     8    1
    79    92    91    1
    80    72    71    2
    81    28    27    2
    82    71    70    1
    83    66    68   ar
    84    66    64   ar
    85    68    67   ar
    86    27    26    1
    87    64    63    1
    88    64    65   ar
    89    63    60    1
    90    32    31    2
    91    73    70    1
    92    73    74    1
    93    62    61    2
    94    70    69    1
    95    67    65   ar
    96    26    25    1
    97    26    29    1
    98    29    30    1
    99    31    30    1
   100    31    33   am
   101    61    60    1
   102    74    75   ar
   103    74    76   ar
   104    60    59    1
   105    75    77   ar
   106    76    78   ar
   107    77    78   ar
