@<TRIPOS>MOLECULE
tmp/3f07B00.pdb
 161 158 0 0 0
SMALL
GASTEIGER

@<TRIPOS>ATOM
      1  N          4.3930   17.1710   39.7930 N.3    21  LYS21      -0.1245
      2  CA         3.0110   16.7650   39.6130 C.3    21  LYS21       0.1561
      3  C          2.2730   16.2110   40.8380 C.2    21  LYS21       0.2260
      4  O          1.0480   16.2950   40.8920 O.2    21  LYS21      -0.2867
      5  CB         2.9260   15.7710   38.4510 C.3    21  LYS21       0.0271
      6  CG         1.5260   15.6300   37.8450 C.3    21  LYS21       0.0035
      7  CD         1.1040   16.8740   37.0660 C.3    21  LYS21       0.0206
      8  CE        -0.4080   16.8970   36.7840 C.3    21  LYS21       0.1093
      9  NZ        -0.9140   15.7210   36.0210 N.3    21  LYS21      -0.1314
     10  N          5.9310   17.5290   29.8420 N.3    89  ASP89      -0.1239
     11  CA         5.3340   16.3780   30.5240 C.3    89  ASP89       0.1674
     12  C          6.3540   15.7340   31.4690 C.2    89  ASP89       0.2266
     13  O          6.0300   14.7850   32.1880 O.2    89  ASP89      -0.2867
     14  CB         4.8530   15.3210   29.5100 C.3    89  ASP89       0.1410
     15  CG         3.8610   15.8750   28.4820 C.2    89  ASP89       0.3668
     16  OD1        3.3060   15.0610   27.7050 O.co2  89  ASP89      -0.2456
     17  OD2        3.6390   17.1100   28.4390 O.co2  89  ASP89      -0.2456
     18  N          6.1250    2.3970   40.5020 N.3   128  GLY128     -0.1210
     19  CA         5.0460    2.2490   39.5480 C.3   128  GLY128      0.1956
     20  C          5.2420    3.1630   38.3590 C.2   128  GLY128      0.2612
     21  O          4.3050    3.3860   37.6060 O.2   128  GLY128     -0.2717
     22  N          6.4500    3.7000   38.1970 N.am  129  TRP129     -0.1962
     23  CA         6.7660    4.5950   37.0830 C.3   129  TRP129      0.1771
     24  C          6.9010    3.8180   35.7600 C.2   129  TRP129      0.2620
     25  O          7.9830    3.7220   35.1890 O.2   129  TRP129     -0.2715
     26  CB         8.0590    5.3500   37.3850 C.3   129  TRP129      0.0590
     27  CG         7.8920    6.6260   38.1800 C.ar  129  TRP129      0.0006
     28  CD1        8.8720    7.5610   38.4420 C.ar  129  TRP129      0.0946
     29  CD2        6.6710    7.1670   38.7270 C.ar  129  TRP129      0.0152
     30  NE1        8.3310    8.6450   39.1010 N.ar  129  TRP129     -0.2442
     31  CE2        6.9850    8.4290   39.2870 C.ar  129  TRP129      0.0810
     32  CE3        5.3410    6.7160   38.7920 C.ar  129  TRP129      0.0012
     33  CZ2        6.0110    9.2420   39.8990 C.ar  129  TRP129      0.0191
     34  CZ3        4.3760    7.5300   39.4030 C.ar  129  TRP129      0.0001
     35  CH2        4.7180    8.7720   39.9440 C.ar  129  TRP129      0.0015
     36  N          5.7740    3.3130   35.2640 N.am  130  HIS130     -0.1959
     37  CA         5.6980    2.4790   34.0640 C.3   130  HIS130      0.1787
     38  C          5.8990    3.0130   32.6420 C.2   130  HIS130      0.2620
     39  O          5.9480    2.2140   31.7030 O.2   130  HIS130     -0.2715
     40  CB         4.3670    1.7150   34.0970 C.3   130  HIS130      0.0785
     41  CG         3.1550    2.5950   34.0120 C.ar  130  HIS130      0.0821
     42  ND1        1.8740    2.0920   33.9590 N.ar  130  HIS130     -0.2267
     43  CD2        3.0320    3.9420   33.9410 C.ar  130  HIS130      0.1154
     44  CE1        1.0140    3.0890   33.8550 C.ar  130  HIS130      0.1986
     45  NE2        1.6920    4.2210   33.8410 N.ar  130  HIS130     -0.2212
     46  N          6.0120    4.3270   32.4530 N.am  131  HIS131     -0.1973
     47  CA         6.1760    4.8770   31.0950 C.3   131  HIS131      0.1656
     48  C          7.6110    5.0370   30.6310 C.2   131  HIS131      0.2291
     49  O          7.8820    4.9660   29.4420 O.2   131  HIS131     -0.2864
     50  CB         5.4930    6.2400   30.9560 C.3   131  HIS131      0.0771
     51  CG         4.0100    6.1990   31.1230 C.ar  131  HIS131      0.0820
     52  ND1        3.2130    5.3010   30.4520 N.ar  131  HIS131     -0.2267
     53  CD2        3.1770    6.9530   31.8770 C.ar  131  HIS131      0.1154
     54  CE1        1.9510    5.5010   30.7870 C.ar  131  HIS131      0.1986
     55  NE2        1.9010    6.4990   31.6500 N.ar  131  HIS131     -0.2212
     56  N          5.8510   10.7810   30.2810 N.3   139  GLY139     -0.1210
     57  CA         4.7630   10.9850   31.2250 C.3   139  GLY139      0.1956
     58  C          5.1340   10.8930   32.6940 C.2   139  GLY139      0.2612
     59  O          4.6410   10.0270   33.4160 O.2   139  GLY139     -0.2717
     60  N          6.0050   11.7950   33.1280 N.am  140  PHE140     -0.1962
     61  CA         6.4690   11.8620   34.5100 C.3   140  PHE140      0.1771
     62  C          7.2180   10.6360   35.0100 C.2   140  PHE140      0.2619
     63  O          7.3050   10.4190   36.2140 O.2   140  PHE140     -0.2715
     64  CB         5.3050   12.1490   35.4610 C.3   140  PHE140      0.0574
     65  CG         4.5480   13.3990   35.1310 C.ar  140  PHE140     -0.0200
     66  CD1        3.5080   13.3730   34.1990 C.ar  140  PHE140     -0.0042
     67  CD2        4.8880   14.6170   35.7330 C.ar  140  PHE140     -0.0042
     68  CE1        2.8160   14.5440   33.8670 C.ar  140  PHE140     -0.0003
     69  CE2        4.2020   15.7980   35.4080 C.ar  140  PHE140     -0.0003
     70  CZ         3.1630   15.7600   34.4720 C.ar  140  PHE140     -0.0000
     71  N          7.7550    9.8390   34.0960 N.am  141  CYS141     -0.1968
     72  CA         8.5110    8.6540   34.4740 C.3   141  CYS141      0.1712
     73  C          9.9440    8.8050   33.9920 C.2   141  CYS141      0.2296
     74  O         10.2380    8.5430   32.8330 O.2   141  CYS141     -0.2864
     75  CB         7.8840    7.4050   33.8590 C.3   141  CYS141      0.0983
     76  SG         6.2610    7.0030   34.5220 S.3   141  CYS141     -0.0798
     77  N         -3.0110    0.6520   36.2880 N.3   166  ASP166     -0.1239
     78  CA        -3.0270    2.1050   36.2710 C.3   166  ASP166      0.1674
     79  C         -4.0400    2.4880   35.2170 C.2   166  ASP166      0.2266
     80  O         -4.4500    1.6460   34.4240 O.2   166  ASP166     -0.2867
     81  CB        -1.6670    2.6680   35.8710 C.3   166  ASP166      0.1410
     82  CG        -1.6050    4.1650   36.0060 C.2   166  ASP166      0.3668
     83  OD1       -1.2690    4.6220   37.1110 O.co2 166  ASP166     -0.2456
     84  OD2       -1.9040    4.8780   35.0210 O.co2 166  ASP166     -0.2456
     85  N         -3.5140    4.5080   32.7640 N.3   168  HIS168     -0.1241
     86  CA        -2.7900    4.4760   31.5090 C.3   168  HIS168      0.1621
     87  C         -2.1860    3.1270   31.1950 C.2   168  HIS168      0.2264
     88  O         -1.9650    2.3140   32.0930 O.2   168  HIS168     -0.2867
     89  CB        -1.6990    5.5390   31.5290 C.3   168  HIS168      0.0745
     90  CG        -2.2040    6.8980   31.8980 C.ar  168  HIS168      0.0817
     91  ND1       -2.2300    7.3560   33.1970 N.ar  168  HIS168     -0.2268
     92  CD2       -2.7720    7.8700   31.1450 C.ar  168  HIS168      0.1154
     93  CE1       -2.7930    8.5510   33.2260 C.ar  168  HIS168      0.1986
     94  NE2       -3.1310    8.8860   31.9940 N.ar  168  HIS168     -0.2212
     95  N         -6.2070   10.1380   21.3290 N.3   194  GLY194     -0.1210
     96  CA        -5.6520   11.2690   22.0490 C.3   194  GLY194      0.1956
     97  C         -5.2370   10.9280   23.4670 C.2   194  GLY194      0.2612
     98  O         -4.3540   11.5770   24.0270 O.2   194  GLY194     -0.2717
     99  N         -5.8680    9.9150   24.0560 N.am  195  PHE195     -0.1962
    100  CA        -5.5310    9.5310   25.4150 C.3   195  PHE195      0.1771
    101  C         -4.1600    8.8880   25.4210 C.2   195  PHE195      0.2619
    102  O         -3.9470    7.8780   24.7540 O.2   195  PHE195     -0.2715
    103  CB        -6.5630    8.5610   25.9860 C.3   195  PHE195      0.0574
    104  CG        -6.4740    8.4110   27.4800 C.ar  195  PHE195     -0.0200
    105  CD1       -6.1030    7.2020   28.0540 C.ar  195  PHE195     -0.0042
    106  CD2       -6.7030    9.5060   28.3140 C.ar  195  PHE195     -0.0042
    107  CE1       -5.9540    7.0860   29.4380 C.ar  195  PHE195     -0.0003
    108  CE2       -6.5580    9.4050   29.6990 C.ar  195  PHE195     -0.0003
    109  CZ        -6.1820    8.1950   30.2630 C.ar  195  PHE195     -0.0000
    110  N         -3.2470    9.4930   26.1810 N.am  196  PHE196     -0.1974
    111  CA        -1.8610    9.0510   26.3240 C.3   196  PHE196      0.1639
    112  C         -1.7000    7.7070   27.0280 C.2   196  PHE196      0.2290
    113  O         -2.4420    7.3980   27.9490 O.2   196  PHE196     -0.2864
    114  CB        -1.0950   10.1420   27.0700 C.3   196  PHE196      0.0560
    115  CG         0.2530    9.7190   27.5890 C.ar  196  PHE196     -0.0200
    116  CD1        0.3740    9.1300   28.8360 C.ar  196  PHE196     -0.0042
    117  CD2        1.4070    9.9410   26.8460 C.ar  196  PHE196     -0.0042
    118  CE1        1.6220    8.7710   29.3380 C.ar  196  PHE196     -0.0003
    119  CE2        2.6510    9.5850   27.3410 C.ar  196  PHE196     -0.0003
    120  CZ         2.7580    9.0000   28.5850 C.ar  196  PHE196     -0.0000
    121  N          1.2430   -3.1300   39.5670 N.3   251  GLN251     -0.1245
    122  CA         1.2110   -1.6660   39.6400 C.3   251  GLN251      0.1566
    123  C         -0.2390   -1.2420   39.8810 C.2   251  GLN251      0.2260
    124  O         -1.1430   -1.6400   39.1370 O.2   251  GLN251     -0.2867
    125  CB         1.7550   -1.0600   38.3390 C.3   251  GLN251      0.0367
    126  CG         2.1570    0.3960   38.4460 C.3   251  GLN251      0.0905
    127  CD         1.0840    1.3430   37.9490 C.2   251  GLN251      0.2608
    128  OE1       -0.0940    1.1300   38.1860 O.2   251  GLN251     -0.2717
    129  NE2        1.4930    2.4070   37.2690 N.am  251  GLN251     -0.0878
    130  N         -5.0250    6.5140   39.5750 N.3   255  ASP255     -0.1239
    131  CA        -5.6110    7.4830   38.6760 C.3   255  ASP255      0.1674
    132  C         -6.8520    6.9070   37.9620 C.2   255  ASP255      0.2266
    133  O         -7.3880    7.4890   37.0110 O.2   255  ASP255     -0.2867
    134  CB        -4.5440    8.0270   37.6850 C.3   255  ASP255      0.1410
    135  CG        -3.8920    6.9480   36.8190 C.2   255  ASP255      0.3668
    136  OD1       -3.8870    5.7620   37.2070 O.co2 255  ASP255     -0.2456
    137  OD2       -3.3560    7.3040   35.7470 O.co2 255  ASP255     -0.2456
    138  N         -8.0040   12.9400   36.0240 N.3   262  MET262     -0.1245
    139  CA        -8.0650   12.1790   34.7840 C.3   262  MET262      0.1570
    140  C         -9.4880   11.8970   34.3010 C.2   262  MET262      0.2261
    141  O         -9.6890   11.5430   33.1480 O.2   262  MET262     -0.2867
    142  CB        -7.3090   10.8620   34.9510 C.3   262  MET262      0.0387
    143  CG        -5.8060   11.0210   35.0980 C.3   262  MET262      0.0595
    144  SD        -5.0380   11.8630   33.6870 S.3   262  MET262     -0.1393
    145  CE        -4.1800   13.2260   34.5430 C.3   262  MET262      0.0692
    146  N          0.2180    6.2580   39.0190 N.3   292  GLY292     -0.1225
    147  CA        -0.7220    7.3560   38.8760 C.3   292  GLY292      0.1811
    148  C         -1.5300    7.5380   40.1500 C.2   292  GLY292      0.2280
    149  O         -1.6130    6.6320   40.9650 O.2   292  GLY292     -0.2866
    150  N         -3.7490   11.3670   41.4660 N.3   294  TYR294     -0.1241
    151  CA        -3.5180   12.8040   41.3700 C.3   294  TYR294      0.1605
    152  C         -4.5690   13.5850   42.1510 C.2   294  TYR294      0.2264
    153  O         -4.3650   14.7510   42.4890 O.2   294  TYR294     -0.2867
    154  CB        -3.5140   13.2480   39.9060 C.3   294  TYR294      0.0534
    155  CG        -2.4690   12.5580   39.0590 C.ar  294  TYR294     -0.0201
    156  CD1       -2.8100   11.5030   38.2230 C.ar  294  TYR294     -0.0009
    157  CD2       -1.1400   12.9610   39.0960 C.ar  294  TYR294     -0.0009
    158  CE1       -1.8570   10.8700   37.4470 C.ar  294  TYR294      0.0417
    159  CE2       -0.1810   12.3340   38.3240 C.ar  294  TYR294      0.0417
    160  CZ        -0.5450   11.2890   37.5010 C.ar  294  TYR294      0.1957
    161  OH         0.4060   10.6610   36.7310 O.3   294  TYR294     -0.2866
@<TRIPOS>BOND
     1    95    96    1
     2    96    97    1
     3    97    98    2
     4    97    99   am
     5    99   100    1
     6   102   101    2
     7   100   101    1
     8   100   103    1
     9   101   110   am
    10   103   104    1
    11   110   111    1
    12   111   112    1
    13   111   114    1
    14   117   119   ar
    15   117   115   ar
    16   112   113    2
    17   114   115    1
    18   119   120   ar
    19   104   105   ar
    20   104   106   ar
    21   115   116   ar
    22    16    15   ar
    23   105   107   ar
    24   106   108   ar
    25    17    15   ar
    26    15    14    1
    27   120   118   ar
    28   116   118   ar
    29   107   109   ar
    30    49    48    2
    31    14    11    1
    32   108   109   ar
    33    10    11    1
    34    56    57    1
    35    52    54   ar
    36    52    51   ar
    37    11    12    1
    38    48    47    1
    39    54    55   ar
    40    50    47    1
    41    50    51    1
    42    47    46    1
    43    51    53   ar
    44    92    90   ar
    45    92    94   ar
    46    87    86    1
    47    87    88    2
    48    57    58    1
    49    12    13    2
    50    86    89    1
    51    86    85    1
    52    89    90    1
    53    55    53   ar
    54    39    38    2
    55    90    91   ar
    56    94    93   ar
    57    46    38   am
    58    38    37    1
    59    58    60   am
    60    58    59    2
    61    74    73    2
    62    60    61    1
    63   141   140    2
    64    91    93   ar
    65   144   145    1
    66   144   143    1
    67    45    44   ar
    68    45    43   ar
    69    44    42   ar
    70    75    72    1
    71    75    76    1
    72    68    66   ar
    73    68    70   ar
    74    43    41   ar
    75    42    41   ar
    76    73    72    1
    77    41    40    1
    78    37    40    1
    79    37    36    1
    80    71    72    1
    81    71    62   am
    82    66    65   ar
    83   140   139    1
    84    80    79    2
    85    70    69   ar
    86    61    62    1
    87    61    64    1
    88   139   142    1
    89   139   138    1
    90   142   143    1
    91    62    63    2
    92    84    82   ar
    93    65    64    1
    94    65    67   ar
    95    25    24    2
    96    79    78    1
    97    36    24   am
    98    69    67   ar
    99   137   135   ar
   100    24    23    1
   101    81    82    1
   102    81    78    1
   103    82    83   ar
   104     9     8    1
   105    78    77    1
   106   161   160    1
   107     8     7    1
   108   135   136   ar
   109   135   134    1
   110   133   132    2
   111     7     6    1
   112    23    26    1
   113    23    22    1
   114   129   127   am
   115    26    27    1
   116   158   160   ar
   117   158   156   ar
   118   160   159   ar
   119    21    20    2
   120   134   131    1
   121     6     5    1
   122   127   128    2
   123   127   126    1
   124   132   131    1
   125    27    28   ar
   126    27    29   ar
   127    22    20   am
   128   156   155   ar
   129   159   157   ar
   130   125   126    1
   131   125   122    1
   132    20    19    1
   133    28    30   ar
   134     5     2    1
   135   131   130    1
   136    29    32   ar
   137    29    31   ar
   138    32    34   ar
   139   147   146    1
   140   147   148    1
   141   155   157   ar
   142   155   154    1
   143    30    31   ar
   144   124   123    2
   145    31    33   ar
   146    34    35   ar
   147    19    18    1
   148   121   122    1
   149     2     1    1
   150     2     3    1
   151   122   123    1
   152    33    35   ar
   153   154   151    1
   154   148   149    2
   155     3     4    2
   156   151   150    1
   157   151   152    1
   158   152   153    2
