@<TRIPOS>MOLECULE
tmp/3f0bA01.pdb
 187 179 0 0 0
SMALL
GASTEIGER

@<TRIPOS>ATOM
      1  N        -22.9650  -10.3550   36.0540 N.3     5  LEU5       -0.1231
      2  CA       -23.8650   -9.4600   36.7340 C.3     5  LEU5        0.1693
      3  C        -23.8480   -9.8610   38.1990 C.2     5  LEU5        0.2592
      4  O        -24.2250  -10.9690   38.5330 O.2     5  LEU5       -0.2718
      5  CB       -25.2700   -9.6160   36.1640 C.3     5  LEU5        0.0284
      6  CG       -26.4310   -8.7410   36.5900 C.3     5  LEU5        0.0019
      7  CD1      -26.0890   -7.2510   36.5600 C.3     5  LEU5        0.0001
      8  CD2      -27.6580   -9.0540   35.6640 C.3     5  LEU5        0.0001
      9  N        -23.4130   -8.9470   39.0570 N.am    6  VAL6       -0.1966
     10  CA       -23.1890   -9.2410   40.4800 C.3     6  VAL6        0.1727
     11  C        -23.3980   -7.9630   41.3310 C.2     6  VAL6        0.2616
     12  O        -23.1390   -6.8410   40.8850 O.2     6  VAL6       -0.2715
     13  CB       -21.7560   -9.8440   40.7110 C.3     6  VAL6        0.0290
     14  CG1      -20.6560   -8.8310   40.3640 C.3     6  VAL6        0.0023
     15  CG2      -21.5800  -10.3800   42.1540 C.3     6  VAL6        0.0023
     16  N        -23.8790   -8.1500   42.5500 N.am    7  ALA7       -0.1977
     17  CA       -23.8380   -7.1100   43.5550 C.3     7  ALA7        0.1597
     18  C        -22.9180   -7.6300   44.6820 C.2     7  ALA7        0.2287
     19  O        -23.1020   -8.7590   45.1710 O.2     7  ALA7       -0.2864
     20  CB       -25.2470   -6.8290   44.0630 C.3     7  ALA7        0.0319
     21  N        -29.2910  -12.9460   49.7750 N.3    20  LEU20      -0.1245
     22  CA       -28.5510  -11.7050   49.6550 C.3    20  LEU20       0.1561
     23  C        -28.6510  -11.0460   51.0270 C.2    20  LEU20       0.2260
     24  O        -29.7280  -11.0360   51.6160 O.2    20  LEU20      -0.2867
     25  CB       -29.1810  -10.7990   48.6010 C.3    20  LEU20       0.0270
     26  CG       -29.5040  -11.4010   47.2300 C.3    20  LEU20       0.0019
     27  CD1      -30.6220  -10.5840   46.5620 C.3    20  LEU20       0.0001
     28  CD2      -28.2570  -11.4690   46.3700 C.3    20  LEU20       0.0001
     29  N        -28.5020   -7.9290   51.8860 N.3    22  TRP22      -0.1227
     30  CA       -29.1100   -6.6000   51.8060 C.3    22  TRP22       0.1737
     31  C        -30.4030   -6.6080   50.9730 C.2    22  TRP22       0.2595
     32  O        -30.6310   -7.5100   50.1570 O.2    22  TRP22      -0.2718
     33  CB       -28.1180   -5.6060   51.1810 C.3    22  TRP22       0.0564
     34  CG       -27.5130   -6.1400   49.9130 C.ar   22  TRP22       0.0003
     35  CD1      -28.0910   -6.1600   48.6610 C.ar   22  TRP22       0.0946
     36  CD2      -26.2340   -6.7700   49.7730 C.ar   22  TRP22       0.0152
     37  NE1      -27.2520   -6.7740   47.7630 N.ar   22  TRP22      -0.2442
     38  CE2      -26.1020   -7.1520   48.4110 C.ar   22  TRP22       0.0810
     39  CE3      -25.1850   -7.0500   50.6620 C.ar   22  TRP22       0.0012
     40  CZ2      -24.9590   -7.7960   47.9180 C.ar   22  TRP22       0.0191
     41  CZ3      -24.0420   -7.6820   50.1650 C.ar   22  TRP22       0.0001
     42  CH2      -23.9450   -8.0500   48.8030 C.ar   22  TRP22       0.0015
     43  N        -31.2140   -5.5640   51.1750 N.am   23  HIS23      -0.1975
     44  CA       -32.4960   -5.3500   50.4970 C.3    23  HIS23       0.1656
     45  C        -32.4210   -4.0620   49.6890 C.2    23  HIS23       0.2291
     46  O        -32.5820   -2.9640   50.2330 O.2    23  HIS23      -0.2864
     47  CB       -33.6290   -5.1970   51.5240 C.3    23  HIS23       0.0771
     48  CG       -33.8140   -6.3860   52.4110 C.ar   23  HIS23       0.0820
     49  ND1      -34.3530   -7.5750   51.9590 N.ar   23  HIS23      -0.2267
     50  CD2      -33.5450   -6.5680   53.7270 C.ar   23  HIS23       0.1154
     51  CE1      -34.4030   -8.4390   52.9590 C.ar   23  HIS23       0.1986
     52  NE2      -33.9190   -7.8530   54.0430 N.ar   23  HIS23      -0.2212
     53  N        -31.2960   -2.0530   42.9350 N.3    27  ASP27      -0.1225
     54  CA       -30.4160   -3.0260   42.2910 C.3    27  ASP27       0.1805
     55  C        -31.2230   -4.1190   41.5660 C.2    27  ASP27       0.2597
     56  O        -30.8060   -4.6160   40.5100 O.2    27  ASP27      -0.2718
     57  CB       -29.4090   -3.6110   43.2870 C.3    27  ASP27       0.1424
     58  CG       -28.6330   -4.7660   42.7090 C.2    27  ASP27       0.3668
     59  OD1      -28.8680   -5.8880   43.1710 O.co2  27  ASP27      -0.2456
     60  OD2      -27.8240   -4.5710   41.7750 O.co2  27  ASP27      -0.2456
     61  N        -32.3710   -4.4830   42.1210 N.am   28  LEU28      -0.1979
     62  CA       -33.2450   -5.4740   41.4660 C.3    28  LEU28       0.1596
     63  C        -33.8440   -4.9100   40.1730 C.2    28  LEU28       0.2287
     64  O        -33.9930   -5.6290   39.1900 O.2    28  LEU28      -0.2864
     65  CB       -34.3610   -5.9460   42.3970 C.3    28  LEU28       0.0297
     66  CG       -33.9640   -6.4800   43.7820 C.3    28  LEU28       0.0022
     67  CD1      -35.2340   -6.7270   44.6370 C.3    28  LEU28       0.0001
     68  CD2      -33.0630   -7.7360   43.7260 C.3    28  LEU28       0.0001
     69  N        -32.2540   -2.6270   38.4140 N.3    30  HIS30      -0.1226
     70  CA       -31.0510   -2.6240   37.5690 C.3    30  HIS30       0.1752
     71  C        -30.8740   -3.9980   36.8830 C.2    30  HIS30       0.2595
     72  O        -30.6530   -4.0760   35.6690 O.2    30  HIS30      -0.2718
     73  CB       -29.8430   -2.2310   38.4400 C.3    30  HIS30       0.0759
     74  CG       -28.5090   -2.3610   37.7680 C.ar   30  HIS30       0.0818
     75  ND1      -28.0190   -1.4160   36.8900 N.ar   30  HIS30      -0.2268
     76  CD2      -27.5360   -3.2900   37.8980 C.ar   30  HIS30       0.1154
     77  CE1      -26.8170   -1.7750   36.4800 C.ar   30  HIS30       0.1986
     78  NE2      -26.4980   -2.9090   37.0800 N.ar   30  HIS30      -0.2212
     79  N        -30.9960   -5.0740   37.6560 N.am   31  VAL31      -0.1980
     80  CA       -30.9360   -6.4480   37.1150 C.3    31  VAL31       0.1595
     81  C        -32.0110   -6.7130   36.0490 C.2    31  VAL31       0.2287
     82  O        -31.7200   -7.3010   34.9970 O.2    31  VAL31      -0.2864
     83  CB       -31.0830   -7.5140   38.2380 C.3    31  VAL31       0.0276
     84  CG1      -31.3070   -8.8950   37.6400 C.3    31  VAL31       0.0022
     85  CG2      -29.8570   -7.5310   39.1040 C.3    31  VAL31       0.0022
     86  N        -29.8910  -15.4520   31.4750 N.3    40  LEU40      -0.1245
     87  CA       -29.1950  -15.5930   32.7600 C.3    40  LEU40       0.1561
     88  C        -28.7080  -17.0220   32.9140 C.2    40  LEU40       0.2260
     89  O        -29.4750  -17.9670   32.7130 O.2    40  LEU40      -0.2867
     90  CB       -30.1210  -15.2540   33.9260 C.3    40  LEU40       0.0270
     91  CG       -30.7120  -13.8320   33.9910 C.3    40  LEU40       0.0019
     92  CD1      -31.6970  -13.7170   35.1410 C.3    40  LEU40       0.0001
     93  CD2      -29.6070  -12.8030   34.1320 C.3    40  LEU40       0.0001
     94  N        -26.9120  -19.4250   35.7990 N.3    42  MET42      -0.1245
     95  CA       -26.6380  -19.4730   37.2420 C.3    42  MET42       0.1570
     96  C        -26.3750  -20.9020   37.7530 C.2    42  MET42       0.2261
     97  O        -26.8220  -21.8910   37.1550 O.2    42  MET42      -0.2867
     98  CB       -27.7790  -18.8030   38.0250 C.3    42  MET42       0.0387
     99  CG       -29.0280  -19.6570   38.1280 C.3    42  MET42       0.0595
    100  SD       -30.5060  -18.7390   38.4840 S.3    42  MET42      -0.1393
    101  CE       -30.8060  -17.8740   36.9320 C.3    42  MET42       0.0692
    102  N        -27.7710  -21.0410   43.5230 N.3    46  THR46      -0.1203
    103  CA       -28.3420  -19.7220   43.2760 C.3    46  THR46       0.1994
    104  C        -29.7850  -19.8210   42.8260 C.2    46  THR46       0.2617
    105  O        -30.6600  -19.0910   43.3240 O.2    46  THR46      -0.2717
    106  CB       -27.4990  -18.9470   42.2400 C.3    46  THR46       0.1784
    107  OG1      -26.2200  -18.6570   42.8100 O.3    46  THR46      -0.2211
    108  CG2      -28.1650  -17.6540   41.8240 C.3    46  THR46       0.0376
    109  N        -30.0500  -20.7150   41.8740 N.am   47  PHE47      -0.1975
    110  CA       -31.4200  -20.8960   41.4260 C.3    47  PHE47       0.1639
    111  C        -32.3510  -21.3340   42.5560 C.2    47  PHE47       0.2290
    112  O        -33.4490  -20.8090   42.7010 O.2    47  PHE47      -0.2864
    113  CB       -31.5490  -21.8800   40.2660 C.3    47  PHE47       0.0560
    114  CG       -32.9690  -22.0870   39.8610 C.ar   47  PHE47      -0.0200
    115  CD1      -33.6720  -23.2020   40.2920 C.ar   47  PHE47      -0.0042
    116  CD2      -33.6390  -21.1080   39.1270 C.ar   47  PHE47      -0.0042
    117  CE1      -35.0220  -23.3610   39.9620 C.ar   47  PHE47      -0.0003
    118  CE2      -34.9720  -21.2630   38.7900 C.ar   47  PHE47      -0.0003
    119  CZ       -35.6680  -22.3920   39.2120 C.ar   47  PHE47      -0.0000
    120  N        -32.1400  -20.8600   45.6840 N.3    49  SER49      -0.1202
    121  CA       -32.3410  -19.8210   46.6890 C.3    49  SER49       0.2020
    122  C        -33.5190  -18.9270   46.3060 C.2    49  SER49       0.2618
    123  O        -34.1640  -18.3150   47.1690 O.2    49  SER49      -0.2717
    124  CB       -31.0640  -19.0000   46.8940 C.3    49  SER49       0.2103
    125  OG       -30.8180  -18.1110   45.8210 O.3    49  SER49      -0.2182
    126  N        -33.8120  -18.8730   45.0070 N.am   50  ILE50      -0.1979
    127  CA       -34.9540  -18.0980   44.5100 C.3    50  ILE50       0.1595
    128  C        -36.1460  -19.0100   44.2600 C.2    50  ILE50       0.2287
    129  O        -37.2650  -18.7050   44.6790 O.2    50  ILE50      -0.2864
    130  CB       -34.5630  -17.2490   43.2720 C.3    50  ILE50       0.0276
    131  CG1      -33.4630  -16.2630   43.6690 C.3    50  ILE50       0.0022
    132  CG2      -35.7700  -16.5050   42.6990 C.3    50  ILE50       0.0022
    133  CD1      -33.7590  -15.4470   44.9550 C.3    50  ILE50       0.0001
    134  N        -37.7640  -19.9690   41.5540 N.3    52  LYS52      -0.1245
    135  CA       -38.6340  -19.6840   40.4090 C.3    52  LYS52       0.1561
    136  C        -37.7670  -19.0250   39.3650 C.2    52  LYS52       0.2260
    137  O        -36.8970  -18.2310   39.7200 O.2    52  LYS52      -0.2867
    138  CB       -39.6870  -18.6310   40.7680 C.3    52  LYS52       0.0271
    139  CG       -40.9440  -19.0960   41.4480 C.3    52  LYS52       0.0035
    140  CD       -41.8320  -17.8850   41.7350 C.3    52  LYS52       0.0206
    141  CE       -41.0810  -16.8110   42.5540 C.3    52  LYS52       0.1093
    142  NZ       -41.8270  -15.5120   42.6280 N.3    52  LYS52      -0.1314
    143  N        -36.8810  -16.2150   36.5320 N.3    54  LEU54      -0.1245
    144  CA       -37.2590  -14.8270   36.3380 C.3    54  LEU54       0.1561
    145  C        -37.9790  -14.6520   35.0040 C.2    54  LEU54       0.2260
    146  O        -37.4320  -15.0130   33.9680 O.2    54  LEU54      -0.2867
    147  CB       -36.0320  -13.9180   36.3960 C.3    54  LEU54       0.0270
    148  CG       -35.8100  -13.1870   37.7150 C.3    54  LEU54       0.0019
    149  CD1      -34.5340  -12.3640   37.6470 C.3    54  LEU54       0.0001
    150  CD2      -37.0210  -12.2930   38.0540 C.3    54  LEU54       0.0001
    151  N        -33.8180  -18.4380   31.4680 N.3    59  ASN59      -0.1240
    152  CA       -33.1730  -18.8540   32.7080 C.3    59  ASN59       0.1653
    153  C        -32.4630  -20.1580   32.4820 C.2    59  ASN59       0.2266
    154  O        -33.1130  -21.1720   32.2110 O.2    59  ASN59      -0.2867
    155  CB       -34.2010  -19.0140   33.8200 C.3    59  ASN59       0.1155
    156  CG       -34.8110  -17.7010   34.2450 C.2    59  ASN59       0.2627
    157  OD1      -34.6200  -17.2670   35.3840 O.2    59  ASN59      -0.2716
    158  ND2      -35.5730  -17.0590   33.3380 N.am   59  ASN59      -0.0877
    159  N        -24.8580  -14.9930   36.4440 N.3    92  PHE92      -0.1241
    160  CA       -25.7010  -14.3870   37.4460 C.3    92  PHE92       0.1605
    161  C        -25.3840  -14.8840   38.8650 C.2    92  PHE92       0.2264
    162  O        -25.9350  -14.3720   39.8380 O.2    92  PHE92      -0.2867
    163  CB       -27.1530  -14.7140   37.0930 C.3    92  PHE92       0.0534
    164  CG       -28.1580  -13.7520   37.6350 C.ar   92  PHE92      -0.0203
    165  CD1      -29.2980  -14.2190   38.2940 C.ar   92  PHE92      -0.0042
    166  CD2      -28.0200  -12.3860   37.4370 C.ar   92  PHE92      -0.0042
    167  CE1      -30.2670  -13.3270   38.7680 C.ar   92  PHE92      -0.0003
    168  CE2      -28.9810  -11.5010   37.9170 C.ar   92  PHE92      -0.0003
    169  CZ       -30.1080  -11.9790   38.5920 C.ar   92  PHE92      -0.0000
    170  N        -19.0230  -17.5920   39.3980 N.3    98  PHE98      -0.1241
    171  CA       -18.1360  -16.4280   39.2960 C.3    98  PHE98       0.1605
    172  C        -16.6530  -16.8260   39.2230 C.2    98  PHE98       0.2264
    173  O        -15.9280  -16.3810   38.3190 O.2    98  PHE98      -0.2867
    174  CB       -18.4280  -15.4440   40.4340 C.3    98  PHE98       0.0534
    175  CG       -19.7480  -14.7400   40.2810 C.ar   98  PHE98      -0.0203
    176  CD1      -20.2140  -14.3860   39.0100 C.ar   98  PHE98      -0.0042
    177  CD2      -20.5200  -14.4160   41.3810 C.ar   98  PHE98      -0.0042
    178  CE1      -21.4120  -13.7290   38.8430 C.ar   98  PHE98      -0.0003
    179  CE2      -21.7240  -13.7670   41.2300 C.ar   98  PHE98      -0.0003
    180  CZ       -22.1780  -13.4120   39.9600 C.ar   98  PHE98      -0.0000
    181  N        -22.6760   -4.0230   40.9930 N.3   111  THR111     -0.1218
    182  CA       -23.1770   -3.0890   41.9860 C.3   111  THR111      0.1862
    183  C        -22.3050   -3.2310   43.2430 C.2   111  THR111      0.2287
    184  O        -22.2760   -4.2790   43.8870 O.2   111  THR111     -0.2866
    185  CB       -24.6520   -3.3250   42.3320 C.3   111  THR111      0.1770
    186  OG1      -25.4250   -3.4180   41.1300 O.3   111  THR111     -0.2211
    187  CG2      -25.2020   -2.1840   43.2140 C.3   111  THR111      0.0375
@<TRIPOS>BOND
     1   151   152    1
     2    86    87    1
     3   154   153    2
     4   153   152    1
     5   152   155    1
     6    89    88    2
     7    87    88    1
     8    87    90    1
     9   158   156   am
    10   155   156    1
    11    90    91    1
    12   146   145    2
    13    91    93    1
    14    91    92    1
    15   156   157    2
    16    82    81    2
    17   145   144    1
    18     8     6    1
    19    72    71    2
    20    94    95    1
    21    81    80    1
    22     1     2    1
    23     5     6    1
    24     5     2    1
    25   144   147    1
    26   144   143    1
    27   147   148    1
    28   159   160    1
    29    77    75   ar
    30    77    78   ar
    31     7     6    1
    32     2     3    1
    33    71    70    1
    34    71    79   am
    35    75    74   ar
    36   101   100    1
    37    78    76   ar
    38   163   160    1
    39   163   164    1
    40    80    79    1
    41    80    83    1
    42    97    96    2
    43    95    96    1
    44    95    98    1
    45   166   164   ar
    46   166   168   ar
    47   160   161    1
    48    70    69    1
    49    70    73    1
    50   164   165   ar
    51    84    83    1
    52   149   148    1
    53   148   150    1
    54    74    76   ar
    55    74    73    1
    56   168   169   ar
    57    98    99    1
    58    99   100    1
    59     3     4    2
    60     3     9   am
    61    83    85    1
    62   165   167   ar
    63   173   172    2
    64   169   167   ar
    65   118   116   ar
    66   118   119   ar
    67   178   176   ar
    68   178   180   ar
    69   161   162    2
    70   176   175   ar
    71     9    10    1
    72   116   114   ar
    73    64    63    2
    74   119   117   ar
    75   172   171    1
    76   171   170    1
    77   171   174    1
    78   136   137    2
    79   136   135    1
    80   114   113    1
    81   114   115   ar
    82   180   179   ar
    83   117   115   ar
    84    63    62    1
    85   113   110    1
    86   175   174    1
    87   175   177   ar
    88    14    13    1
    89   135   138    1
    90   135   134    1
    91    10    13    1
    92    10    11    1
    93    56    55    2
    94    13    15    1
    95   138   139    1
    96    12    11    2
    97   181   182    1
    98   186   185    1
    99   179   177   ar
   100    11    16   am
   101   110   109    1
   102   110   111    1
   103   139   140    1
   104    62    61    1
   105    62    65    1
   106    55    61   am
   107    55    54    1
   108   140   141    1
   109    60    58   ar
   110   108   106    1
   111   109   104   am
   112   182   185    1
   113   182   183    1
   114   106   107    1
   115   106   103    1
   116    54    53    1
   117    54    57    1
   118   185   187    1
   119    65    66    1
   120    16    17    1
   121   141   142    1
   122   111   112    2
   123   132   130    1
   124    58    59   ar
   125    58    57    1
   126   104   103    1
   127   104   105    2
   128   183   184    2
   129   130   131    1
   130   130   127    1
   131   103   102    1
   132    17    20    1
   133    17    18    1
   134   131   133    1
   135    68    66    1
   136    66    67    1
   137   128   127    1
   138   128   129    2
   139   127   126    1
   140    18    19    2
   141   126   122   am
   142   120   121    1
   143   125   124    1
   144   122   121    1
   145   122   123    2
   146    28    26    1
   147    27    26    1
   148   121   124    1
   149    26    25    1
   150    37    38   ar
   151    37    35   ar
   152    40    38   ar
   153    40    42   ar
   154    38    36   ar
   155    25    22    1
   156    35    34   ar
   157    42    41   ar
   158    22    21    1
   159    22    23    1
   160    45    46    2
   161    45    44    1
   162    36    34   ar
   163    36    39   ar
   164    34    33    1
   165    32    31    2
   166    41    39   ar
   167    44    43    1
   168    44    47    1
   169    31    43   am
   170    31    30    1
   171    23    24    2
   172    33    30    1
   173    47    48    1
   174    30    29    1
   175    49    48   ar
   176    49    51   ar
   177    48    50   ar
   178    51    52   ar
   179    50    52   ar
