@<TRIPOS>MOLECULE
tmp/3f10A00.pdb
 182 175 0 0 0
SMALL
GASTEIGER

@<TRIPOS>ATOM
      1  N         25.8750   -9.1840  -17.3980 N.3    30  GLY30      -0.1225
      2  CA        25.8700  -10.0230  -16.2100 C.3    30  GLY30       0.1811
      3  C         24.5370  -10.3180  -15.5450 C.2    30  GLY30       0.2280
      4  O         24.4350  -11.2470  -14.7440 O.2    30  GLY30      -0.2866
      5  N         20.9600  -14.9050  -18.0250 N.3    33  PHE33      -0.1241
      6  CA        21.6030  -16.1140  -18.5210 C.3    33  PHE33       0.1605
      7  C         20.9050  -16.8230  -19.6800 C.2    33  PHE33       0.2264
      8  O         21.5140  -17.6570  -20.3460 O.2    33  PHE33      -0.2867
      9  CB        21.7580  -17.1020  -17.3550 C.3    33  PHE33       0.0534
     10  CG        22.5920  -16.5760  -16.2120 C.ar   33  PHE33      -0.0203
     11  CD1       23.9750  -16.4820  -16.3260 C.ar   33  PHE33      -0.0042
     12  CD2       21.9920  -16.1590  -15.0330 C.ar   33  PHE33      -0.0042
     13  CE1       24.7510  -15.9740  -15.2720 C.ar   33  PHE33      -0.0003
     14  CE2       22.7550  -15.6520  -13.9750 C.ar   33  PHE33      -0.0003
     15  CZ        24.1350  -15.5570  -14.0940 C.ar   33  PHE33      -0.0000
     16  N         20.8060  -17.2000   -9.5980 N.3   122  PHE122     -0.1241
     17  CA        21.9750  -16.6810   -8.9130 C.3   122  PHE122      0.1605
     18  C         22.5210  -17.5420   -7.7910 C.2   122  PHE122      0.2264
     19  O         23.6740  -17.3790   -7.3880 O.2   122  PHE122     -0.2867
     20  CB        21.7520  -15.2250   -8.4970 C.3   122  PHE122      0.0534
     21  CG        21.9100  -14.2730   -9.6540 C.ar  122  PHE122     -0.0203
     22  CD1       20.8610  -14.0530  -10.5380 C.ar  122  PHE122     -0.0042
     23  CD2       23.1570  -13.7220   -9.9470 C.ar  122  PHE122     -0.0042
     24  CE1       21.0510  -13.3090  -11.7000 C.ar  122  PHE122     -0.0003
     25  CE2       23.3600  -12.9770  -11.1060 C.ar  122  PHE122     -0.0003
     26  CZ        22.3070  -12.7730  -11.9870 C.ar  122  PHE122     -0.0000
     27  N         24.8050  -19.2430   -9.6790 N.3   125  SER125     -0.1202
     28  CA        25.9430  -18.4050  -10.0850 C.3   125  SER125      0.2020
     29  C         27.1100  -18.3090   -9.1030 C.2   125  SER125      0.2619
     30  O         28.2340  -18.0040   -9.5100 O.2   125  SER125     -0.2717
     31  CB        25.4740  -16.9800  -10.3930 C.3   125  SER125      0.2103
     32  OG        25.1660  -16.2690   -9.2000 O.3   125  SER125     -0.2182
     33  N         26.8510  -18.5650   -7.8210 N.am  126  ALA126     -0.1965
     34  CA        27.8870  -18.4600   -6.7860 C.3   126  ALA126      0.1728
     35  C         29.1760  -19.2220   -7.0710 C.2   126  ALA126      0.2616
     36  O         29.1810  -20.4540   -7.1680 O.2   126  ALA126     -0.2715
     37  CB        27.3220  -18.8850   -5.4350 C.3   126  ALA126      0.0334
     38  N         30.2660  -18.4690   -7.1890 N.am  127  ASN127     -0.1958
     39  CA        31.5800  -19.0380   -7.4580 C.3   127  ASN127      0.1819
     40  C         31.5500  -19.9760   -8.6570 C.2   127  ASN127      0.2621
     41  O         32.2790  -20.9630   -8.7000 O.2   127  ASN127     -0.2715
     42  CB        32.0830  -19.7820   -6.2200 C.3   127  ASN127      0.1195
     43  CG        32.5090  -18.8400   -5.1060 C.2   127  ASN127      0.2630
     44  OD1       32.6570  -19.2530   -3.9570 O.2   127  ASN127     -0.2716
     45  ND2       32.7210  -17.5690   -5.4430 N.am  127  ASN127     -0.0877
     46  N         30.7110  -19.6600   -9.6390 N.am  128  ASN128     -0.1958
     47  CA        30.5980  -20.5020  -10.8230 C.3   128  ASN128      0.1819
     48  C         31.1270  -19.7830  -12.0590 C.2   128  ASN128      0.2621
     49  O         31.5770  -18.6440  -11.9720 O.2   128  ASN128     -0.2715
     50  CB        29.1340  -20.8890  -11.0390 C.3   128  ASN128      0.1195
     51  CG        28.9720  -22.3210  -11.4990 C.2   128  ASN128      0.2630
     52  OD1       29.7920  -22.8370  -12.2520 O.2   128  ASN128     -0.2716
     53  ND2       27.9030  -22.9660  -11.0550 N.am  128  ASN128     -0.0877
     54  N         31.0810  -20.4590  -13.2030 N.am  129  ARG129     -0.1963
     55  CA        31.5290  -19.8800  -14.4690 C.3   129  ARG129      0.1729
     56  C         30.3160  -19.7420  -15.3840 C.2   129  ARG129      0.2616
     57  O         29.4070  -20.5640  -15.3330 O.2   129  ARG129     -0.2715
     58  CB        32.6000  -20.7700  -15.1070 C.3   129  ARG129      0.0348
     59  CG        33.8890  -20.8070  -14.3010 C.3   129  ARG129      0.0492
     60  CD        34.9090  -21.7810  -14.8790 C.3   129  ARG129      0.2205
     61  NE        34.4800  -23.1780  -14.7850 N.pl3 129  ARG129     -0.0865
     62  CZ        33.9370  -23.8740  -15.7820 C.cat 129  ARG129      0.5346
     63  NH1       33.7460  -23.3090  -16.9720 N.pl3 129  ARG129      0.1354
     64  NH2       33.5910  -25.1440  -15.5920 N.pl3 129  ARG129      0.1354
     65  N         30.3040  -18.7010  -16.2120 N.am  130  ILE130     -0.1977
     66  CA        29.1880  -18.4390  -17.1150 C.3   130  ILE130      0.1596
     67  C         28.6350  -19.6640  -17.8330 C.2   130  ILE130      0.2287
     68  O         27.4300  -19.9170  -17.7790 O.2   130  ILE130     -0.2864
     69  CB        29.5560  -17.3810  -18.1720 C.3   130  ILE130      0.0276
     70  CG1       30.0450  -16.1110  -17.4770 C.3   130  ILE130      0.0022
     71  CG2       28.3340  -17.0550  -19.0430 C.3   130  ILE130      0.0022
     72  CD1       29.0420  -15.5450  -16.5060 C.3   130  ILE130      0.0001
     73  N         26.7870  -22.0950  -15.5170 N.3   133  ILE133     -0.1245
     74  CA        25.5460  -21.4960  -15.0400 C.3   133  ILE133      0.1561
     75  C         24.4560  -21.6190  -16.0930 C.2   133  ILE133      0.2260
     76  O         23.3580  -22.0950  -15.8110 O.2   133  ILE133     -0.2867
     77  CB        25.7440  -20.0060  -14.7020 C.3   133  ILE133      0.0252
     78  CG1       26.8010  -19.8590  -13.6020 C.3   133  ILE133      0.0019
     79  CG2       24.4300  -19.3920  -14.2480 C.3   133  ILE133      0.0019
     80  CD1       27.3460  -18.4310  -13.4480 C.3   133  ILE133      0.0001
     81  N         26.0820  -10.8590   -1.6300 N.3   222  GLN222     -0.1245
     82  CA        26.2220  -10.5720   -3.0510 C.3   222  GLN222      0.1566
     83  C         25.0150  -11.0840   -3.8470 C.2   222  GLN222      0.2260
     84  O         24.3500  -10.3220   -4.5630 O.2   222  GLN222     -0.2867
     85  CB        27.5160  -11.1980   -3.5900 C.3   222  GLN222      0.0367
     86  CG        27.9340  -10.6740   -4.9670 C.3   222  GLN222      0.0905
     87  CD        27.6640  -11.6510   -6.1040 C.2   222  GLN222      0.2608
     88  OE1       27.7240  -11.2850   -7.2780 O.2   222  GLN222     -0.2717
     89  NE2       27.3820  -12.8970   -5.7610 N.am  222  GLN222     -0.0878
     90  N         21.9660   -9.1610   -6.0420 N.3   226  CYS226     -0.1235
     91  CA        21.6250   -9.4710   -7.4270 C.3   226  CYS226      0.1677
     92  C         20.1340   -9.7900   -7.5640 C.2   226  CYS226      0.2270
     93  O         19.4390   -9.2630   -8.4410 O.2   226  CYS226     -0.2867
     94  CB        22.4260  -10.6690   -7.9280 C.3   226  CYS226      0.0956
     95  SG        24.1650  -10.3650   -8.2410 S.3   226  CYS226     -0.0801
     96  N         17.8010   -7.3380   -9.7880 N.3   230  PHE230     -0.1241
     97  CA        17.3380   -7.8770  -11.0550 C.3   230  PHE230      0.1605
     98  C         15.8890   -8.3420  -11.1190 C.2   230  PHE230      0.2264
     99  O         15.3170   -8.4170  -12.2050 O.2   230  PHE230     -0.2867
    100  CB        18.2580   -9.0210  -11.4950 C.3   230  PHE230      0.0534
    101  CG        19.7170   -8.6410  -11.5840 C.ar  230  PHE230     -0.0203
    102  CD1       20.1000   -7.3510  -11.9510 C.ar  230  PHE230     -0.0042
    103  CD2       20.7110   -9.5920  -11.3500 C.ar  230  PHE230     -0.0042
    104  CE1       21.4530   -7.0110  -12.0920 C.ar  230  PHE230     -0.0003
    105  CE2       22.0660   -9.2670  -11.4890 C.ar  230  PHE230     -0.0003
    106  CZ        22.4340   -7.9660  -11.8620 C.ar  230  PHE230     -0.0000
    107  N         25.7320   -5.2830   -5.6190 N.3   239  PRO239     -0.2116
    108  CA        26.3410   -6.6150   -5.6770 C.3   239  PRO239      0.1372
    109  C         27.8590   -6.5190   -5.7510 C.2   239  PRO239      0.2244
    110  O         28.3990   -5.8760   -6.6570 O.2   239  PRO239     -0.2868
    111  CB        25.7520   -7.2080   -6.9590 C.3   239  PRO239      0.0268
    112  CG        24.4190   -6.5640   -7.0420 C.3   239  PRO239      0.0207
    113  CD        24.7070   -5.1320   -6.6680 C.3   239  PRO239      0.0892
    114  N         31.2270   -8.7020   -6.2200 N.3   241  ASP241     -0.1239
    115  CA        31.9050   -9.9600   -6.5420 C.3   241  ASP241      0.1674
    116  C         33.3540   -9.5270   -6.6870 C.2   241  ASP241      0.2266
    117  O         33.6860   -8.4020   -6.3150 O.2   241  ASP241     -0.2867
    118  CB        31.4240  -10.5290   -7.8740 C.3   241  ASP241      0.1410
    119  CG        31.8450   -9.6740   -9.0480 C.2   241  ASP241      0.3668
    120  OD1       32.4360  -10.2180  -10.0010 O.co2 241  ASP241     -0.2456
    121  OD2       31.5890   -8.4540   -9.0160 O.co2 241  ASP241     -0.2456
    122  N         34.9540   -8.8800   -9.4690 N.3   243  TRP243     -0.1227
    123  CA        35.0620   -7.8490  -10.5070 C.3   243  TRP243      0.1737
    124  C         34.7030   -6.4710   -9.9740 C.2   243  TRP243      0.2595
    125  O         35.4220   -5.5060  -10.2080 O.2   243  TRP243     -0.2718
    126  CB        34.1610   -8.1730  -11.6990 C.3   243  TRP243      0.0564
    127  CG        34.6580   -9.2990  -12.5310 C.ar  243  TRP243      0.0003
    128  CD1       34.0270  -10.4860  -12.7650 C.ar  243  TRP243      0.0946
    129  CD2       35.8890   -9.3440  -13.2600 C.ar  243  TRP243      0.0152
    130  NE1       34.7890  -11.2680  -13.5970 N.ar  243  TRP243     -0.2442
    131  CE2       35.9370  -10.5920  -13.9180 C.ar  243  TRP243      0.0810
    132  CE3       36.9560   -8.4510  -13.4250 C.ar  243  TRP243      0.0012
    133  CZ2       37.0120  -10.9720  -14.7290 C.ar  243  TRP243      0.0191
    134  CZ3       38.0300   -8.8290  -14.2330 C.ar  243  TRP243      0.0001
    135  CH2       38.0450  -10.0800  -14.8760 C.ar  243  TRP243      0.0015
    136  N         33.5830   -6.3790   -9.2660 N.am  244  VAL244     -0.1980
    137  CA        33.1640   -5.1010   -8.7010 C.3   244  VAL244      0.1595
    138  C         34.1620   -4.6600   -7.6340 C.2   244  VAL244      0.2287
    139  O         34.4120   -3.4640   -7.4630 O.2   244  VAL244     -0.2864
    140  CB        31.7720   -5.1930   -8.0670 C.3   244  VAL244      0.0276
    141  CG1       31.4570   -3.8990   -7.3260 C.3   244  VAL244      0.0022
    142  CG2       30.7300   -5.4550   -9.1430 C.3   244  VAL244      0.0022
    143  N         26.8600   -0.2400   -9.9760 N.3   278  GLN278     -0.1231
    144  CA        27.6560   -1.4720   -9.9990 C.3   278  GLN278      0.1698
    145  C         27.5850   -2.2230  -11.3120 C.2   278  GLN278      0.2592
    146  O         28.5340   -2.9190  -11.6680 O.2   278  GLN278     -0.2718
    147  CB        27.2970   -2.4280   -8.8440 C.3   278  GLN278      0.0381
    148  CG        26.0500   -3.2770   -9.0050 C.3   278  GLN278      0.0905
    149  CD        26.2440   -4.5660   -9.8140 C.2   278  GLN278      0.2608
    150  OE1       27.2410   -5.2750   -9.6880 O.2   278  GLN278     -0.2717
    151  NE2       25.2600   -4.8780  -10.6280 N.am  278  GLN278     -0.0878
    152  N         26.4800   -2.0880  -12.0400 N.am  279  GLN279     -0.1979
    153  CA        26.3730   -2.7880  -13.3160 C.3   279  GLN279      0.1601
    154  C         27.3740   -2.1960  -14.3120 C.2   279  GLN279      0.2287
    155  O         28.0790   -2.9400  -14.9990 O.2   279  GLN279     -0.2864
    156  CB        24.9520   -2.7040  -13.8730 C.3   279  GLN279      0.0394
    157  CG        24.5490   -3.9380  -14.6640 C.3   279  GLN279      0.0908
    158  CD        24.6000   -5.2130  -13.8190 C.2   279  GLN279      0.2608
    159  OE1       23.9410   -5.3100  -12.7870 O.2   279  GLN279     -0.2717
    160  NE2       25.3820   -6.1930  -14.2640 N.am  279  GLN279     -0.0878
    161  N         30.7800   -3.3100  -13.0910 N.3   282  PHE282     -0.1241
    162  CA        30.9620   -4.7310  -13.3590 C.3   282  PHE282      0.1605
    163  C         31.2280   -5.0210  -14.8330 C.2   282  PHE282      0.2264
    164  O         32.1940   -5.6940  -15.1860 O.2   282  PHE282     -0.2867
    165  CB        29.7170   -5.5100  -12.9290 C.3   282  PHE282      0.0534
    166  CG        29.8290   -6.9970  -13.1450 C.ar  282  PHE282     -0.0203
    167  CD1       30.4830   -7.8040  -12.2190 C.ar  282  PHE282     -0.0042
    168  CD2       29.2960   -7.5870  -14.2870 C.ar  282  PHE282     -0.0042
    169  CE1       30.6040   -9.1790  -12.4250 C.ar  282  PHE282     -0.0003
    170  CE2       29.4110   -8.9620  -14.5060 C.ar  282  PHE282     -0.0003
    171  CZ        30.0660   -9.7600  -13.5720 C.ar  282  PHE282     -0.0000
    172  N         34.7780   -6.5000  -16.1830 N.3   286  ARG286     -0.1245
    173  CA        34.8540   -7.8320  -16.7720 C.3   286  ARG286      0.1563
    174  C         35.2460   -7.8600  -18.2490 C.2   286  ARG286      0.2260
    175  O         36.0570   -8.6780  -18.6560 O.2   286  ARG286     -0.2867
    176  CB        33.5270   -8.5810  -16.5750 C.3   286  ARG286      0.0307
    177  CG        33.5690  -10.0410  -17.0390 C.3   286  ARG286      0.0489
    178  CD        32.3610  -10.8640  -16.5740 C.3   286  ARG286      0.2205
    179  NE        31.1590  -10.5730  -17.3490 N.pl3 286  ARG286     -0.0865
    180  CZ        29.9740  -11.1430  -17.1480 C.cat 286  ARG286      0.5346
    181  NH1       29.8150  -12.0480  -16.1890 N.pl3 286  ARG286      0.1354
    182  NH2       28.9410  -10.7960  -17.9040 N.pl3 286  ARG286      0.1354
@<TRIPOS>BOND
     1     8     7    2
     2     7     6    1
     3    71    69    1
     4   175   174    2
     5     6     5    1
     6     6     9    1
     7   174   173    1
     8    69    70    1
     9    69    66    1
    10   182   180    1
    11    67    68    2
    12    67    66    1
    13    70    72    1
    14     1     2    1
    15     9    10    1
    16   179   180    2
    17   179   178    1
    18   180   181    1
    19    66    65    1
    20   177   176    1
    21   177   178    1
    22    63    62    1
    23   173   176    1
    24   173   172    1
    25    11    10   ar
    26    11    13   ar
    27    65    56   am
    28    10    12   ar
    29     2     3    1
    30    75    76    2
    31    75    74    1
    32    62    64    1
    33    62    61    2
    34     3     4    2
    35    73    74    1
    36    56    57    2
    37    56    55    1
    38    13    15   ar
    39   164   163    2
    40    58    55    1
    41    58    59    1
    42    74    77    1
    43    12    14   ar
    44   155   154    2
    45    60    61    1
    46    60    59    1
    47   135   133   ar
    48   135   134   ar
    49   163   162    1
    50   133   131   ar
    51    77    79    1
    52    77    78    1
    53   157   156    1
    54   157   158    1
    55   170   168   ar
    56   170   171   ar
    57    55    54    1
    58   154   153    1
    59   168   166   ar
    60   160   158   am
    61   134   132   ar
    62    15    14   ar
    63   131   130   ar
    64   131   129   ar
    65   156   153    1
    66   158   159    2
    67    78    80    1
    68   130   128   ar
    69   171   169   ar
    70   132   129   ar
    71   162   161    1
    72   162   165    1
    73   153   152    1
    74   129   127   ar
    75    54    48   am
    76   166   165    1
    77   166   167   ar
    78   128   127   ar
    79   127   126    1
    80   169   167   ar
    81    52    51    2
    82    99    98    2
    83   104   102   ar
    84   104   106   ar
    85    48    49    2
    86    48    47    1
    87   152   145   am
    88    26    24   ar
    89    26    25   ar
    90   102   101   ar
    91   106   105   ar
    92    24    22   ar
    93   126   123    1
    94   146   145    2
    95   101   100    1
    96   101   103   ar
    97    51    53   am
    98    51    50    1
    99   100    97    1
   100   105   103   ar
   101   145   144    1
   102    98    97    1
   103    25    23   ar
   104    97    96    1
   105    50    47    1
   106    47    46    1
   107   151   149   am
   108    22    21   ar
   109   123   124    1
   110   123   122    1
   111    31    28    1
   112    31    32    1
   113   125   124    2
   114    28    27    1
   115    28    29    1
   116   120   119   ar
   117   144   143    1
   118   144   147    1
   119   124   136   am
   120    23    21   ar
   121   149   150    2
   122   149   148    1
   123    21    20    1
   124    46    40   am
   125    16    17    1
   126    30    29    2
   127   136   137    1
   128   142   140    1
   129    29    33   am
   130   119   121   ar
   131   119   118    1
   132   148   147    1
   133    17    20    1
   134    17    18    1
   135   137   140    1
   136   137   138    1
   137    41    40    2
   138    40    39    1
   139    93    92    2
   140    95    94    1
   141   140   141    1
   142    94    91    1
   143   118   115    1
   144    33    34    1
   145    18    19    2
   146   138   139    2
   147    92    91    1
   148    39    38    1
   149    39    42    1
   150    91    90    1
   151    88    87    2
   152    38    35   am
   153    36    35    2
   154    35    34    1
   155   112   111    1
   156   112   113    1
   157   111   108    1
   158    34    37    1
   159   116   115    1
   160   116   117    2
   161   113   107    1
   162   110   109    2
   163   115   114    1
   164    42    43    1
   165    87    89   am
   166    87    86    1
   167   109   108    1
   168   108   107    1
   169    45    43   am
   170    43    44    2
   171    86    85    1
   172    84    83    2
   173    83    82    1
   174    85    82    1
   175    82    81    1
