@<TRIPOS>MOLECULE
tmp/3f14A01.pdb
 101 95 0 0 0
SMALL
GASTEIGER

@<TRIPOS>ATOM
      1  N         37.2390   15.0770    8.6560 N.3    30  TRP30      -0.1241
      2  CA        38.0710   16.1700    9.1410 C.3    30  TRP30       0.1605
      3  C         37.2590   16.9580   10.1330 C.2    30  TRP30       0.2264
      4  O         36.3160   17.6360    9.7730 O.2    30  TRP30      -0.2867
      5  CB        38.5640   17.0610    8.0140 C.3    30  TRP30       0.0550
      6  CG        39.6140   18.0970    8.4290 C.ar   30  TRP30       0.0003
      7  CD1       40.2910   18.1370    9.5860 C.ar   30  TRP30       0.0946
      8  CD2       40.1580   19.1560    7.6200 C.ar   30  TRP30       0.0152
      9  NE1       41.1890   19.1730    9.5770 N.ar   30  TRP30      -0.2442
     10  CE2       41.1440   19.8190    8.3750 C.ar   30  TRP30       0.0810
     11  CE3       39.9180   19.6020    6.3180 C.ar   30  TRP30       0.0012
     12  CZ2       41.8570   20.9270    7.8840 C.ar   30  TRP30       0.0191
     13  CZ3       40.6130   20.7180    5.8370 C.ar   30  TRP30       0.0001
     14  CH2       41.5860   21.3470    6.6030 C.ar   30  TRP30       0.0015
     15  N         37.4130   19.9500   12.3950 N.3    32  ILE32      -0.1245
     16  CA        38.0610   21.2330   12.6650 C.3    32  ILE32       0.1561
     17  C         37.3900   21.7360   13.9540 C.2    32  ILE32       0.2260
     18  O         36.2580   22.2200   13.9470 O.2    32  ILE32      -0.2867
     19  CB        37.9430   22.2210   11.5160 C.3    32  ILE32       0.0252
     20  CG1       38.5540   21.5760   10.2460 C.3    32  ILE32       0.0019
     21  CG2       38.6750   23.5480   11.9030 C.3    32  ILE32       0.0019
     22  CD1       38.3720   22.4550    8.9630 C.3    32  ILE32       0.0001
     23  N         34.6960   24.4540   14.8160 N.3    35  ASN35      -0.1240
     24  CA        34.2170   24.8950   13.5100 C.3    35  ASN35       0.1653
     25  C         33.2060   23.9320   12.8680 C.2    35  ASN35       0.2266
     26  O         32.0540   24.3210   12.6740 O.2    35  ASN35      -0.2867
     27  CB        35.4190   25.1650   12.5960 C.3    35  ASN35       0.1155
     28  CG        35.0130   25.4920   11.1690 C.2    35  ASN35       0.2627
     29  OD1       33.8580   25.3390   10.7990 O.2    35  ASN35      -0.2716
     30  ND2       35.9700   25.9160   10.3650 N.am   35  ASN35      -0.0877
     31  N         36.2370   20.5050    0.1900 N.3    47  PHE47      -0.1241
     32  CA        36.4970   21.5030    1.2360 C.3    47  PHE47       0.1605
     33  C         37.9440   21.9300    1.2160 C.2    47  PHE47       0.2264
     34  O         38.2580   23.1290    1.2380 O.2    47  PHE47      -0.2867
     35  CB        36.1470   20.9030    2.5970 C.3    47  PHE47       0.0534
     36  CG        36.1790   21.8820    3.7540 C.ar   47  PHE47      -0.0203
     37  CD1       35.0380   22.5880    4.1030 C.ar   47  PHE47      -0.0042
     38  CD2       37.3160   22.0100    4.4900 C.ar   47  PHE47      -0.0042
     39  CE1       35.0800   23.4560    5.1910 C.ar   47  PHE47      -0.0003
     40  CE2       37.3520   22.8640    5.5570 C.ar   47  PHE47      -0.0003
     41  CZ        36.2250   23.5700    5.8970 C.ar   47  PHE47      -0.0000
     42  N         43.9010   29.9730    0.0450 N.3    53  GLU53      -0.1245
     43  CA        44.3180   30.5620    1.3230 C.3    53  GLU53       0.1567
     44  C         45.5960   29.9560    1.8060 C.2    53  GLU53       0.2260
     45  O         46.4570   30.6610    2.3320 O.2    53  GLU53      -0.2867
     46  CB        43.2650   30.4140    2.4040 C.3    53  GLU53       0.0388
     47  CG        43.5980   31.2920    3.5790 C.3    53  GLU53       0.1160
     48  CD        42.6500   31.1430    4.7320 C.2    53  GLU53       0.3649
     49  OE1       41.8850   30.1510    4.7630 O.co2  53  GLU53      -0.2457
     50  OE2       42.7170   32.0410    5.6050 O.co2  53  GLU53      -0.2457
     51  N         53.2510   28.1360    6.0510 N.3    58  LEU58      -0.1245
     52  CA        53.0100   27.1400    7.0790 C.3    58  LEU58       0.1561
     53  C         54.3010   26.4340    7.4550 C.2    58  LEU58       0.2260
     54  O         55.0750   26.0620    6.5760 O.2    58  LEU58      -0.2867
     55  CB        51.9300   26.1450    6.6500 C.3    58  LEU58       0.0270
     56  CG        50.5240   26.7490    6.4440 C.3    58  LEU58       0.0019
     57  CD1       50.2610   27.2360    4.9930 C.3    58  LEU58       0.0001
     58  CD2       49.4440   25.7420    6.8780 C.3    58  LEU58       0.0001
     59  N         50.7660   28.7650   11.0770 N.3    76  CYS76      -0.1235
     60  CA        50.4110   29.3190    9.7840 C.3    76  CYS76       0.1677
     61  C         50.4290   30.8470    9.8210 C.2    76  CYS76       0.2270
     62  O         49.6090   31.4760   10.5350 O.2    76  CYS76      -0.2867
     63  CB        49.0180   28.8940    9.4420 C.3    76  CYS76       0.0956
     64  SG        48.3410   29.5370    7.8830 S.3    76  CYS76      -0.0801
     65  N         49.7580   34.3710    8.1480 N.3    78  TYR78      -0.1241
     66  CA        48.8600   34.9230    7.1420 C.3    78  TYR78       0.1605
     67  C         48.6880   36.3970    7.4630 C.2    78  TYR78       0.2264
     68  O         49.3220   36.9040    8.3630 O.2    78  TYR78      -0.2867
     69  CB        47.5570   34.1460    7.1670 C.3    78  TYR78       0.0534
     70  CG        46.7200   34.4360    8.3560 C.ar   78  TYR78      -0.0201
     71  CD1       47.0370   33.8910    9.6310 C.ar   78  TYR78      -0.0009
     72  CD2       45.6080   35.2470    8.2610 C.ar   78  TYR78      -0.0009
     73  CE1       46.2930   34.1780   10.7410 C.ar   78  TYR78       0.0417
     74  CE2       44.8700   35.5720    9.4040 C.ar   78  TYR78       0.0417
     75  CZ        45.2030   35.0170   10.6290 C.ar   78  TYR78       0.1957
     76  OH        44.4670   35.3520   11.7390 O.3    78  TYR78      -0.2866
     77  N         48.3040   31.6120   13.1110 N.3    88  VAL88      -0.1245
     78  CA        47.4340   30.5950   13.7050 C.3    88  VAL88       0.1561
     79  C         48.3570   29.4560   14.1340 C.2    88  VAL88       0.2260
     80  O         49.1170   28.9410   13.3090 O.2    88  VAL88      -0.2867
     81  CB        46.4170   30.0670   12.7200 C.3    88  VAL88       0.0252
     82  CG1       45.7810   28.7120   13.2130 C.3    88  VAL88       0.0019
     83  CG2       45.3570   31.1320   12.4330 C.3    88  VAL88       0.0019
     84  N         48.5670   25.6380   15.1700 N.3    90  TYR90      -0.1241
     85  CA        47.7630   24.4450   14.9510 C.3    90  TYR90       0.1605
     86  C         48.3630   23.1700   15.5090 C.2    90  TYR90       0.2264
     87  O         49.5710   23.0010   15.6150 O.2    90  TYR90      -0.2867
     88  CB        47.4270   24.2420   13.4260 C.3    90  TYR90       0.0534
     89  CG        48.6120   24.1350   12.5050 C.ar   90  TYR90      -0.0201
     90  CD1       49.3280   22.9360   12.3330 C.ar   90  TYR90      -0.0009
     91  CD2       49.0080   25.2270   11.7480 C.ar   90  TYR90      -0.0009
     92  CE1       50.4160   22.8740   11.4840 C.ar   90  TYR90       0.0417
     93  CE2       50.0530   25.1440   10.8570 C.ar   90  TYR90       0.0417
     94  CZ        50.7710   23.9860   10.7220 C.ar   90  TYR90       0.1957
     95  OH        51.8520   23.9760    9.8430 O.3    90  TYR90      -0.2866
     96  N         43.0280   24.8290   16.0280 N.3   108  CYS108     -0.1235
     97  CA        43.6260   25.9970   15.3830 C.3   108  CYS108      0.1677
     98  C         43.2880   27.2070   16.2070 C.2   108  CYS108      0.2270
     99  O         42.1150   27.4930   16.4360 O.2   108  CYS108     -0.2867
    100  CB        43.0820   26.1850   13.9590 C.3   108  CYS108      0.0956
    101  SG        43.2270   24.7440   12.8850 S.3   108  CYS108     -0.0801
@<TRIPOS>BOND
     1    42    43    1
     2    31    32    1
     3    33    32    1
     4    33    34    2
     5    32    35    1
     6    43    44    1
     7    43    46    1
     8    44    45    2
     9    46    47    1
    10    35    36    1
    11    47    48    1
    12    36    37   ar
    13    36    38   ar
    14    37    39   ar
    15    38    40   ar
    16    48    49   ar
    17    48    50   ar
    18    57    56    1
    19    39    41   ar
    20    40    41   ar
    21    13    11   ar
    22    13    14   ar
    23    51    52    1
    24    11     8   ar
    25    56    55    1
    26    56    58    1
    27    54    53    2
    28    14    12   ar
    29    55    52    1
    30    52    53    1
    31    66    69    1
    32    66    67    1
    33    66    65    1
    34    69    70    1
    35    67    68    2
    36     8    10   ar
    37     8     6   ar
    38    64    63    1
    39    12    10   ar
    40     5     6    1
    41     5     2    1
    42    72    70   ar
    43    72    74   ar
    44    70    71   ar
    45    10     9   ar
    46     6     7   ar
    47     1     2    1
    48    22    20    1
    49     2     3    1
    50    74    75   ar
    51    63    60    1
    52     9     7   ar
    53    71    73   ar
    54     4     3    2
    55    60    61    1
    56    60    59    1
    57    61    62    2
    58    95    94    1
    59    20    19    1
    60    30    28   am
    61    75    73   ar
    62    75    76    1
    63    94    93   ar
    64    94    92   ar
    65    29    28    2
    66    93    91   ar
    67    28    27    1
    68    92    90   ar
    69    19    21    1
    70    19    16    1
    71    91    89   ar
    72    90    89   ar
    73    15    16    1
    74    83    81    1
    75    89    88    1
    76    27    24    1
    77    16    17    1
    78    26    25    2
    79    81    82    1
    80    81    78    1
    81    25    24    1
    82   101   100    1
    83    77    78    1
    84    80    79    2
    85    88    85    1
    86    24    23    1
    87    78    79    1
    88    18    17    2
    89   100    97    1
    90    85    84    1
    91    85    86    1
    92    97    96    1
    93    97    98    1
    94    86    87    2
    95    98    99    2
