@<TRIPOS>MOLECULE
tmp/3f14A00.pdb
 99 93 0 0 0
SMALL
GASTEIGER

@<TRIPOS>ATOM
      1  N         49.7900   17.3040    4.5230 N.3    12  PHE12      -0.1227
      2  CA        48.4870   17.8750    4.8610 C.3    12  PHE12       0.1736
      3  C         48.6360   19.0590    5.8220 C.2    12  PHE12       0.2596
      4  O         48.0260   20.0990    5.6090 O.2    12  PHE12      -0.2718
      5  CB        47.5430   16.8010    5.4620 C.3    12  PHE12       0.0547
      6  CG        46.1000   17.2860    5.6100 C.ar   12  PHE12      -0.0202
      7  CD1       45.6850   18.0360    6.6840 C.ar   12  PHE12      -0.0042
      8  CD2       45.1660   16.9730    4.6080 C.ar   12  PHE12      -0.0042
      9  CE1       44.3930   18.5120    6.7650 C.ar   12  PHE12      -0.0003
     10  CE2       43.8740   17.4080    4.6970 C.ar   12  PHE12      -0.0003
     11  CZ        43.4790   18.2090    5.7560 C.ar   12  PHE12      -0.0000
     12  N         49.4690   18.9130    6.8610 N.am   13  SER13      -0.1952
     13  CA        49.5790   19.9590    7.8710 C.3    13  SER13       0.1924
     14  C         50.1530   21.2610    7.3020 C.2    13  SER13       0.2314
     15  O         49.8390   22.3380    7.7580 O.2    13  SER13      -0.2863
     16  CB        50.4050   19.4840    9.0780 C.3    13  SER13       0.2116
     17  OG        49.5860   18.6690    9.9570 O.3    13  SER13      -0.2180
     18  N         49.5380   22.3730    4.4010 N.3    15  GLY15      -0.1225
     19  CA        48.5740   22.9150    3.4450 C.3    15  GLY15       0.1811
     20  C         48.6050   22.3720    2.0550 C.2    15  GLY15       0.2280
     21  O         47.8370   22.8470    1.2250 O.2    15  GLY15      -0.2866
     22  N         47.3590   19.9620    0.4840 N.3    17  PHE17      -0.1241
     23  CA        46.3350   18.9230    0.5160 C.3    17  PHE17       0.1605
     24  C         46.3330   18.0240   -0.7400 C.2    17  PHE17       0.2264
     25  O         46.2120   16.7940   -0.6040 O.2    17  PHE17      -0.2867
     26  CB        44.9470   19.5170    0.6820 C.3    17  PHE17       0.0534
     27  CG        44.8210   20.5530    1.7870 C.ar   17  PHE17      -0.0203
     28  CD1       45.2110   20.3220    3.0840 C.ar   17  PHE17      -0.0042
     29  CD2       44.1650   21.7390    1.5220 C.ar   17  PHE17      -0.0042
     30  CE1       44.9960   21.2690    4.0600 C.ar   17  PHE17      -0.0003
     31  CE2       43.9540   22.6840    2.5100 C.ar   17  PHE17      -0.0003
     32  CZ        44.3630   22.4320    3.7860 C.ar   17  PHE17      -0.0000
     33  N         37.2390   15.0770    8.6560 N.3    30  TRP30      -0.1241
     34  CA        38.0710   16.1700    9.1410 C.3    30  TRP30       0.1605
     35  C         37.2590   16.9580   10.1330 C.2    30  TRP30       0.2264
     36  O         36.3160   17.6360    9.7730 O.2    30  TRP30      -0.2867
     37  CB        38.5640   17.0610    8.0140 C.3    30  TRP30       0.0550
     38  CG        39.6140   18.0970    8.4290 C.ar   30  TRP30       0.0003
     39  CD1       40.2910   18.1370    9.5860 C.ar   30  TRP30       0.0946
     40  CD2       40.1580   19.1560    7.6200 C.ar   30  TRP30       0.0152
     41  NE1       41.1890   19.1730    9.5770 N.ar   30  TRP30      -0.2442
     42  CE2       41.1440   19.8190    8.3750 C.ar   30  TRP30       0.0810
     43  CE3       39.9180   19.6020    6.3180 C.ar   30  TRP30       0.0012
     44  CZ2       41.8570   20.9270    7.8840 C.ar   30  TRP30       0.0191
     45  CZ3       40.6130   20.7180    5.8370 C.ar   30  TRP30       0.0001
     46  CH2       41.5860   21.3470    6.6030 C.ar   30  TRP30       0.0015
     47  N         53.2510   28.1360    6.0510 N.3    58  LEU58      -0.1245
     48  CA        53.0100   27.1400    7.0790 C.3    58  LEU58       0.1561
     49  C         54.3010   26.4340    7.4550 C.2    58  LEU58       0.2260
     50  O         55.0750   26.0620    6.5760 O.2    58  LEU58      -0.2867
     51  CB        51.9300   26.1450    6.6500 C.3    58  LEU58       0.0270
     52  CG        50.5240   26.7490    6.4440 C.3    58  LEU58       0.0019
     53  CD1       50.2610   27.2360    4.9930 C.3    58  LEU58       0.0001
     54  CD2       49.4440   25.7420    6.8780 C.3    58  LEU58       0.0001
     55  N         50.7660   28.7650   11.0770 N.3    76  CYS76      -0.1235
     56  CA        50.4110   29.3190    9.7840 C.3    76  CYS76       0.1677
     57  C         50.4290   30.8470    9.8210 C.2    76  CYS76       0.2270
     58  O         49.6090   31.4760   10.5350 O.2    76  CYS76      -0.2867
     59  CB        49.0180   28.8940    9.4420 C.3    76  CYS76       0.0956
     60  SG        48.3410   29.5370    7.8830 S.3    76  CYS76      -0.0801
     61  N         48.3040   31.6120   13.1110 N.3    88  VAL88      -0.1245
     62  CA        47.4340   30.5950   13.7050 C.3    88  VAL88       0.1561
     63  C         48.3570   29.4560   14.1340 C.2    88  VAL88       0.2260
     64  O         49.1170   28.9410   13.3090 O.2    88  VAL88      -0.2867
     65  CB        46.4170   30.0670   12.7200 C.3    88  VAL88       0.0252
     66  CG1       45.7810   28.7120   13.2130 C.3    88  VAL88       0.0019
     67  CG2       45.3570   31.1320   12.4330 C.3    88  VAL88       0.0019
     68  N         48.5670   25.6380   15.1700 N.3    90  TYR90      -0.1241
     69  CA        47.7630   24.4450   14.9510 C.3    90  TYR90       0.1605
     70  C         48.3630   23.1700   15.5090 C.2    90  TYR90       0.2264
     71  O         49.5710   23.0010   15.6150 O.2    90  TYR90      -0.2867
     72  CB        47.4270   24.2420   13.4260 C.3    90  TYR90       0.0534
     73  CG        48.6120   24.1350   12.5050 C.ar   90  TYR90      -0.0201
     74  CD1       49.3280   22.9360   12.3330 C.ar   90  TYR90      -0.0009
     75  CD2       49.0080   25.2270   11.7480 C.ar   90  TYR90      -0.0009
     76  CE1       50.4160   22.8740   11.4840 C.ar   90  TYR90       0.0417
     77  CE2       50.0530   25.1440   10.8570 C.ar   90  TYR90       0.0417
     78  CZ        50.7710   23.9860   10.7220 C.ar   90  TYR90       0.1957
     79  OH        51.8520   23.9760    9.8430 O.3    90  TYR90      -0.2866
     80  N         47.4230   19.2100   14.5470 N.3    92  ASP92      -0.1239
     81  CA        46.6990   18.2850   13.6710 C.3    92  ASP92       0.1674
     82  C         46.9660   16.8710   14.1110 C.2    92  ASP92       0.2266
     83  O         48.1190   16.4390   14.2100 O.2    92  ASP92      -0.2867
     84  CB        47.1160   18.4510   12.2200 C.3    92  ASP92       0.1410
     85  CG        46.8250   19.8290   11.6560 C.2    92  ASP92       0.3668
     86  OD1       45.7980   20.4530   11.9880 O.co2  92  ASP92      -0.2456
     87  OD2       47.6560   20.3380   10.7990 O.co2  92  ASP92      -0.2456
     88  N         41.7590   18.9000   13.9070 N.3   106  SER106     -0.1217
     89  CA        42.6380   20.0800   13.9300 C.3   106  SER106      0.1889
     90  C         42.1750   21.0830   14.9780 C.2   106  SER106      0.2288
     91  O         41.0210   21.5190   14.9740 O.2   106  SER106     -0.2866
     92  CB        42.6650   20.7380   12.5740 C.3   106  SER106      0.2089
     93  OG        43.1870   19.8960   11.5400 O.3   106  SER106     -0.2183
     94  N         43.0280   24.8290   16.0280 N.3   108  CYS108     -0.1235
     95  CA        43.6260   25.9970   15.3830 C.3   108  CYS108      0.1677
     96  C         43.2880   27.2070   16.2070 C.2   108  CYS108      0.2270
     97  O         42.1150   27.4930   16.4360 O.2   108  CYS108     -0.2867
     98  CB        43.0820   26.1850   13.9590 C.3   108  CYS108      0.0956
     99  SG        43.2270   24.7440   12.8850 S.3   108  CYS108     -0.0801
@<TRIPOS>BOND
     1    24    25    2
     2    24    23    1
     3    22    23    1
     4    23    26    1
     5    26    27    1
     6    21    20    2
     7    29    27   ar
     8    29    31   ar
     9    27    28   ar
    10    20    19    1
    11    31    32   ar
    12    28    30   ar
    13    19    18    1
    14    32    30   ar
    15     1     2    1
    16     8    10   ar
    17     8     6   ar
    18    10    11   ar
    19     2     5    1
    20     2     3    1
    21    53    52    1
    22     5     6    1
    23     4     3    2
    24     6     7   ar
    25    11     9   ar
    26     3    12   am
    27    45    43   ar
    28    45    46   ar
    29    47    48    1
    30    43    40   ar
    31    52    51    1
    32    52    54    1
    33    50    49    2
    34    46    44   ar
    35    51    48    1
    36     7     9   ar
    37    12    13    1
    38    48    49    1
    39    14    15    2
    40    14    13    1
    41    40    42   ar
    42    40    38   ar
    43    13    16    1
    44    60    59    1
    45    44    42   ar
    46    37    38    1
    47    37    34    1
    48    42    41   ar
    49    38    39   ar
    50    33    34    1
    51    16    17    1
    52    34    35    1
    53    59    56    1
    54    41    39   ar
    55    36    35    2
    56    56    57    1
    57    56    55    1
    58    57    58    2
    59    79    78    1
    60    78    77   ar
    61    78    76   ar
    62    87    85   ar
    63    77    75   ar
    64    76    74   ar
    65    93    92    1
    66    85    86   ar
    67    85    84    1
    68    75    73   ar
    69    84    81    1
    70    74    73   ar
    71    67    65    1
    72    73    72    1
    73    92    89    1
    74    65    66    1
    75    65    62    1
    76    99    98    1
    77    61    62    1
    78    64    63    2
    79    72    69    1
    80    81    82    1
    81    81    80    1
    82    62    63    1
    83    88    89    1
    84    89    90    1
    85    98    95    1
    86    82    83    2
    87    69    68    1
    88    69    70    1
    89    91    90    2
    90    95    94    1
    91    95    96    1
    92    70    71    2
    93    96    97    2
