@<TRIPOS>MOLECULE
tmp/3f16A00.pdb
 142 142 0 0 0
SMALL
GASTEIGER

@<TRIPOS>ATOM
      1  N          3.1890  -11.5420   -3.5080 N.3    74  GLY74      -0.1210
      2  CA         2.9100  -10.4150   -2.6200 C.3    74  GLY74       0.1956
      3  C          2.3490   -9.2250   -3.3770 C.2    74  GLY74       0.2612
      4  O          1.3290   -9.3400   -4.0610 O.2    74  GLY74      -0.2717
      5  N          3.0220   -8.0840   -3.2610 N.am   75  ILE75      -0.1965
      6  CA         2.6320   -6.8780   -3.9980 C.3    75  ILE75       0.1727
      7  C          2.8870   -7.0700   -5.4910 C.2    75  ILE75       0.2616
      8  O          4.0130   -7.3640   -5.8990 O.2    75  ILE75      -0.2715
      9  CB         3.4020   -5.6280   -3.5140 C.3    75  ILE75       0.0290
     10  CG1        3.1700   -5.3930   -2.0180 C.3    75  ILE75       0.0022
     11  CG2        2.9990   -4.3950   -4.3300 C.3    75  ILE75       0.0023
     12  CD1        4.1230   -4.4010   -1.3900 C.3    75  ILE75       0.0001
     13  N          1.8430   -6.9140   -6.2980 N.am   76  LEU76      -0.1963
     14  CA         1.9480   -7.1000   -7.7420 C.3    76  LEU76       0.1728
     15  C          2.1520   -5.7830   -8.4820 C.2    76  LEU76       0.2616
     16  O          2.7840   -5.7420   -9.5410 O.2    76  LEU76      -0.2715
     17  CB         0.6940   -7.7980   -8.2640 C.3    76  LEU76       0.0311
     18  CG         0.2670   -9.0820   -7.5490 C.3    76  LEU76       0.0022
     19  CD1       -1.0660   -9.5490   -8.0900 C.3    76  LEU76       0.0001
     20  CD2        1.3250  -10.1820   -7.6690 C.3    76  LEU76       0.0001
     21  N          1.5880   -4.7170   -7.9220 N.am   77  ALA77      -0.1963
     22  CA         1.5440   -3.4180   -8.5710 C.3    77  ALA77       0.1728
     23  C          1.0560   -2.3970   -7.5640 C.2    77  ALA77       0.2616
     24  O          0.5070   -2.7600   -6.5200 O.2    77  ALA77      -0.2715
     25  CB         0.6070   -3.4540   -9.7800 C.3    77  ALA77       0.0334
     26  N          1.2650   -1.1210   -7.8680 N.am   78  HIS78      -0.1973
     27  CA         0.6820   -0.0340   -7.0880 C.3    78  HIS78       0.1656
     28  C          0.6150    1.2120   -7.9540 C.2    78  HIS78       0.2291
     29  O          1.2300    1.2750   -9.0260 O.2    78  HIS78      -0.2864
     30  CB         1.4400    0.2350   -5.7780 C.3    78  HIS78       0.0771
     31  CG         2.8920    0.5380   -5.9630 C.ar   78  HIS78       0.0820
     32  ND1        3.8740   -0.0810   -5.2220 N.ar   78  HIS78      -0.2267
     33  CD2        3.5320    1.3870   -6.8010 C.ar   78  HIS78       0.1154
     34  CE1        5.0550    0.3770   -5.5950 C.ar   78  HIS78       0.1986
     35  NE2        4.8760    1.2700   -6.5500 N.ar   78  HIS78      -0.2212
     36  N         -6.1960   -7.2550  -16.1140 N.3   109  LEU109     -0.1231
     37  CA        -6.9810   -7.2030  -14.8780 C.3   109  LEU109      0.1693
     38  C         -6.3030   -6.3370  -13.8280 C.2   109  LEU109      0.2592
     39  O         -6.9470   -5.5340  -13.1490 O.2   109  LEU109     -0.2718
     40  CB        -7.2080   -8.6060  -14.3230 C.3   109  LEU109      0.0284
     41  CG        -8.1820   -9.5000  -15.0780 C.3   109  LEU109      0.0019
     42  CD1       -8.2160  -10.8590  -14.4230 C.3   109  LEU109      0.0001
     43  CD2       -9.5770   -8.8910  -15.1230 C.3   109  LEU109      0.0001
     44  N         -4.9920   -6.5090  -13.7060 N.am  110  THR110     -0.1953
     45  CA        -4.1980   -5.7420  -12.7600 C.3   110  THR110      0.1897
     46  C         -4.2220   -4.2580  -13.1340 C.2   110  THR110      0.2313
     47  O         -4.3610   -3.3930  -12.2610 O.2   110  THR110     -0.2863
     48  CB        -2.7550   -6.2760  -12.7120 C.3   110  THR110      0.1794
     49  OG1       -2.7710   -7.6800  -12.4180 O.3   110  THR110     -0.2208
     50  CG2       -1.9490   -5.5840  -11.6380 C.3   110  THR110      0.0378
     51  N         -7.4630   -2.3410  -12.1770 N.3   113  HIS113     -0.1226
     52  CA        -7.3750   -1.9620  -10.7660 C.3   113  HIS113      0.1752
     53  C         -6.4290   -0.7770  -10.5510 C.2   113  HIS113      0.2595
     54  O         -6.7920    0.2070   -9.9000 O.2   113  HIS113     -0.2718
     55  CB        -6.9320   -3.1930   -9.9770 C.3   113  HIS113      0.0759
     56  CG        -6.6910   -2.9620   -8.5160 C.ar  113  HIS113      0.0818
     57  ND1       -7.4830   -3.5180   -7.5340 N.ar  113  HIS113     -0.2268
     58  CD2       -5.7060   -2.2940   -7.8700 C.ar  113  HIS113      0.1154
     59  CE1       -7.0120   -3.1790   -6.3470 C.ar  113  HIS113      0.1986
     60  NE2       -5.9330   -2.4370   -6.5210 N.ar  113  HIS113     -0.2212
     61  N         -5.2260   -0.8610  -11.1070 N.am  114  GLU114     -0.1979
     62  CA        -4.2500    0.2080  -10.9130 C.3   114  GLU114      0.1602
     63  C         -4.7090    1.5310  -11.5060 C.2   114  GLU114      0.2287
     64  O         -4.5360    2.5810  -10.8860 O.2   114  GLU114     -0.2864
     65  CB        -2.8800   -0.1780  -11.4660 C.3   114  GLU114      0.0415
     66  CG        -2.2180   -1.3380  -10.7220 C.3   114  GLU114      0.1163
     67  CD        -2.1980   -1.1570   -9.2110 C.2   114  GLU114      0.3649
     68  OE1       -2.4410   -2.1550   -8.4960 O.co2 114  GLU114     -0.2457
     69  OE2       -1.9540   -0.0270   -8.7430 O.co2 114  GLU114     -0.2457
     70  N         -6.9210    3.3460   -9.2540 N.3   117  HIS117     -0.1241
     71  CA        -6.1350    4.1880   -8.3460 C.3   117  HIS117      0.1621
     72  C         -5.6520    5.4810   -9.0240 C.2   117  HIS117      0.2264
     73  O         -5.7260    6.5600   -8.4270 O.2   117  HIS117     -0.2867
     74  CB        -4.8990    3.4590   -7.8000 C.3   117  HIS117      0.0745
     75  CG        -5.1760    2.3190   -6.8650 C.ar  117  HIS117      0.0817
     76  ND1       -6.1100    2.3660   -5.8500 N.ar  117  HIS117     -0.2268
     77  CD2       -4.5630    1.1160   -6.7570 C.ar  117  HIS117      0.1154
     78  CE1       -6.0780    1.2240   -5.1800 C.ar  117  HIS117      0.1986
     79  NE2       -5.1380    0.4530   -5.7010 N.ar  117  HIS117     -0.2212
     80  N         -9.3720    1.3320   -2.1580 N.3   123  HIS123     -0.1241
     81  CA        -9.7510   -0.0720   -2.1110 C.3   123  HIS123      0.1621
     82  C        -11.1770   -0.3100   -1.6570 C.2   123  HIS123      0.2264
     83  O        -11.7380    0.4650   -0.8830 O.2   123  HIS123     -0.2867
     84  CB        -8.7770   -0.8630   -1.2500 C.3   123  HIS123      0.0745
     85  CG        -7.4700   -1.0990   -1.9250 C.ar  123  HIS123      0.0817
     86  ND1       -6.2690   -1.1150   -1.2520 N.ar  123  HIS123     -0.2268
     87  CD2       -7.1750   -1.2810   -3.2330 C.ar  123  HIS123      0.1154
     88  CE1       -5.2920   -1.3310   -2.1160 C.ar  123  HIS123      0.1986
     89  NE2       -5.8150   -1.4330   -3.3250 N.ar  123  HIS123     -0.2212
     90  N        -13.3310   -5.1050   -8.5270 N.3   130  VAL130     -0.1245
     91  CA       -11.9780   -5.1110   -9.0890 C.3   130  VAL130      0.1561
     92  C        -11.0200   -4.3470   -8.1660 C.2   130  VAL130      0.2260
     93  O         -9.8300   -4.6490   -8.1320 O.2   130  VAL130     -0.2867
     94  CB       -11.9240   -4.5920  -10.5700 C.3   130  VAL130      0.0252
     95  CG1      -11.9680   -3.0680  -10.6360 C.3   130  VAL130      0.0019
     96  CG2      -10.6900   -5.1340  -11.2890 C.3   130  VAL130      0.0019
     97  N        -10.9360   -4.5470   -4.9560 N.3   132  PHE132     -0.1228
     98  CA       -10.5340   -5.3710   -3.8090 C.3   132  PHE132      0.1721
     99  C         -9.0200   -5.6000   -3.8980 C.2   132  PHE132      0.2437
    100  O         -8.5130   -5.8570   -4.9850 O.2   132  PHE132     -0.2733
    101  CB       -11.2970   -6.7010   -3.8100 C.3   132  PHE132      0.0547
    102  CG       -11.1500   -7.4980   -2.5410 C.ar  132  PHE132     -0.0202
    103  CD1      -11.7160   -7.0470   -1.3490 C.ar  132  PHE132     -0.0042
    104  CD2      -10.4650   -8.7070   -2.5360 C.ar  132  PHE132     -0.0042
    105  CE1      -11.5930   -7.7860   -0.1690 C.ar  132  PHE132     -0.0003
    106  CE2      -10.3380   -9.4480   -1.3590 C.ar  132  PHE132     -0.0003
    107  CZ       -10.9060   -8.9850   -0.1800 C.ar  132  PHE132     -0.0000
    108  N         -8.2880   -5.4730   -2.7670 N.am  133  PRO133     -0.2718
    109  CA        -6.8140   -5.5290   -2.7830 C.3   133  PRO133      0.1535
    110  C         -6.1600   -6.8800   -3.1050 C.2   133  PRO133      0.2599
    111  O         -4.9290   -6.9540   -3.1770 O.2   133  PRO133     -0.2715
    112  CB        -6.4280   -5.1220   -1.3520 C.3   133  PRO133      0.0310
    113  CG        -7.6400   -4.5730   -0.7280 C.3   133  PRO133      0.0237
    114  CD        -8.8010   -5.2020   -1.4120 C.3   133  PRO133      0.0939
    115  N         -6.9550   -7.9300   -3.2850 N.am  134  THR134     -0.1937
    116  CA        -6.4240   -9.2660   -3.5380 C.3   134  THR134      0.2028
    117  C         -6.6740   -9.6620   -4.9880 C.2   134  THR134      0.2642
    118  O         -7.7900   -9.5260   -5.4870 O.2   134  THR134     -0.2714
    119  CB        -7.0690  -10.3040   -2.5890 C.3   134  THR134      0.1808
    120  OG1       -6.8890   -9.8840   -1.2310 O.3   134  THR134     -0.2208
    121  CG2       -6.4540  -11.6860   -2.7780 C.3   134  THR134      0.0379
    122  N         -5.6270  -10.1490   -5.6520 N.am  135  TYR135     -0.1959
    123  CA        -5.7230  -10.6110   -7.0340 C.3   135  TYR135      0.1771
    124  C         -6.4040  -11.9720   -7.1320 C.2   135  TYR135      0.2619
    125  O         -6.0150  -12.9220   -6.4540 O.2   135  TYR135     -0.2715
    126  CB        -4.3340  -10.6760   -7.6790 C.3   135  TYR135      0.0574
    127  CG        -4.3390  -11.2220   -9.0910 C.ar  135  TYR135     -0.0198
    128  CD1       -4.5620  -10.3800  -10.1820 C.ar  135  TYR135     -0.0009
    129  CD2       -4.1230  -12.5820   -9.3370 C.ar  135  TYR135     -0.0009
    130  CE1       -4.5750  -10.8790  -11.4780 C.ar  135  TYR135      0.0417
    131  CE2       -4.1410  -13.0900  -10.6270 C.ar  135  TYR135      0.0417
    132  CZ        -4.3640  -12.2300  -11.6940 C.ar  135  TYR135      0.1957
    133  OH        -4.3770  -12.7170  -12.9780 O.3   135  TYR135     -0.2866
    134  N         -7.4150  -12.0520   -7.9880 N.am  136  LYS136     -0.1977
    135  CA        -8.0250  -13.3240   -8.3640 C.3   136  LYS136      0.1596
    136  C         -8.4250  -13.2470   -9.8300 C.2   136  LYS136      0.2287
    137  O         -9.1990  -12.3710  -10.2200 O.2   136  LYS136     -0.2864
    138  CB        -9.2340  -13.6420   -7.4750 C.3   136  LYS136      0.0298
    139  CG        -9.9190  -14.9650   -7.7950 C.3   136  LYS136      0.0038
    140  CD       -11.1520  -15.1820   -6.9300 C.3   136  LYS136      0.0206
    141  CE       -12.0210  -16.3130   -7.4650 C.3   136  LYS136      0.1093
    142  NZ       -11.2840  -17.6020   -7.5920 N.3   136  LYS136     -0.1314
@<TRIPOS>BOND
     1    36    37    1
     2    43    41    1
     3    41    42    1
     4    41    40    1
     5    37    40    1
     6    37    38    1
     7    38    44   am
     8    38    39    2
     9    44    45    1
    10    46    45    1
    11    46    47    2
    12   133   132    1
    13    45    48    1
    14    48    49    1
    15    48    50    1
    16    51    52    1
    17   132   130   ar
    18   132   131   ar
    19    63    62    1
    20    63    64    2
    21   130   128   ar
    22    65    62    1
    23    65    66    1
    24    96    94    1
    25    61    62    1
    26    61    53   am
    27    52    53    1
    28    52    55    1
    29    66    67    1
    30    95    94    1
    31   131   129   ar
    32    94    91    1
    33    53    54    2
    34   137   136    2
    35   128   127   ar
    36    55    56    1
    37   136   135    1
    38    25    22    1
    39    16    15    2
    40   129   127   ar
    41    70    71    1
    42    67    69   ar
    43    67    68   ar
    44   127   126    1
    45    91    90    1
    46    91    92    1
    47    29    28    2
    48    72    73    2
    49    72    71    1
    50    22    21    1
    51    22    23    1
    52    56    58   ar
    53    56    57   ar
    54    15    21   am
    55    15    14    1
    56   135   134    1
    57   135   138    1
    58    71    74    1
    59    17    14    1
    60    17    18    1
    61    92    93    2
    62    19    18    1
    63   134   124   am
    64    28    27    1
    65    58    60   ar
    66    26    23   am
    67    26    27    1
    68    74    75    1
    69   139   138    1
    70   139   140    1
    71    14    13    1
    72   126   123    1
    73    20    18    1
    74   142   141    1
    75    23    24    2
    76    57    59   ar
    77   141   140    1
    78   124   123    1
    79   124   125    2
    80    27    30    1
    81   123   122    1
    82    75    77   ar
    83    75    76   ar
    84    33    35   ar
    85    33    31   ar
    86    77    79   ar
    87    35    34   ar
    88    60    59   ar
    89    13     7   am
    90    31    30    1
    91    31    32   ar
    92     8     7    2
    93    76    78   ar
    94    79    78   ar
    95   122   117   am
    96    34    32   ar
    97     7     6    1
    98   118   117    2
    99   117   116    1
   100   100    99    2
   101    97    98    1
   102    11     9    1
   103     4     3    2
   104     6     9    1
   105     6     5    1
   106    99    98    1
   107    99   108   am
   108   101    98    1
   109   101   102    1
   110   116   115    1
   111   116   119    1
   112     9    10    1
   113     1     2    1
   114     3     5   am
   115     3     2    1
   116    89    87   ar
   117    89    88   ar
   118   115   110   am
   119    87    85   ar
   120   111   110    2
   121   110   109    1
   122   109   108    1
   123   109   112    1
   124   121   119    1
   125   108   114    1
   126   119   120    1
   127   102   104   ar
   128   102   103   ar
   129   104   106   ar
   130    80    81    1
   131    88    86   ar
   132    81    82    1
   133    81    84    1
   134    10    12    1
   135    85    86   ar
   136    85    84    1
   137    82    83    2
   138   114   113    1
   139   106   107   ar
   140   112   113    1
   141   103   105   ar
   142   107   105   ar
