@<TRIPOS>MOLECULE
tmp/3f17A00.pdb
 147 147 0 0 0
SMALL
GASTEIGER

@<TRIPOS>ATOM
      1  N         -3.9010  -11.6360    3.3420 N.3    74  GLY74      -0.1210
      2  CA        -3.6430  -10.4600    2.5150 C.3    74  GLY74       0.1956
      3  C         -3.1460   -9.2930    3.3470 C.2    74  GLY74       0.2612
      4  O         -2.1780   -9.4370    4.0940 O.2    74  GLY74      -0.2717
      5  N         -3.8200   -8.1510    3.2290 N.am   75  ILE75      -0.1965
      6  CA        -3.4240   -6.9480    3.9800 C.3    75  ILE75       0.1727
      7  C         -3.6280   -7.1390    5.4750 C.2    75  ILE75       0.2616
      8  O         -4.7100   -7.5150    5.9250 O.2    75  ILE75      -0.2715
      9  CB        -4.1850   -5.6770    3.5370 C.3    75  ILE75       0.0290
     10  CG1       -3.9400   -5.3940    2.0500 C.3    75  ILE75       0.0022
     11  CG2       -3.7660   -4.4560    4.3870 C.3    75  ILE75       0.0023
     12  CD1       -2.4770   -5.4090    1.6460 C.3    75  ILE75       0.0001
     13  N         -2.5790   -6.8730    6.2390 N.am   76  LEU76      -0.1963
     14  CA        -2.5880   -7.0570    7.6840 C.3    76  LEU76       0.1728
     15  C         -2.8240   -5.7460    8.4300 C.2    76  LEU76       0.2616
     16  O         -3.4550   -5.7280    9.4960 O.2    76  LEU76      -0.2715
     17  CB        -1.2610   -7.6650    8.1320 C.3    76  LEU76       0.0311
     18  CG        -0.8490   -8.9390    7.3950 C.3    76  LEU76       0.0022
     19  CD1        0.5520   -9.3490    7.7940 C.3    76  LEU76       0.0001
     20  CD2       -1.8500  -10.0600    7.6610 C.3    76  LEU76       0.0001
     21  N         -2.3040   -4.6550    7.8740 N.am   77  ALA77      -0.1963
     22  CA        -2.2750   -3.3690    8.5580 C.3    77  ALA77       0.1728
     23  C         -1.7910   -2.3210    7.5820 C.2    77  ALA77       0.2616
     24  O         -1.1800   -2.6500    6.5690 O.2    77  ALA77      -0.2715
     25  CB        -1.3410   -3.4330    9.7610 C.3    77  ALA77       0.0334
     26  N         -2.0610   -1.0580    7.8830 N.am   78  HIS78      -0.1973
     27  CA        -1.4710    0.0460    7.1260 C.3    78  HIS78       0.1656
     28  C         -1.3390    1.2610    8.0160 C.2    78  HIS78       0.2291
     29  O         -1.9780    1.3400    9.0640 O.2    78  HIS78      -0.2864
     30  CB        -2.2560    0.3740    5.8530 C.3    78  HIS78       0.0771
     31  CG        -3.6810    0.7670    6.0800 C.ar   78  HIS78       0.0820
     32  ND1       -4.6990    0.3010    5.2780 N.ar   78  HIS78      -0.2267
     33  CD2       -4.2670    1.5670    7.0030 C.ar   78  HIS78       0.1154
     34  CE1       -5.8470    0.7980    5.6970 C.ar   78  HIS78       0.1986
     35  NE2       -5.6130    1.5780    6.7370 N.ar   78  HIS78      -0.2212
     36  N          5.5830   -7.3400   15.9810 N.3   109  LEU109     -0.1231
     37  CA         6.3590   -7.2430   14.7490 C.3   109  LEU109      0.1693
     38  C          5.6440   -6.3820   13.7160 C.2   109  LEU109      0.2592
     39  O          6.2660   -5.5510   13.0440 O.2   109  LEU109     -0.2718
     40  CB         6.6330   -8.6320   14.1720 C.3   109  LEU109      0.0284
     41  CG         7.5790   -9.5410   14.9590 C.3   109  LEU109      0.0019
     42  CD1        7.6130  -10.9360   14.3440 C.3   109  LEU109      0.0001
     43  CD2        8.9860   -8.9660   15.0330 C.3   109  LEU109      0.0001
     44  N          4.3370   -6.5820   13.5910 N.am  110  THR110     -0.1953
     45  CA         3.5560   -5.7960   12.6600 C.3   110  THR110      0.1897
     46  C          3.5510   -4.3140   13.0500 C.2   110  THR110      0.2313
     47  O          3.6680   -3.4420   12.1880 O.2   110  THR110     -0.2863
     48  CB         2.1360   -6.3560   12.5430 C.3   110  THR110      0.1794
     49  OG1        2.2060   -7.7400   12.1930 O.3   110  THR110     -0.2208
     50  CG2        1.3710   -5.6480   11.4620 C.3   110  THR110      0.0378
     51  N          6.7660   -2.5300   12.0020 N.3   113  HIS113     -0.1226
     52  CA         6.6720   -2.1860   10.5860 C.3   113  HIS113      0.1752
     53  C          5.7680   -0.9720   10.3670 C.2   113  HIS113      0.2595
     54  O          6.1520   -0.0070    9.7010 O.2   113  HIS113     -0.2718
     55  CB         6.1670   -3.4070    9.8060 C.3   113  HIS113      0.0759
     56  CG         5.9940   -3.1730    8.3380 C.ar  113  HIS113      0.0818
     57  ND1        6.9320   -3.5470    7.4010 N.ar  113  HIS113     -0.2268
     58  CD2        4.9730   -2.6210    7.6440 C.ar  113  HIS113      0.1154
     59  CE1        6.4960   -3.2290    6.1940 C.ar  113  HIS113      0.1986
     60  NE2        5.3060   -2.6710    6.3120 N.ar  113  HIS113     -0.2212
     61  N          4.5750   -0.9980   10.9500 N.am  114  GLU114     -0.1979
     62  CA         3.6350    0.1000   10.7640 C.3   114  GLU114      0.1602
     63  C          4.1260    1.4110   11.3450 C.2   114  GLU114      0.2287
     64  O          3.9630    2.4590   10.7230 O.2   114  GLU114     -0.2864
     65  CB         2.2760   -0.2540   11.3640 C.3   114  GLU114      0.0415
     66  CG         1.5770   -1.4210   10.6670 C.3   114  GLU114      0.1163
     67  CD         1.5160   -1.2490    9.1610 C.2   114  GLU114      0.3649
     68  OE1        1.7710   -2.2270    8.4290 O.co2 114  GLU114     -0.2457
     69  OE2        1.2300   -0.1270    8.6920 O.co2 114  GLU114     -0.2457
     70  N          6.3100    3.2290    9.0700 N.3   117  HIS117     -0.1241
     71  CA         5.5360    4.0790    8.1720 C.3   117  HIS117      0.1621
     72  C          5.0280    5.3460    8.8650 C.2   117  HIS117      0.2264
     73  O          5.0990    6.4280    8.2880 O.2   117  HIS117     -0.2867
     74  CB         4.3250    3.3500    7.6060 C.3   117  HIS117      0.0745
     75  CG         4.6300    2.2190    6.6720 C.ar  117  HIS117      0.0817
     76  ND1        5.5070    2.3080    5.6130 N.ar  117  HIS117     -0.2268
     77  CD2        4.0830    0.9840    6.6030 C.ar  117  HIS117      0.1154
     78  CE1        5.4960    1.1640    4.9450 C.ar  117  HIS117      0.1986
     79  NE2        4.6390    0.3420    5.5240 N.ar  117  HIS117     -0.2212
     80  N          8.9630    1.1730    2.1560 N.3   123  HIS123     -0.1241
     81  CA         9.3860   -0.2120    2.1500 C.3   123  HIS123      0.1621
     82  C         10.8110   -0.3890    1.6850 C.2   123  HIS123      0.2264
     83  O         11.3330    0.4050    0.9090 O.2   123  HIS123     -0.2867
     84  CB         8.4760   -1.0490    1.2750 C.3   123  HIS123      0.0745
     85  CG         7.1360   -1.2830    1.8850 C.ar  123  HIS123      0.0817
     86  ND1        5.9870   -1.3860    1.1370 N.ar  123  HIS123     -0.2268
     87  CD2        6.7610   -1.4320    3.1770 C.ar  123  HIS123      0.1154
     88  CE1        4.9610   -1.5960    1.9430 C.ar  123  HIS123      0.1986
     89  NE2        5.4030   -1.6250    3.1860 N.ar  123  HIS123     -0.2212
     90  N         15.0170   -6.7600    6.3370 N.3   129  ALA129     -0.1231
     91  CA        14.5060   -5.5340    6.9460 C.3   129  ALA129      0.1694
     92  C         13.0900   -5.7120    7.4690 C.2   129  ALA129      0.2591
     93  O         12.2690   -6.3880    6.8490 O.2   129  ALA129     -0.2718
     94  CB        14.5490   -4.3940    5.9370 C.3   129  ALA129      0.0304
     95  N         12.7920   -5.0810    8.6050 N.am  130  VAL130     -0.1980
     96  CA        11.4320   -5.0820    9.1190 C.3   130  VAL130      0.1595
     97  C         10.5080   -4.3040    8.1750 C.2   130  VAL130      0.2287
     98  O          9.3160   -4.5660    8.1440 O.2   130  VAL130     -0.2864
     99  CB        11.3490   -4.5350   10.5710 C.3   130  VAL130      0.0276
    100  CG1       11.4450   -3.0080   10.6080 C.3   130  VAL130      0.0022
    101  CG2       10.0790   -5.0210   11.2430 C.3   130  VAL130      0.0022
    102  N         10.6330   -4.6410    4.9760 N.3   132  PHE132     -0.1228
    103  CA        10.3570   -5.5230    3.8270 C.3   132  PHE132      0.1721
    104  C          8.9150   -5.9750    3.9110 C.2   132  PHE132      0.2437
    105  O          8.5100   -6.5480    4.9240 O.2   132  PHE132     -0.2733
    106  CB        11.2430   -6.7670    3.8670 C.3   132  PHE132      0.0547
    107  CG        11.0870   -7.6830    2.6720 C.ar  132  PHE132     -0.0202
    108  CD1       11.6810   -7.3600    1.4650 C.ar  132  PHE132     -0.0042
    109  CD2       10.3870   -8.8850    2.7700 C.ar  132  PHE132     -0.0042
    110  CE1       11.5720   -8.2080    0.3650 C.ar  132  PHE132     -0.0003
    111  CE2       10.2750   -9.7380    1.6740 C.ar  132  PHE132     -0.0003
    112  CZ        10.8640   -9.3910    0.4720 C.ar  132  PHE132     -0.0000
    113  N          8.1350   -5.7460    2.8460 N.am  133  PRO133     -0.2718
    114  CA         6.6880   -5.8900    2.9770 C.3   133  PRO133      0.1535
    115  C          6.1230   -7.3180    2.8480 C.2   133  PRO133      0.2599
    116  O          5.1200   -7.5290    2.1630 O.2   133  PRO133     -0.2715
    117  CB         6.1760   -4.9940    1.8540 C.3   133  PRO133      0.0310
    118  CG         7.1870   -5.1460    0.7850 C.3   133  PRO133      0.0237
    119  CD         8.5160   -5.3110    1.4910 C.3   133  PRO133      0.0939
    120  N          6.7550   -8.2810    3.5120 N.am  134  THR134     -0.1937
    121  CA         6.1690   -9.6050    3.6980 C.3   134  THR134      0.2028
    122  C          6.3210   -9.9870    5.1600 C.2   134  THR134      0.2642
    123  O          7.4400  -10.0530    5.6720 O.2   134  THR134     -0.2714
    124  CB         6.8470  -10.6740    2.8180 C.3   134  THR134      0.1808
    125  OG1        6.6510  -10.3480    1.4390 O.3   134  THR134     -0.2208
    126  CG2        6.2640  -12.0600    3.0890 C.3   134  THR134      0.0379
    127  N          5.1950  -10.2240    5.8280 N.am  135  TYR135     -0.1959
    128  CA         5.2160  -10.6480    7.2170 C.3   135  TYR135      0.1771
    129  C          5.8750  -12.0190    7.3380 C.2   135  TYR135      0.2619
    130  O          5.5880  -12.9320    6.5620 O.2   135  TYR135     -0.2715
    131  CB         3.8050  -10.6920    7.8130 C.3   135  TYR135      0.0574
    132  CG         3.7850  -11.3340    9.1770 C.ar  135  TYR135     -0.0198
    133  CD1        4.1480  -10.6120   10.3120 C.ar  135  TYR135     -0.0009
    134  CD2        3.4340  -12.6720    9.3330 C.ar  135  TYR135     -0.0009
    135  CE1        4.1560  -11.2010   11.5580 C.ar  135  TYR135      0.0417
    136  CE2        3.4350  -13.2710   10.5760 C.ar  135  TYR135      0.0417
    137  CZ         3.7900  -12.5260   11.6910 C.ar  135  TYR135      0.1957
    138  OH         3.7980  -13.1090   12.9330 O.3   135  TYR135     -0.2866
    139  N          6.7580  -12.1410    8.3210 N.am  136  LYS136     -0.1977
    140  CA         7.4400  -13.3880    8.6270 C.3   136  LYS136      0.1596
    141  C          7.7540  -13.3600   10.1110 C.2   136  LYS136      0.2287
    142  O          8.3870  -12.4110   10.5860 O.2   136  LYS136     -0.2864
    143  CB         8.7330  -13.4900    7.8150 C.3   136  LYS136      0.0298
    144  CG         9.6050  -14.7050    8.1210 C.3   136  LYS136      0.0038
    145  CD        10.9950  -14.5360    7.5250 C.3   136  LYS136      0.0206
    146  CE        11.8880  -15.7300    7.8200 C.3   136  LYS136      0.1093
    147  NZ        11.4230  -16.9610    7.1220 N.3   136  LYS136     -0.1314
@<TRIPOS>BOND
     1   110   112   ar
     2   110   108   ar
     3   112   111   ar
     4   118   119    1
     5   118   117    1
     6    83    82    2
     7    86    85   ar
     8    86    88   ar
     9    84    85    1
    10    84    81    1
    11   125   124    1
    12   108   107   ar
    13   119   113    1
    14    12    10    1
    15   111   109   ar
    16    82    81    1
    17   117   114    1
    18    85    87   ar
    19    88    89   ar
    20    10     9    1
    21    81    80    1
    22   116   115    2
    23     2     1    1
    24     2     3    1
    25   107   109   ar
    26   107   106    1
    27   124   126    1
    28   124   121    1
    29   113   114    1
    30   113   104   am
    31   115   114    1
    32   115   120   am
    33    87    89   ar
    34     5     3   am
    35     5     6    1
    36     3     4    2
    37   120   121    1
    38     9     6    1
    39     9    11    1
    40   121   122    1
    41   103   106    1
    42   103   104    1
    43   103   102    1
    44   104   105    2
    45     6     7    1
    46    78    79   ar
    47    78    76   ar
    48   122   123    2
    49   122   127   am
    50    32    34   ar
    51    32    31   ar
    52     7     8    2
    53     7    13   am
    54    79    77   ar
    55    76    75   ar
    56    34    35   ar
    57   127   128    1
    58    30    31    1
    59    30    27    1
    60    94    91    1
    61    31    33   ar
    62    59    60   ar
    63    59    57   ar
    64    13    14    1
    65    60    58   ar
    66    90    91    1
    67   130   129    2
    68    24    23    2
    69    77    75   ar
    70    75    74    1
    71    35    33   ar
    72    93    92    2
    73    91    92    1
    74   147   146    1
    75    27    26    1
    76    27    28    1
    77   128   129    1
    78   128   131    1
    79   129   139   am
    80    18    20    1
    81    18    19    1
    82    18    17    1
    83    57    56   ar
    84    92    95   am
    85   145   146    1
    86   145   144    1
    87    23    26   am
    88    23    22    1
    89    74    71    1
    90    58    56   ar
    91    14    17    1
    92    14    15    1
    93   131   132    1
    94   143   144    1
    95   143   140    1
    96    21    15   am
    97    21    22    1
    98    28    29    2
    99    98    97    2
   100    71    72    1
   101    71    70    1
   102    97    96    1
   103    73    72    2
   104   139   140    1
   105    56    55    1
   106    68    67   ar
   107    15    16    2
   108    22    25    1
   109    95    96    1
   110   140   141    1
   111    69    67   ar
   112    96    99    1
   113    67    66    1
   114   132   134   ar
   115   132   133   ar
   116   134   136   ar
   117    54    53    2
   118    55    52    1
   119   141   142    2
   120   133   135   ar
   121    53    52    1
   122    53    61   am
   123    99   100    1
   124    99   101    1
   125   136   137   ar
   126    52    51    1
   127    66    65    1
   128    64    63    2
   129    62    61    1
   130    62    63    1
   131    62    65    1
   132    50    48    1
   133   135   137   ar
   134   137   138    1
   135    47    46    2
   136    49    48    1
   137    48    45    1
   138    45    46    1
   139    45    44    1
   140    39    38    2
   141    44    38   am
   142    38    37    1
   143    40    37    1
   144    40    41    1
   145    42    41    1
   146    37    36    1
   147    41    43    1
