@<TRIPOS>MOLECULE
tmp/3f18A00.pdb
 133 133 0 0 0
SMALL
GASTEIGER

@<TRIPOS>ATOM
      1  N        -17.9940  -11.5650  -20.9850 N.3    74  GLY74      -0.1210
      2  CA       -17.7370  -10.4030  -21.8370 C.3    74  GLY74       0.1956
      3  C        -17.2200   -9.2230  -21.0350 C.2    74  GLY74       0.2612
      4  O        -16.2220   -9.3460  -20.3200 O.2    74  GLY74      -0.2717
      5  N        -17.9030   -8.0850  -21.1520 N.am   75  ILE75      -0.1965
      6  CA       -17.5170   -6.8810  -20.4030 C.3    75  ILE75       0.1727
      7  C        -17.7570   -7.1100  -18.9170 C.2    75  ILE75       0.2616
      8  O        -18.8750   -7.4320  -18.5020 O.2    75  ILE75      -0.2715
      9  CB       -18.3010   -5.6160  -20.8400 C.3    75  ILE75       0.0290
     10  CG1      -18.0710   -5.3030  -22.3210 C.3    75  ILE75       0.0022
     11  CG2      -17.9020   -4.4120  -19.9750 C.3    75  ILE75       0.0023
     12  CD1      -18.9090   -4.1460  -22.8500 C.3    75  ILE75       0.0001
     13  N        -16.7020   -6.9410  -18.1280 N.am   76  LEU76      -0.1963
     14  CA       -16.7680   -7.1290  -16.6830 C.3    76  LEU76       0.1728
     15  C        -16.9940   -5.8120  -15.9460 C.2    76  LEU76       0.2616
     16  O        -17.6310   -5.7750  -14.8920 O.2    76  LEU76      -0.2715
     17  CB       -15.4820   -7.7900  -16.1820 C.3    76  LEU76       0.0311
     18  CG       -15.0550   -9.0670  -16.9120 C.3    76  LEU76       0.0022
     19  CD1      -13.7010   -9.5390  -16.4240 C.3    76  LEU76       0.0001
     20  CD2      -16.0990  -10.1730  -16.7640 C.3    76  LEU76       0.0001
     21  N        -16.4460   -4.7360  -16.5070 N.am   77  ALA77      -0.1963
     22  CA       -16.4150   -3.4360  -15.8550 C.3    77  ALA77       0.1728
     23  C        -15.9410   -2.4120  -16.8570 C.2    77  ALA77       0.2616
     24  O        -15.3190   -2.7650  -17.8610 O.2    77  ALA77      -0.2715
     25  CB       -15.4690   -3.4640  -14.6660 C.3    77  ALA77       0.0334
     26  N        -16.2120   -1.1420  -16.5740 N.am   78  HIS78      -0.1973
     27  CA       -15.6530   -0.0480  -17.3580 C.3    78  HIS78       0.1656
     28  C        -15.5410    1.1870  -16.4730 C.2    78  HIS78       0.2291
     29  O        -16.1780    1.2700  -15.4190 O.2    78  HIS78      -0.2864
     30  CB       -16.4870    0.2190  -18.6170 C.3    78  HIS78       0.0771
     31  CG       -17.7660    0.9420  -18.3480 C.ar   78  HIS78       0.0820
     32  ND1      -17.9130    2.2890  -18.6060 N.ar   78  HIS78      -0.2267
     33  CD2      -18.9300    0.5340  -17.7920 C.ar   78  HIS78       0.1154
     34  CE1      -19.1290    2.6670  -18.2540 C.ar   78  HIS78       0.1986
     35  NE2      -19.7670    1.6200  -17.7590 N.ar   78  HIS78      -0.2212
     36  N         -8.6190   -7.3740   -8.4630 N.3   109  LEU109     -0.1231
     37  CA        -7.8290   -7.2950   -9.6900 C.3   109  LEU109      0.1693
     38  C         -8.5220   -6.4410  -10.7360 C.2   109  LEU109      0.2592
     39  O         -7.8910   -5.6420  -11.4320 O.2   109  LEU109     -0.2718
     40  CB        -7.5750   -8.6840  -10.2640 C.3   109  LEU109      0.0284
     41  CG        -6.6450   -9.6090   -9.4820 C.3   109  LEU109      0.0019
     42  CD1       -6.6620  -10.9990  -10.0870 C.3   109  LEU109      0.0001
     43  CD2       -5.2220   -9.0690   -9.4260 C.3   109  LEU109      0.0001
     44  N         -9.8310   -6.6270  -10.8480 N.am  110  THR110     -0.1953
     45  CA       -10.6320   -5.8620  -11.7910 C.3   110  THR110      0.1897
     46  C        -10.6080   -4.3780  -11.4350 C.2   110  THR110      0.2313
     47  O        -10.4820   -3.5210  -12.3160 O.2   110  THR110     -0.2863
     48  CB       -12.0720   -6.3970  -11.8470 C.3   110  THR110      0.1794
     49  OG1      -12.0440   -7.7930  -12.1570 O.3   110  THR110     -0.2208
     50  CG2      -12.8620   -5.6970  -12.9250 C.3   110  THR110      0.0378
     51  N         -7.3690   -2.4740  -12.3960 N.3   113  HIS113     -0.1226
     52  CA        -7.4510   -2.1010  -13.8070 C.3   113  HIS113      0.1752
     53  C         -8.3960   -0.9130  -14.0230 C.2   113  HIS113      0.2595
     54  O         -8.0330    0.0650  -14.6790 O.2   113  HIS113     -0.2718
     55  CB        -7.8870   -3.3310  -14.6040 C.3   113  HIS113      0.0759
     56  CG        -8.1130   -3.0900  -16.0670 C.ar  113  HIS113      0.0818
     57  ND1       -7.2580   -3.5580  -17.0420 N.ar  113  HIS113     -0.2268
     58  CD2       -9.1330   -2.4910  -16.7220 C.ar  113  HIS113      0.1154
     59  CE1       -7.7320   -3.2360  -18.2330 C.ar  113  HIS113      0.1986
     60  NE2       -8.8710   -2.5900  -18.0670 N.ar  113  HIS113     -0.2212
     61  N         -9.5950   -0.9830  -13.4520 N.am  114  GLU114     -0.1979
     62  CA       -10.5650    0.0930  -13.6320 C.3   114  GLU114      0.1602
     63  C        -10.0760    1.4080  -13.0560 C.2   114  GLU114      0.2287
     64  O        -10.2340    2.4510  -13.6820 O.2   114  GLU114     -0.2864
     65  CB       -11.9200   -0.2740  -13.0290 C.3   114  GLU114      0.0415
     66  CG       -12.6290   -1.4200  -13.7370 C.3   114  GLU114      0.1163
     67  CD       -12.6590   -1.2570  -15.2410 C.2   114  GLU114      0.3649
     68  OE1      -12.3320   -2.2330  -15.9470 O.co2 114  GLU114     -0.2457
     69  OE2      -12.9920   -0.1570  -15.7250 O.co2 114  GLU114     -0.2457
     70  N         -7.8730    3.2240  -15.3290 N.3   117  HIS117     -0.1241
     71  CA        -8.6670    4.0690  -16.2210 C.3   117  HIS117      0.1621
     72  C         -9.1550    5.3500  -15.5300 C.2   117  HIS117      0.2264
     73  O         -9.0840    6.4280  -16.1110 O.2   117  HIS117     -0.2867
     74  CB        -9.8970    3.3400  -16.7620 C.3   117  HIS117      0.0745
     75  CG        -9.6100    2.2140  -17.7060 C.ar  117  HIS117      0.0817
     76  ND1       -8.6910    2.2880  -18.7320 N.ar  117  HIS117     -0.2268
     77  CD2      -10.1930    0.9980  -17.8120 C.ar  117  HIS117      0.1154
     78  CE1       -8.7090    1.1540  -19.4140 C.ar  117  HIS117      0.1986
     79  NE2       -9.6160    0.3550  -18.8790 N.ar  117  HIS117     -0.2212
     80  N         -5.3380    1.1970  -22.2690 N.3   123  HIS123     -0.1241
     81  CA        -4.9220   -0.1910  -22.3090 C.3   123  HIS123      0.1621
     82  C         -3.4950   -0.3720  -22.7760 C.2   123  HIS123      0.2264
     83  O         -2.9750    0.4180  -23.5590 O.2   123  HIS123     -0.2867
     84  CB        -5.8630   -1.0150  -23.1770 C.3   123  HIS123      0.0745
     85  CG        -7.1850   -1.2650  -22.5310 C.ar  123  HIS123      0.0817
     86  ND1       -8.3620   -1.3440  -23.2390 N.ar  123  HIS123     -0.2268
     87  CD2       -7.5180   -1.4210  -21.2280 C.ar  123  HIS123      0.1154
     88  CE1       -9.3620   -1.5540  -22.4010 C.ar  123  HIS123      0.1986
     89  NE2       -8.8780   -1.6070  -21.1740 N.ar  123  HIS123     -0.2212
     90  N         -1.3780   -5.0360  -15.8560 N.3   130  VAL130     -0.1245
     91  CA        -2.7350   -5.0480  -15.3170 C.3   130  VAL130      0.1561
     92  C         -3.6760   -4.3020  -16.2660 C.2   130  VAL130      0.2260
     93  O         -4.8640   -4.6020  -16.3130 O.2   130  VAL130     -0.2867
     94  CB        -2.8160   -4.4930  -13.8660 C.3   130  VAL130      0.0252
     95  CG1       -2.7880   -2.9630  -13.8440 C.3   130  VAL130      0.0019
     96  CG2       -4.0580   -5.0330  -13.1650 C.3   130  VAL130      0.0019
     97  N         -3.6040   -4.5620  -19.4550 N.3   132  PHE132     -0.1228
     98  CA        -3.8900   -5.3900  -20.6280 C.3   132  PHE132      0.1721
     99  C         -5.3970   -5.6050  -20.6730 C.2   132  PHE132      0.2437
    100  O         -6.0170   -5.7970  -19.6290 O.2   132  PHE132     -0.2733
    101  CB        -3.1590   -6.7340  -20.5380 C.3   132  PHE132      0.0547
    102  CG        -3.2550   -7.5790  -21.7880 C.ar  132  PHE132     -0.0202
    103  CD1       -2.5980   -7.1980  -22.9570 C.ar  132  PHE132     -0.0042
    104  CD2       -3.9810   -8.7670  -21.7880 C.ar  132  PHE132     -0.0042
    105  CE1       -2.6770   -7.9830  -24.1090 C.ar  132  PHE132     -0.0003
    106  CE2       -4.0610   -9.5560  -22.9390 C.ar  132  PHE132     -0.0003
    107  CZ        -3.4120   -9.1540  -24.0950 C.ar  132  PHE132     -0.0000
    108  N         -6.0010   -5.5230  -21.8760 N.am  133  PRO133     -0.2718
    109  CA        -7.4590   -5.5820  -22.0010 C.3   133  PRO133      0.1535
    110  C         -8.1450   -6.8780  -21.5450 C.2   133  PRO133      0.2599
    111  O         -9.3660   -6.8970  -21.4200 O.2   133  PRO133     -0.2715
    112  CB        -7.6820   -5.3820  -23.5070 C.3   133  PRO133      0.0310
    113  CG        -6.4670   -4.6850  -23.9860 C.3   133  PRO133      0.0237
    114  CD        -5.3680   -5.3040  -23.1900 C.3   133  PRO133      0.0939
    115  N         -7.3840   -7.9410  -21.3000 N.am  134  THR134     -0.1937
    116  CA        -7.9770   -9.2400  -20.9730 C.3   134  THR134      0.2028
    117  C         -7.8400   -9.5740  -19.4950 C.2   134  THR134      0.2642
    118  O         -6.7390   -9.5220  -18.9430 O.2   134  THR134     -0.2714
    119  CB        -7.3430  -10.3750  -21.8030 C.3   134  THR134      0.1808
    120  OG1       -7.3010   -9.9890  -23.1800 O.3   134  THR134     -0.2208
    121  CG2       -8.1440  -11.6680  -21.6680 C.3   134  THR134      0.0379
    122  N         -8.9580   -9.9290  -18.8680 N.am  135  TYR135     -0.1973
    123  CA        -8.9400  -10.3770  -17.4810 C.3   135  TYR135      0.1639
    124  C         -8.3620  -11.7840  -17.3560 C.2   135  TYR135      0.2290
    125  O         -8.7370  -12.6900  -18.1010 O.2   135  TYR135     -0.2864
    126  CB       -10.3400  -10.3350  -16.8600 C.3   135  TYR135      0.0560
    127  CG       -10.3930  -10.9710  -15.4850 C.ar  135  TYR135     -0.0198
    128  CD1      -10.0660  -10.2380  -14.3440 C.ar  135  TYR135     -0.0009
    129  CD2      -10.7450  -12.3120  -15.3290 C.ar  135  TYR135     -0.0009
    130  CE1      -10.0960  -10.8200  -13.0840 C.ar  135  TYR135      0.0417
    131  CE2      -10.7760  -12.9060  -14.0760 C.ar  135  TYR135      0.0417
    132  CZ       -10.4490  -12.1520  -12.9570 C.ar  135  TYR135      0.1957
    133  OH       -10.4800  -12.7300  -11.7120 O.3   135  TYR135     -0.2866
@<TRIPOS>BOND
     1   105   107   ar
     2   105   103   ar
     3   107   106   ar
     4   113   112    1
     5   113   114    1
     6    83    82    2
     7   112   109    1
     8    86    85   ar
     9    86    88   ar
    10   114   108    1
    11   120   119    1
    12    84    85    1
    13    84    81    1
    14   103   102   ar
    15   106   104   ar
    16    12    10    1
    17    82    81    1
    18    85    87   ar
    19    88    89   ar
    20    10     9    1
    21    81    80    1
    22   109   108    1
    23   109   110    1
    24   108    99   am
    25     2     3    1
    26     2     1    1
    27   119   121    1
    28   119   116    1
    29   102   104   ar
    30   102   101    1
    31   110   111    2
    32   110   115   am
    33   115   116    1
    34    87    89   ar
    35     5     3   am
    36     5     6    1
    37     3     4    2
    38   116   117    1
    39     9     6    1
    40     9    11    1
    41    99    98    1
    42    99   100    2
    43    98   101    1
    44    98    97    1
    45     6     7    1
    46   117   118    2
    47   117   122   am
    48    78    79   ar
    49    78    76   ar
    50     7     8    2
    51     7    13   am
    52    79    77   ar
    53   122   123    1
    54    76    75   ar
    55    30    31    1
    56    30    27    1
    57    32    31   ar
    58    32    34   ar
    59    31    33   ar
    60    34    35   ar
    61    59    60   ar
    62    59    57   ar
    63    13    14    1
    64   125   124    2
    65    60    58   ar
    66    24    23    2
    67    77    75   ar
    68    33    35   ar
    69    75    74    1
    70   123   124    1
    71   123   126    1
    72    27    26    1
    73    27    28    1
    74    57    56   ar
    75    18    20    1
    76    18    19    1
    77    18    17    1
    78   126   127    1
    79    23    26   am
    80    23    22    1
    81    74    71    1
    82    58    56   ar
    83    14    17    1
    84    14    15    1
    85    21    15   am
    86    21    22    1
    87    28    29    2
    88    93    92    2
    89    92    91    1
    90    71    72    1
    91    71    70    1
    92    73    72    2
    93    56    55    1
    94    68    67   ar
    95    15    16    2
    96    90    91    1
    97    22    25    1
    98    69    67   ar
    99   127   129   ar
   100   127   128   ar
   101   129   131   ar
   102    91    94    1
   103    67    66    1
   104    54    53    2
   105    55    52    1
   106   128   130   ar
   107   131   132   ar
   108    53    52    1
   109    53    61   am
   110    94    95    1
   111    94    96    1
   112    52    51    1
   113    66    65    1
   114    64    63    2
   115    62    61    1
   116    62    63    1
   117    62    65    1
   118   130   132   ar
   119   132   133    1
   120    50    48    1
   121    47    46    2
   122    49    48    1
   123    48    45    1
   124    45    46    1
   125    45    44    1
   126    39    38    2
   127    44    38   am
   128    38    37    1
   129    40    37    1
   130    40    41    1
   131    42    41    1
   132    37    36    1
   133    41    43    1
