@<TRIPOS>MOLECULE
tmp/3f1aA00.pdb
 133 133 0 0 0
SMALL
GASTEIGER

@<TRIPOS>ATOM
      1  N          3.5450  -11.5420   -3.5530 N.3    74  GLY74      -0.1210
      2  CA         3.2680  -10.3980   -2.6850 C.3    74  GLY74       0.1956
      3  C          2.7510   -9.2100   -3.4770 C.2    74  GLY74       0.2612
      4  O          1.7410   -9.3200   -4.1750 O.2    74  GLY74      -0.2717
      5  N          3.4430   -8.0810   -3.3690 N.am   75  ILE75      -0.1965
      6  CA         3.0440   -6.8750   -4.1120 C.3    75  ILE75       0.1727
      7  C          3.2960   -7.0830   -5.6020 C.2    75  ILE75       0.2616
      8  O          4.4150   -7.4180   -6.0100 O.2    75  ILE75      -0.2715
      9  CB         3.8070   -5.6080   -3.6430 C.3    75  ILE75       0.0290
     10  CG1        3.5740   -5.3260   -2.1510 C.3    75  ILE75       0.0022
     11  CG2        3.4480   -4.3900   -4.5140 C.3    75  ILE75       0.0023
     12  CD1        2.1210   -5.2610   -1.7260 C.3    75  ILE75       0.0001
     13  N          2.2520   -6.8850   -6.4020 N.am   76  LEU76      -0.1963
     14  CA         2.3220   -7.0590   -7.8510 C.3    76  LEU76       0.1728
     15  C          2.5450   -5.7300   -8.5690 C.2    76  LEU76       0.2616
     16  O          3.2100   -5.6730   -9.6120 O.2    76  LEU76      -0.2715
     17  CB         1.0490   -7.7430   -8.3650 C.3    76  LEU76       0.0311
     18  CG         0.6140   -9.0220   -7.6350 C.3    76  LEU76       0.0022
     19  CD1       -0.7160   -9.5100   -8.1550 C.3    76  LEU76       0.0001
     20  CD2        1.6820  -10.1330   -7.7480 C.3    76  LEU76       0.0001
     21  N          1.9750   -4.6650   -8.0080 N.am   77  ALA77      -0.1963
     22  CA         1.9550   -3.3520   -8.6440 C.3    77  ALA77       0.1728
     23  C          1.4970   -2.3350   -7.6290 C.2    77  ALA77       0.2616
     24  O          0.8960   -2.6910   -6.6220 O.2    77  ALA77      -0.2715
     25  CB         0.9990   -3.3560   -9.8390 C.3    77  ALA77       0.0334
     26  N          1.7840   -1.0670   -7.8960 N.am   78  HIS78      -0.1973
     27  CA         1.2330    0.0290   -7.0970 C.3    78  HIS78       0.1656
     28  C          1.1230    1.2700   -7.9770 C.2    78  HIS78       0.2291
     29  O          1.7820    1.3630   -9.0180 O.2    78  HIS78      -0.2864
     30  CB         2.0680    0.2910   -5.8320 C.3    78  HIS78       0.0771
     31  CG         3.3380    1.0360   -6.0860 C.ar   78  HIS78       0.0820
     32  ND1        3.4790    2.3770   -5.7930 N.ar   78  HIS78      -0.2267
     33  CD2        4.5150    0.6420   -6.6250 C.ar   78  HIS78       0.1154
     34  CE1        4.6940    2.7700   -6.1270 C.ar   78  HIS78       0.1986
     35  NE2        5.3450    1.7340   -6.6320 N.ar   78  HIS78      -0.2212
     36  N         -5.7520   -7.2340  -16.0900 N.3   109  LEU109     -0.1231
     37  CA        -6.5470   -7.1910  -14.8620 C.3   109  LEU109      0.1693
     38  C         -5.8550   -6.3650  -13.7860 C.2   109  LEU109      0.2592
     39  O         -6.5020   -5.5890  -13.0760 O.2   109  LEU109     -0.2718
     40  CB        -6.8140   -8.5980  -14.3310 C.3   109  LEU109      0.0284
     41  CG        -7.7780   -9.5040  -15.0850 C.3   109  LEU109      0.0019
     42  CD1       -7.7710  -10.8860  -14.4420 C.3   109  LEU109      0.0001
     43  CD2       -9.1940   -8.9450  -15.1270 C.3   109  LEU109      0.0001
     44  N         -4.5400   -6.5390  -13.6680 N.am  110  THR110     -0.1953
     45  CA        -3.7480   -5.7550  -12.7230 C.3   110  THR110      0.1897
     46  C         -3.8000   -4.2630  -13.0790 C.2   110  THR110      0.2313
     47  O         -3.9780   -3.4020  -12.2010 O.2   110  THR110     -0.2863
     48  CB        -2.3020   -6.2840  -12.6530 C.3   110  THR110      0.1794
     49  OG1       -2.3300   -7.6880  -12.3620 O.3   110  THR110     -0.2208
     50  CG2       -1.5190   -5.5830  -11.5640 C.3   110  THR110      0.0378
     51  N         -7.0500   -2.3440  -12.0990 N.3   113  HIS113     -0.1226
     52  CA        -6.9670   -1.9750  -10.6970 C.3   113  HIS113      0.1752
     53  C         -6.0100   -0.7940  -10.4820 C.2   113  HIS113      0.2595
     54  O         -6.3770    0.1950   -9.8410 O.2   113  HIS113     -0.2718
     55  CB        -6.5550   -3.2170   -9.9000 C.3   113  HIS113      0.0759
     56  CG        -6.3410   -2.9790   -8.4340 C.ar  113  HIS113      0.0818
     57  ND1       -7.1890   -3.4680   -7.4620 N.ar  113  HIS113     -0.2268
     58  CD2       -5.3440   -2.3450   -7.7720 C.ar  113  HIS113      0.1154
     59  CE1       -6.7340   -3.1270   -6.2690 C.ar  113  HIS113      0.1986
     60  NE2       -5.6140   -2.4450   -6.4270 N.ar  113  HIS113     -0.2212
     61  N         -4.8060   -0.8660  -11.0480 N.am  114  GLU114     -0.1979
     62  CA        -3.8360    0.2230  -10.8830 C.3   114  GLU114      0.1602
     63  C         -4.3260    1.5480  -11.4470 C.2   114  GLU114      0.2287
     64  O         -4.1700    2.5840  -10.8100 O.2   114  GLU114     -0.2864
     65  CB        -2.4720   -0.1380  -11.4780 C.3   114  GLU114      0.0415
     66  CG        -1.7800   -1.3010  -10.7750 C.3   114  GLU114      0.1163
     67  CD        -1.7790   -1.1550   -9.2720 C.2   114  GLU114      0.3649
     68  OE1       -2.1730   -2.1190   -8.5910 O.co2 114  GLU114     -0.2457
     69  OE2       -1.3890   -0.0850   -8.7760 O.co2 114  GLU114     -0.2457
     70  N         -6.5420    3.3680   -9.1920 N.3   117  HIS117     -0.1241
     71  CA        -5.7630    4.2070   -8.2700 C.3   117  HIS117      0.1621
     72  C         -5.2620    5.4820   -8.9530 C.2   117  HIS117      0.2264
     73  O         -5.3310    6.5590   -8.3710 O.2   117  HIS117     -0.2867
     74  CB        -4.5350    3.4800   -7.7200 C.3   117  HIS117      0.0745
     75  CG        -4.8280    2.3610   -6.7720 C.ar  117  HIS117      0.0817
     76  ND1       -5.7530    2.4440   -5.7510 N.ar  117  HIS117     -0.2268
     77  CD2       -4.2480    1.1440   -6.6550 C.ar  117  HIS117      0.1154
     78  CE1       -5.7360    1.3190   -5.0560 C.ar  117  HIS117      0.1986
     79  NE2       -4.8350    0.5110   -5.5880 N.ar  117  HIS117     -0.2212
     80  N         -9.0800    1.3090   -2.2010 N.3   123  HIS123     -0.1241
     81  CA        -9.5210   -0.0780   -2.1590 C.3   123  HIS123      0.1621
     82  C        -10.9630   -0.2550   -1.7110 C.2   123  HIS123      0.2264
     83  O        -11.5070    0.5530   -0.9680 O.2   123  HIS123     -0.2867
     84  CB        -8.5810   -0.9100   -1.2950 C.3   123  HIS123      0.0745
     85  CG        -7.2530   -1.1560   -1.9440 C.ar  123  HIS123      0.0817
     86  ND1       -6.0800   -1.2720   -1.2320 N.ar  123  HIS123     -0.2268
     87  CD2       -6.9120   -1.2750   -3.2490 C.ar  123  HIS123      0.1154
     88  CE1       -5.0760   -1.4680   -2.0700 C.ar  123  HIS123      0.1986
     89  NE2       -5.5540   -1.4720   -3.3020 N.ar  123  HIS123     -0.2212
     90  N        -13.0790   -4.8770   -8.6380 N.3   130  VAL130     -0.1245
     91  CA       -11.7170   -4.9050   -9.1740 C.3   130  VAL130      0.1561
     92  C        -10.7730   -4.1750   -8.2160 C.2   130  VAL130      0.2260
     93  O         -9.5960   -4.5000   -8.1520 O.2   130  VAL130     -0.2867
     94  CB       -11.6100   -4.3550  -10.6370 C.3   130  VAL130      0.0252
     95  CG1      -11.6320   -2.8300  -10.6780 C.3   130  VAL130      0.0019
     96  CG2      -10.3610   -4.9000  -11.3220 C.3   130  VAL130      0.0019
     97  N        -10.8330   -4.4400   -5.0160 N.3   132  PHE132     -0.1228
     98  CA       -10.5330   -5.2690   -3.8430 C.3   132  PHE132      0.1721
     99  C         -9.0200   -5.4710   -3.7930 C.2   132  PHE132      0.2437
    100  O         -8.4060   -5.6550   -4.8440 O.2   132  PHE132     -0.2733
    101  CB       -11.2620   -6.6140   -3.9420 C.3   132  PHE132      0.0547
    102  CG       -11.1750   -7.4620   -2.6990 C.ar  132  PHE132     -0.0202
    103  CD1      -11.8100   -7.0730   -1.5220 C.ar  132  PHE132     -0.0042
    104  CD2      -10.4740   -8.6560   -2.7130 C.ar  132  PHE132     -0.0042
    105  CE1      -11.7380   -7.8710   -0.3770 C.ar  132  PHE132     -0.0003
    106  CE2      -10.4000   -9.4550   -1.5690 C.ar  132  PHE132     -0.0003
    107  CZ       -11.0280   -9.0500   -0.4070 C.ar  132  PHE132     -0.0000
    108  N         -8.4100   -5.4000   -2.5870 N.am  133  PRO133     -0.2718
    109  CA        -6.9480   -5.4570   -2.4460 C.3   133  PRO133      0.1535
    110  C         -6.2520   -6.7700   -2.8310 C.2   133  PRO133      0.2599
    111  O         -5.0210   -6.8340   -2.8020 O.2   133  PRO133     -0.2715
    112  CB        -6.7350   -5.1970   -0.9420 C.3   133  PRO133      0.0310
    113  CG        -7.9720   -4.5520   -0.4730 C.3   133  PRO133      0.0237
    114  CD        -9.0560   -5.1980   -1.2750 C.3   133  PRO133      0.0939
    115  N         -7.0170   -7.8020   -3.1760 N.am  134  THR134     -0.1937
    116  CA        -6.4390   -9.1070   -3.4870 C.3   134  THR134      0.2028
    117  C         -6.5790   -9.4290   -4.9660 C.2   134  THR134      0.2642
    118  O         -7.6830   -9.3770   -5.5110 O.2   134  THR134     -0.2714
    119  CB        -7.1030  -10.2300   -2.6530 C.3   134  THR134      0.1808
    120  OG1       -7.0760   -9.8710   -1.2670 O.3   134  THR134     -0.2208
    121  CG2       -6.3820  -11.5620   -2.8440 C.3   134  THR134      0.0379
    122  N         -5.4620   -9.7670   -5.6040 N.am  135  TYR135     -0.1973
    123  CA        -5.4850  -10.1850   -7.0020 C.3   135  TYR135      0.1639
    124  C         -6.0800  -11.5840   -7.1470 C.2   135  TYR135      0.2290
    125  O         -5.6810  -12.5140   -6.4440 O.2   135  TYR135     -0.2864
    126  CB        -4.0820  -10.1540   -7.6190 C.3   135  TYR135      0.0560
    127  CG        -4.0230  -10.7870   -8.9960 C.ar  135  TYR135     -0.0198
    128  CD1       -4.2710  -10.0330  -10.1450 C.ar  135  TYR135     -0.0009
    129  CD2       -3.7350  -12.1440   -9.1500 C.ar  135  TYR135     -0.0009
    130  CE1       -4.2330  -10.6140  -11.4060 C.ar  135  TYR135      0.0417
    131  CE2       -3.6990  -12.7340  -10.4070 C.ar  135  TYR135      0.0417
    132  CZ        -3.9460  -11.9590  -11.5310 C.ar  135  TYR135      0.1957
    133  OH        -3.9090  -12.5330  -12.7800 O.3   135  TYR135     -0.2866
@<TRIPOS>BOND
     1    36    37    1
     2    43    41    1
     3    41    42    1
     4    41    40    1
     5    37    40    1
     6    37    38    1
     7    38    44   am
     8    38    39    2
     9    44    45    1
    10    46    45    1
    11    46    47    2
    12   133   132    1
    13    45    48    1
    14    48    49    1
    15    48    50    1
    16    51    52    1
    17   132   130   ar
    18   132   131   ar
    19    65    62    1
    20    65    66    1
    21    63    62    1
    22    63    64    2
    23   130   128   ar
    24    96    94    1
    25    61    62    1
    26    61    53   am
    27    66    67    1
    28    52    53    1
    29    52    55    1
    30    95    94    1
    31    94    91    1
    32    53    54    2
    33   131   129   ar
    34   128   127   ar
    35    55    56    1
    36    25    22    1
    37    16    15    2
    38    67    69   ar
    39    67    68   ar
    40    70    71    1
    41    91    90    1
    42    91    92    1
    43   129   127   ar
    44    29    28    2
    45   127   126    1
    46    72    73    2
    47    72    71    1
    48    22    21    1
    49    22    23    1
    50    15    21   am
    51    15    14    1
    52    56    58   ar
    53    56    57   ar
    54    17    14    1
    55    17    18    1
    56    71    74    1
    57    92    93    2
    58    19    18    1
    59    28    27    1
    60    26    23   am
    61    26    27    1
    62    14    13    1
    63    58    60   ar
    64    20    18    1
    65    74    75    1
    66    23    24    2
    67   126   123    1
    68    57    59   ar
    69   124   123    1
    70   124   125    2
    71    27    30    1
    72   123   122    1
    73    75    77   ar
    74    75    76   ar
    75    77    79   ar
    76    35    33   ar
    77    35    34   ar
    78    33    31   ar
    79    60    59   ar
    80    13     7   am
    81    34    32   ar
    82    31    30    1
    83    31    32   ar
    84     8     7    2
    85    76    78   ar
    86   122   117   am
    87     7     6    1
    88    79    78   ar
    89   118   117    2
    90    97    98    1
    91   117   116    1
    92   100    99    2
    93    11     9    1
    94     4     3    2
    95     6     9    1
    96     6     5    1
    97   101    98    1
    98   101   102    1
    99    98    99    1
   100    99   108   am
   101     9    10    1
   102     1     2    1
   103   116   115    1
   104   116   119    1
   105     3     5   am
   106     3     2    1
   107    89    87   ar
   108    89    88   ar
   109    87    85   ar
   110   115   110   am
   111   121   119    1
   112   110   111    2
   113   110   109    1
   114   104   102   ar
   115   104   106   ar
   116   102   103   ar
   117   119   120    1
   118   108   109    1
   119   108   114    1
   120   109   112    1
   121    80    81    1
   122    81    82    1
   123    81    84    1
   124    10    12    1
   125    88    86   ar
   126    85    84    1
   127    85    86   ar
   128    82    83    2
   129   106   107   ar
   130   103   105   ar
   131   114   113    1
   132   112   113    1
   133   107   105   ar
