@<TRIPOS>MOLECULE
tmp/3f1oA00.pdb
 180 167 0 0 0
SMALL
GASTEIGER

@<TRIPOS>ATOM
      1  N         18.4980  -51.5030    9.5000 N.3     9  PHE9       -0.1241
      2  CA        18.5890  -51.2750   10.9500 C.3     9  PHE9        0.1605
      3  C         17.2760  -50.7280   11.4570 C.2     9  PHE9        0.2264
      4  O         16.6320  -49.9190   10.8060 O.2     9  PHE9       -0.2867
      5  CB        19.7620  -50.3510   11.3380 C.3     9  PHE9        0.0534
      6  CG        19.6820  -48.9550   10.7760 C.ar    9  PHE9       -0.0203
      7  CD1       19.2080  -47.9150   11.5810 C.ar    9  PHE9       -0.0042
      8  CD2       20.1120  -48.6640    9.4860 C.ar    9  PHE9       -0.0042
      9  CE1       19.1060  -46.6390   11.1050 C.ar    9  PHE9       -0.0003
     10  CE2       20.0420  -47.3360    8.9900 C.ar    9  PHE9       -0.0003
     11  CZ        19.5340  -46.3240    9.8130 C.ar    9  PHE9       -0.0000
     12  N         15.1710  -48.5450   14.3230 N.3    11  SER11      -0.1217
     13  CA        15.2950  -47.4940   15.3270 C.3    11  SER11       0.1889
     14  C         13.9420  -47.2850   15.9470 C.2    11  SER11       0.2288
     15  O         12.8970  -47.5990   15.3950 O.2    11  SER11      -0.2866
     16  CB        15.8760  -46.1770   14.7710 C.3    11  SER11       0.2089
     17  OG        15.0930  -45.6540   13.7030 O.3    11  SER11      -0.2183
     18  N         11.7590  -44.3100   18.2930 N.3    13  HIS13      -0.1241
     19  CA        11.6750  -42.8780   18.5790 C.3    13  HIS13       0.1621
     20  C         10.5200  -42.5230   19.4900 C.2    13  HIS13       0.2264
     21  O          9.4730  -43.1680   19.4350 O.2    13  HIS13      -0.2867
     22  CB        11.5710  -42.0630   17.2720 C.3    13  HIS13       0.0745
     23  CG        12.6270  -42.4050   16.2660 C.ar   13  HIS13       0.0817
     24  ND1       13.6920  -41.5670   16.0030 N.ar   13  HIS13      -0.2268
     25  CD2       12.8130  -43.5030   15.5000 C.ar   13  HIS13       0.1154
     26  CE1       14.4780  -42.1360   15.1060 C.ar   13  HIS13       0.1986
     27  NE2       13.9750  -43.3100   14.7830 N.ar   13  HIS13      -0.2212
     28  N         10.0950  -37.4850   17.9420 N.3    17  MET17      -0.1245
     29  CA        11.0280  -37.9190   16.9100 C.3    17  MET17       0.1570
     30  C         12.4620  -38.1370   17.4190 C.2    17  MET17       0.2261
     31  O         13.3450  -38.5440   16.6850 O.2    17  MET17      -0.2867
     32  CB        11.0160  -36.9580   15.7080 C.3    17  MET17       0.0387
     33  CG         9.6130  -36.6500   15.2070 C.3    17  MET17       0.0595
     34  SD         8.6330  -38.1450   14.9160 S.3    17  MET17      -0.1393
     35  CE         7.0130  -37.4070   14.5430 C.3    17  MET17       0.0692
     36  N         15.4830  -40.1640   18.9670 N.3    19  PHE19      -0.1241
     37  CA        15.8840  -41.5820   19.0990 C.3    19  PHE19       0.1605
     38  C         15.8110  -42.0110   20.5660 C.2    19  PHE19       0.2264
     39  O         16.3010  -41.3110   21.4800 O.2    19  PHE19      -0.2867
     40  CB        17.3290  -41.7910   18.6480 C.3    19  PHE19       0.0534
     41  CG        17.5330  -41.8660   17.1470 C.ar   19  PHE19      -0.0203
     42  CD1       17.5290  -43.0900   16.4900 C.ar   19  PHE19      -0.0042
     43  CD2       17.8420  -40.7220   16.4190 C.ar   19  PHE19      -0.0042
     44  CE1       17.8200  -43.1500   15.1320 C.ar   19  PHE19      -0.0003
     45  CE2       18.0930  -40.8020   15.0670 C.ar   19  PHE19      -0.0003
     46  CZ        18.0660  -42.0010   14.4410 C.ar   19  PHE19      -0.0000
     47  N         15.3080  -37.1430   14.8150 N.3    42  ALA42      -0.1245
     48  CA        15.4930  -37.5760   13.4250 C.3    42  ALA42       0.1562
     49  C         15.7730  -36.4220   12.4930 C.2    42  ALA42       0.2260
     50  O         16.5300  -36.5430   11.5230 O.2    42  ALA42      -0.2867
     51  CB        14.2500  -38.2980   12.9640 C.3    42  ALA42       0.0290
     52  N         19.1870  -35.1460   11.1190 N.3    45  PHE45      -0.1227
     53  CA        19.9560  -36.0020   10.2270 C.3    45  PHE45       0.1736
     54  C         19.5320  -35.9620    8.7620 C.2    45  PHE45       0.2595
     55  O         20.1810  -36.5420    7.9080 O.2    45  PHE45      -0.2718
     56  CB        19.8460  -37.4600   10.7070 C.3    45  PHE45       0.0547
     57  CG        20.3700  -37.6590   12.0980 C.ar   45  PHE45      -0.0202
     58  CD1       21.7060  -37.9230   12.3040 C.ar   45  PHE45      -0.0042
     59  CD2       19.5290  -37.5640   13.2030 C.ar   45  PHE45      -0.0042
     60  CE1       22.1940  -38.0920   13.5920 C.ar   45  PHE45      -0.0003
     61  CE2       20.0220  -37.7130   14.4770 C.ar   45  PHE45      -0.0003
     62  CZ        21.3450  -37.9560   14.6710 C.ar   45  PHE45      -0.0000
     63  N         18.4470  -35.2730    8.4440 N.am   46  TYR46      -0.1976
     64  CA        17.9720  -35.2390    7.0610 C.3    46  TYR46       0.1639
     65  C         18.6740  -34.1660    6.2410 C.2    46  TYR46       0.2290
     66  O         18.9010  -33.0510    6.7080 O.2    46  TYR46      -0.2864
     67  CB        16.4690  -34.9470    7.0290 C.3    46  TYR46       0.0560
     68  CG        15.5900  -35.9220    7.7680 C.ar   46  TYR46      -0.0198
     69  CD1       15.8570  -37.2950    7.7780 C.ar   46  TYR46      -0.0009
     70  CD2       14.4790  -35.4820    8.4630 C.ar   46  TYR46      -0.0009
     71  CE1       15.0520  -38.1520    8.4600 C.ar   46  TYR46       0.0417
     72  CE2       13.6530  -36.3520    9.1340 C.ar   46  TYR46       0.0417
     73  CZ        13.9500  -37.6890    9.1360 C.ar   46  TYR46       0.1957
     74  OH        13.1260  -38.5760    9.8010 O.3    46  TYR46      -0.2866
     75  N         10.2250  -34.8930    4.4030 N.3    54  MET54      -0.1245
     76  CA        10.2020  -35.6890    5.6070 C.3    54  MET54       0.1570
     77  C          9.1840  -35.1720    6.6490 C.2    54  MET54       0.2261
     78  O          8.5470  -35.9560    7.3320 O.2    54  MET54      -0.2867
     79  CB        11.6090  -35.7620    6.2110 C.3    54  MET54       0.0387
     80  CG        12.6120  -36.5130    5.3370 C.3    54  MET54       0.0595
     81  SD        12.1080  -38.1410    4.7390 S.3    54  MET54      -0.1393
     82  CE        12.2340  -39.1980    6.1530 C.3    54  MET54       0.0692
     83  N          5.9510  -36.5670    5.6420 N.3    57  SER57      -0.1202
     84  CA         5.9070  -37.9930    5.9420 C.3    57  SER57       0.2020
     85  C          5.6400  -38.2360    7.4220 C.2    57  SER57       0.2618
     86  O          4.8590  -39.1150    7.7790 O.2    57  SER57      -0.2717
     87  CB         7.2260  -38.6550    5.5460 C.3    57  SER57       0.2103
     88  OG         7.0410  -40.0390    5.3040 O.3    57  SER57      -0.2182
     89  N          6.2930  -37.4570    8.2780 N.am   58  HIS58      -0.1975
     90  CA         6.1090  -37.5740    9.7300 C.3    58  HIS58       0.1656
     91  C          4.6570  -37.2090   10.0660 C.2    58  HIS58       0.2291
     92  O          4.0200  -37.8490   10.8930 O.2    58  HIS58      -0.2864
     93  CB         7.0900  -36.6780   10.5060 C.3    58  HIS58       0.0771
     94  CG         8.5080  -37.1970   10.5680 C.ar   58  HIS58       0.0820
     95  ND1        8.9940  -37.9040   11.6520 N.ar   58  HIS58      -0.2267
     96  CD2        9.5570  -37.0560    9.7210 C.ar   58  HIS58       0.1154
     97  CE1       10.2660  -38.1970   11.4510 C.ar   58  HIS58       0.1986
     98  NE2       10.6350  -37.6840   10.2890 N.ar   58  HIS58      -0.2212
     99  N          2.5320  -40.1420    9.0850 N.3    61  LEU61      -0.1245
    100  CA         2.7390  -41.2120   10.0570 C.3    61  LEU61       0.1561
    101  C          1.8830  -40.9950   11.3190 C.2    61  LEU61       0.2260
    102  O          1.2860  -41.9140   11.8370 O.2    61  LEU61      -0.2867
    103  CB         4.2240  -41.2540   10.4290 C.3    61  LEU61       0.0270
    104  CG         4.6190  -42.2010   11.5620 C.3    61  LEU61       0.0019
    105  CD1        4.2490  -43.6640   11.2770 C.3    61  LEU61       0.0001
    106  CD2        6.1110  -42.0600   11.7980 C.3    61  LEU61       0.0001
    107  N          3.6280  -45.2970    7.7530 N.3    67  VAL67      -0.1245
    108  CA         4.0360  -44.5850    6.5450 C.3    67  VAL67       0.1561
    109  C          5.2540  -45.2650    5.9470 C.2    67  VAL67       0.2260
    110  O          6.0250  -45.8830    6.6640 O.2    67  VAL67      -0.2867
    111  CB         4.3540  -43.0760    6.8350 C.3    67  VAL67       0.0252
    112  CG1        5.6880  -42.9350    7.5420 C.3    67  VAL67       0.0019
    113  CG2        4.3500  -42.2430    5.5470 C.3    67  VAL67       0.0019
    114  N          8.5170  -43.9500    3.7510 N.3    69  SER69      -0.1217
    115  CA         9.1160  -42.6060    3.6260 C.3    69  SER69       0.1889
    116  C          9.4230  -42.0880    2.2270 C.2    69  SER69       0.2288
    117  O          9.4860  -40.8720    2.0190 O.2    69  SER69      -0.2866
    118  CB        10.4470  -42.5470    4.3760 C.3    69  SER69       0.2089
    119  OG        11.4110  -43.3720    3.7330 O.3    69  SER69      -0.2183
    120  N         15.2940  -40.9020    0.8390 N.3    72  TYR72      -0.1241
    121  CA        15.8420  -39.6740    1.4020 C.3    72  TYR72       0.1605
    122  C         17.3070  -39.8520    1.7880 C.2    72  TYR72       0.2264
    123  O         17.8230  -40.9790    1.8320 O.2    72  TYR72      -0.2867
    124  CB        15.0140  -39.2100    2.6000 C.3    72  TYR72       0.0534
    125  CG        15.0710  -40.1120    3.8330 C.ar   72  TYR72      -0.0201
    126  CD1       14.2530  -41.2300    3.9380 C.ar   72  TYR72      -0.0009
    127  CD2       15.9310  -39.8240    4.8870 C.ar   72  TYR72      -0.0009
    128  CE1       14.2840  -42.0260    5.0500 C.ar   72  TYR72       0.0417
    129  CE2       15.9750  -40.6270    5.9990 C.ar   72  TYR72       0.0417
    130  CZ        15.1470  -41.7170    6.0840 C.ar   72  TYR72       0.1957
    131  OH        15.2080  -42.5180    7.1870 O.3    72  TYR72      -0.2866
    132  N         20.2640  -39.3850    4.5950 N.3    74  MET74      -0.1245
    133  CA        20.6420  -39.2280    5.9870 C.3    74  MET74       0.1570
    134  C         22.1350  -38.8890    6.1300 C.2    74  MET74       0.2261
    135  O         22.9800  -39.5510    5.5030 O.2    74  MET74      -0.2867
    136  CB        20.3620  -40.5330    6.7320 C.3    74  MET74       0.0387
    137  CG        20.5560  -40.4230    8.2200 C.3    74  MET74       0.0595
    138  SD        20.2780  -42.0090    9.0200 S.3    74  MET74      -0.1393
    139  CE        20.7530  -41.5120   10.6720 C.3    74  MET74       0.0692
    140  N         18.4520  -43.6530    2.0170 N.3    84  LEU84      -0.1245
    141  CA        17.6840  -44.5400    2.8830 C.3    84  LEU84       0.1561
    142  C         16.2270  -44.5880    2.4290 C.2    84  LEU84       0.2260
    143  O         15.7340  -43.6930    1.7360 O.2    84  LEU84      -0.2867
    144  CB        17.6510  -44.0080    4.3130 C.3    84  LEU84       0.0270
    145  CG        18.8350  -44.1580    5.2550 C.3    84  LEU84       0.0019
    146  CD1       18.3740  -43.7370    6.6300 C.3    84  LEU84       0.0001
    147  CD2       19.3210  -45.5790    5.2750 C.3    84  LEU84       0.0001
    148  N         12.5270  -45.7880    4.7290 N.3    86  THR86      -0.1218
    149  CA        12.0800  -46.1970    6.0480 C.3    86  THR86       0.1862
    150  C         10.6120  -46.5480    6.0430 C.2    86  THR86       0.2287
    151  O          9.8020  -45.8160    5.4650 O.2    86  THR86      -0.2866
    152  CB        12.2890  -45.0290    7.0190 C.3    86  THR86       0.1770
    153  OG1       13.6810  -44.7720    7.1390 O.3    86  THR86      -0.2211
    154  CG2       11.7100  -45.3600    8.3610 C.3    86  THR86       0.0375
    155  N          7.7930  -46.6400    8.7550 N.3    88  GLY88      -0.1225
    156  CA         7.5140  -46.1820   10.1130 C.3    88  GLY88       0.1811
    157  C          6.1650  -46.6580   10.6080 C.2    88  GLY88       0.2280
    158  O          5.2010  -46.7710    9.8300 O.2    88  GLY88      -0.2866
    159  N          7.4800  -44.5690   18.0890 N.3    97  ILE97      -0.1245
    160  CA         7.5290  -44.8420   16.6730 C.3    97  ILE97       0.1561
    161  C          8.6430  -45.8560   16.4330 C.2    97  ILE97       0.2260
    162  O          9.7570  -45.7200   16.9660 O.2    97  ILE97      -0.2867
    163  CB         7.8280  -43.5740   15.9040 C.3    97  ILE97       0.0252
    164  CG1        6.6580  -42.5640   15.9970 C.3    97  ILE97       0.0019
    165  CG2        8.1370  -43.8770   14.4360 C.3    97  ILE97       0.0019
    166  CD1        7.0570  -41.1580   15.6900 C.3    97  ILE97       0.0001
    167  N         10.8590  -47.6440   13.3670 N.3    99  CYS99      -0.1235
    168  CA        11.3000  -47.4200   11.9920 C.3    99  CYS99       0.1677
    169  C         12.1790  -48.5450   11.5420 C.2    99  CYS99       0.2270
    170  O         13.1750  -48.8720   12.1770 O.2    99  CYS99      -0.2867
    171  CB        12.1040  -46.1380   11.8860 C.3    99  CYS99       0.0956
    172  SG        11.1590  -44.6890   12.2130 S.3    99  CYS99      -0.0801
    173  N         14.7040  -49.2590    8.7540 N.3   101  ASN101     -0.1240
    174  CA        15.4890  -48.4190    7.8420 C.3   101  ASN101      0.1653
    175  C         16.3400  -49.2710    6.9330 C.2   101  ASN101      0.2266
    176  O         17.0270  -50.1560    7.4090 O.2   101  ASN101     -0.2867
    177  CB        16.3650  -47.4940    8.6850 C.3   101  ASN101      0.1155
    178  CG        15.5480  -46.7040    9.6930 C.2   101  ASN101      0.2627
    179  OD1       14.7290  -45.8760    9.3240 O.2   101  ASN101     -0.2716
    180  ND2       15.7990  -46.9460   10.9680 N.am  101  ASN101     -0.0877
@<TRIPOS>BOND
     1   120   121    1
     2   121   122    1
     3   121   124    1
     4   143   142    2
     5   122   123    2
     6   140   141    1
     7   117   116    2
     8   116   115    1
     9   142   141    1
    10   124   125    1
    11   141   144    1
    12   115   114    1
    13   115   118    1
    14   119   118    1
    15   125   126   ar
    16   125   127   ar
    17   126   128   ar
    18   144   145    1
    19    75    76    1
    20   132   133    1
    21   148   149    1
    22    81    80    1
    23    81    82    1
    24   127   129   ar
    25   128   130   ar
    26   145   147    1
    27   145   146    1
    28    88    87    1
    29    80    79    1
    30   151   150    2
    31   135   134    2
    32    87    84    1
    33   113   111    1
    34    76    79    1
    35    76    77    1
    36    83    84    1
    37    84    85    1
    38   109   108    1
    39   109   110    2
    40   133   134    1
    41   133   136    1
    42   129   130   ar
    43   150   149    1
    44   149   152    1
    45   130   131    1
    46    65    66    2
    47    65    64    1
    48   108   111    1
    49   108   107    1
    50    77    78    2
    51   136   137    1
    52   111   112    1
    53   175   176    2
    54   175   174    1
    55   152   153    1
    56   152   154    1
    57    67    64    1
    58    67    68    1
    59    64    63    1
    60    85    86    2
    61    85    89   am
    62    68    69   ar
    63    68    70   ar
    64    69    71   ar
    65   174   177    1
    66   174   173    1
    67    55    54    2
    68   137   138    1
    69    89    90    1
    70    63    54   am
    71    71    73   ar
    72    70    72   ar
    73   177   178    1
    74   155   156    1
    75    54    53    1
    76    10     8   ar
    77    10    11   ar
    78   138   139    1
    79    99   100    1
    80    72    73   ar
    81    73    74    1
    82   179   178    2
    83     8     6   ar
    84     1     2    1
    85   178   180   am
    86    96    98   ar
    87    96    94   ar
    88    90    91    1
    89    90    93    1
    90    11     9   ar
    91   158   157    2
    92   100   103    1
    93   100   101    1
    94    91    92    2
    95   156   157    1
    96    53    56    1
    97    53    52    1
    98    98    97   ar
    99   103   104    1
   100    93    94    1
   101    94    95   ar
   102    56    57    1
   103     6     5    1
   104     6     7   ar
   105     4     3    2
   106     2     5    1
   107     2     3    1
   108     9     7   ar
   109   105   104    1
   110   101   102    2
   111    97    95   ar
   112    50    49    2
   113   169   168    1
   114   169   170    2
   115   104   106    1
   116   171   168    1
   117   171   172    1
   118   168   167    1
   119    57    58   ar
   120    57    59   ar
   121    58    60   ar
   122    49    48    1
   123    51    48    1
   124    59    61   ar
   125    48    47    1
   126    60    62   ar
   127    17    16    1
   128    12    13    1
   129   165   163    1
   130    46    45   ar
   131    46    44   ar
   132    61    62   ar
   133    35    34    1
   134    16    13    1
   135    27    26   ar
   136    27    25   ar
   137    34    33    1
   138    45    43   ar
   139    26    24   ar
   140    44    42   ar
   141    33    32    1
   142    13    14    1
   143    15    14    2
   144    25    23   ar
   145   166   164    1
   146    32    29    1
   147   163   164    1
   148   163   160    1
   149    24    23   ar
   150    23    22    1
   151    43    41   ar
   152   161   160    1
   153   161   162    2
   154    42    41   ar
   155   160   159    1
   156    31    30    2
   157    29    30    1
   158    29    28    1
   159    41    40    1
   160    22    19    1
   161    18    19    1
   162    19    20    1
   163    40    37    1
   164    36    37    1
   165    37    38    1
   166    21    20    2
   167    38    39    2
