@<TRIPOS>MOLECULE
tmp/3f1qA02.pdb
 203 195 0 0 0
SMALL
GASTEIGER

@<TRIPOS>ATOM
      1  N          5.6330  -24.3540   -7.4590 N.3     6  TYR6       -0.1241
      2  CA         5.4110  -25.7190   -6.9870 C.3     6  TYR6        0.1605
      3  C          4.1750  -26.3520   -7.6140 C.2     6  TYR6        0.2264
      4  O          4.2450  -27.4710   -8.1200 O.2     6  TYR6       -0.2867
      5  CB         5.3320  -25.7710   -5.4570 C.3     6  TYR6        0.0534
      6  CG         6.6780  -25.8970   -4.7880 C.ar    6  TYR6       -0.0201
      7  CD1        7.4850  -24.7770   -4.5760 C.ar    6  TYR6       -0.0009
      8  CD2        7.1450  -27.1390   -4.3630 C.ar    6  TYR6       -0.0009
      9  CE1        8.7270  -24.8970   -3.9540 C.ar    6  TYR6        0.0417
     10  CE2        8.3780  -27.2680   -3.7450 C.ar    6  TYR6        0.0417
     11  CZ         9.1630  -26.1470   -3.5440 C.ar    6  TYR6        0.1957
     12  OH        10.3830  -26.2870   -2.9340 O.3     6  TYR6       -0.2866
     13  N          7.0640  -27.6720  -10.3820 N.3    10  LEU10      -0.1231
     14  CA         7.8430  -28.6570   -9.6250 C.3    10  LEU10       0.1693
     15  C          7.0730  -29.9600   -9.3900 C.2    10  LEU10       0.2591
     16  O          7.5460  -31.0420   -9.7540 O.2    10  LEU10      -0.2718
     17  CB         8.3460  -28.0780   -8.2930 C.3    10  LEU10       0.0284
     18  CG         9.4480  -28.8730   -7.5760 C.3    10  LEU10       0.0019
     19  CD1       10.4170  -27.9400   -6.8670 C.3    10  LEU10       0.0001
     20  CD2        8.8720  -29.9080   -6.6000 C.3    10  LEU10       0.0001
     21  N          5.8900  -29.8490   -8.7950 N.am   11  MET11      -0.1979
     22  CA         5.0930  -31.0270   -8.4490 C.3    11  MET11       0.1605
     23  C          4.6060  -31.8320   -9.6640 C.2    11  MET11       0.2287
     24  O          4.7540  -33.0550   -9.6700 O.2    11  MET11      -0.2864
     25  CB         3.9390  -30.6640   -7.5130 C.3    11  MET11       0.0413
     26  CG         4.3880  -30.0390   -6.1920 C.3    11  MET11       0.0598
     27  SD         5.5380  -31.0400   -5.2240 S.3    11  MET11      -0.1393
     28  CE         4.4870  -32.3900   -4.7020 C.3    11  MET11       0.0692
     29  N          7.6130  -33.6650  -10.9140 N.3    14  LEU14      -0.1231
     30  CA         7.8880  -34.7560   -9.9880 C.3    14  LEU14       0.1693
     31  C          6.9350  -35.9300  -10.2260 C.2    14  LEU14       0.2591
     32  O          7.3790  -37.0790  -10.2970 O.2    14  LEU14      -0.2718
     33  CB         7.7820  -34.2750   -8.5360 C.3    14  LEU14       0.0284
     34  CG         7.9760  -35.3250   -7.4360 C.3    14  LEU14       0.0019
     35  CD1        9.4140  -35.8350   -7.4050 C.3    14  LEU14       0.0001
     36  CD2        7.5730  -34.7730   -6.0720 C.3    14  LEU14       0.0001
     37  N          5.6370  -35.6240  -10.3410 N.am   15  GLN15      -0.1979
     38  CA         4.5830  -36.6260  -10.5730 C.3    15  GLN15       0.1601
     39  C          4.7670  -37.3470  -11.9180 C.2    15  GLN15       0.2287
     40  O          4.3510  -38.4960  -12.0780 O.2    15  GLN15      -0.2864
     41  CB         3.1730  -35.9920  -10.4870 C.3    15  GLN15       0.0394
     42  CG         2.7810  -35.4300   -9.0990 C.3    15  GLN15       0.0908
     43  CD         1.2620  -35.2590   -8.8770 C.2    15  GLN15       0.2608
     44  OE1        0.5380  -34.7210   -9.7300 O.2    15  GLN15      -0.2717
     45  NE2        0.7820  -35.7100   -7.7130 N.am   15  GLN15      -0.0878
     46  N          4.1090  -42.7240   -7.3840 N.3    20  PRO20      -0.2116
     47  CA         3.6800  -42.1280   -6.1170 C.3    20  PRO20       0.1372
     48  C          4.4830  -42.5630   -4.8920 C.2    20  PRO20       0.2244
     49  O          4.8630  -41.7150   -4.0820 O.2    20  PRO20      -0.2868
     50  CB         2.2260  -42.5940   -5.9890 C.3    20  PRO20       0.0268
     51  CG         1.7830  -42.7980   -7.3810 C.3    20  PRO20       0.0207
     52  CD         2.9720  -43.3320   -8.1030 C.3    20  PRO20       0.0892
     53  N          7.9880  -41.0150   -5.1370 N.3    23  ALA23      -0.1231
     54  CA         7.8560  -39.5950   -4.8240 C.3    23  ALA23       0.1694
     55  C          7.7490  -39.3780   -3.3150 C.2    23  ALA23       0.2592
     56  O          8.4050  -38.4950   -2.7650 O.2    23  ALA23      -0.2718
     57  CB         6.6480  -39.0020   -5.5410 C.3    23  ALA23       0.0304
     58  N          6.9260  -40.1950   -2.6580 N.am   24  HIS24      -0.1976
     59  CA         6.7550  -40.1660   -1.2050 C.3    24  HIS24       0.1656
     60  C          8.0940  -40.4050   -0.4920 C.2    24  HIS24       0.2291
     61  O          8.4840  -39.6180    0.3750 O.2    24  HIS24      -0.2864
     62  CB         5.6790  -41.1900   -0.7810 C.3    24  HIS24       0.0771
     63  CG         5.4060  -41.2390    0.6950 C.ar   24  HIS24       0.0820
     64  ND1        4.6440  -42.2340    1.2730 N.ar   24  HIS24      -0.2267
     65  CD2        5.7830  -40.4210    1.7070 C.ar   24  HIS24       0.1154
     66  CE1        4.5670  -42.0270    2.5760 C.ar   24  HIS24       0.1986
     67  NE2        5.2570  -40.9370    2.8660 N.ar   24  HIS24      -0.2212
     68  N         10.4780  -37.4770   -0.9340 N.3    27  ALA27      -0.1245
     69  CA         9.9580  -36.3760   -0.1230 C.3    27  ALA27       0.1562
     70  C         10.3320  -36.5010    1.3510 C.2    27  ALA27       0.2260
     71  O         10.7650  -35.5250    1.9660 O.2    27  ALA27      -0.2867
     72  CB         8.4520  -36.2840   -0.2680 C.3    27  ALA27       0.0290
     73  N         14.1000  -35.7640    1.4620 N.3    30  PHE30      -0.1227
     74  CA        14.3610  -34.3310    1.2930 C.3    30  PHE30       0.1736
     75  C         13.9710  -33.5240    2.5260 C.2    30  PHE30       0.2596
     76  O         14.6980  -32.6140    2.9300 O.2    30  PHE30      -0.2718
     77  CB        13.6140  -33.7840    0.0720 C.3    30  PHE30       0.0547
     78  CG        14.4840  -33.5770   -1.1310 C.ar   30  PHE30      -0.0202
     79  CD1       14.7200  -34.6180   -2.0280 C.ar   30  PHE30      -0.0042
     80  CD2       15.0610  -32.3370   -1.3780 C.ar   30  PHE30      -0.0042
     81  CE1       15.5260  -34.4310   -3.1520 C.ar   30  PHE30      -0.0003
     82  CE2       15.8670  -32.1350   -2.4980 C.ar   30  PHE30      -0.0003
     83  CZ        16.1000  -33.1860   -3.3900 C.ar   30  PHE30      -0.0000
     84  N         12.8150  -33.8590    3.1010 N.am   31  THR31      -0.1953
     85  CA        12.3000  -33.1820    4.2920 C.3    31  THR31       0.1897
     86  C         13.1790  -33.4430    5.5120 C.2    31  THR31       0.2313
     87  O         13.4830  -32.5130    6.2730 O.2    31  THR31      -0.2863
     88  CB        10.8410  -33.5840    4.5620 C.3    31  THR31       0.1794
     89  OG1       10.0610  -33.3130    3.3890 O.3    31  THR31      -0.2208
     90  CG2       10.2570  -32.8190    5.7530 C.3    31  THR31       0.0378
     91  N         15.8550  -29.7860    3.2900 N.3    35  LEU35      -0.1231
     92  CA        15.9710  -29.1580    1.9730 C.3    35  LEU35       0.1693
     93  C         14.5800  -28.7510    1.4840 C.2    35  LEU35       0.2592
     94  O         13.9260  -29.4780    0.7210 O.2    35  LEU35      -0.2718
     95  CB        16.6480  -30.1050    0.9740 C.3    35  LEU35       0.0284
     96  CG        18.0180  -30.6930    1.3300 C.3    35  LEU35       0.0019
     97  CD1       18.2910  -31.9190    0.4830 C.3    35  LEU35       0.0001
     98  CD2       19.1330  -29.6660    1.1730 C.3    35  LEU35       0.0001
     99  N         14.1330  -27.5840    1.9440 N.am   36  LEU36      -0.1966
    100  CA        12.7700  -27.1150    1.7040 C.3    36  LEU36       0.1713
    101  C         12.7680  -25.6500    1.2520 C.2    36  LEU36       0.2458
    102  O         13.7740  -24.9490    1.4210 O.2    36  LEU36      -0.2730
    103  CB        11.9220  -27.2910    2.9740 C.3    36  LEU36       0.0310
    104  CG        11.9920  -28.6300    3.7210 C.3    36  LEU36       0.0022
    105  CD1       11.3790  -28.5170    5.1060 C.3    36  LEU36       0.0001
    106  CD2       11.3350  -29.7550    2.9230 C.3    36  LEU36       0.0001
    107  N         11.6480  -25.1820    0.6590 N.am   37  PRO37      -0.2727
    108  CA        11.5730  -23.7750    0.2670 C.3    37  PRO37       0.1402
    109  C         11.3220  -22.8680    1.4710 C.2    37  PRO37       0.2269
    110  O         10.8900  -23.3470    2.5230 O.2    37  PRO37      -0.2865
    111  CB        10.3700  -23.7470   -0.6770 C.3    37  PRO37       0.0296
    112  CG         9.4820  -24.8180   -0.1640 C.3    37  PRO37       0.0237
    113  CD        10.4080  -25.9090    0.3170 C.3    37  PRO37       0.0939
    114  N          2.4420  -39.6690    6.2610 N.3    63  PHE63      -0.1241
    115  CA         3.5610  -39.0940    5.5130 C.3    63  PHE63       0.1605
    116  C          4.8900  -39.5220    6.1260 C.2    63  PHE63       0.2264
    117  O          5.7830  -40.0170    5.4280 O.2    63  PHE63      -0.2867
    118  CB         3.4900  -37.5660    5.4120 C.3    63  PHE63       0.0534
    119  CG         4.6980  -36.9650    4.7450 C.ar   63  PHE63      -0.0203
    120  CD1        4.9070  -37.1290    3.3740 C.ar   63  PHE63      -0.0042
    121  CD2        5.6450  -36.2630    5.4880 C.ar   63  PHE63      -0.0042
    122  CE1        6.0400  -36.5940    2.7530 C.ar   63  PHE63      -0.0003
    123  CE2        6.7800  -35.7210    4.8780 C.ar   63  PHE63      -0.0003
    124  CZ         6.9720  -35.8840    3.5040 C.ar   63  PHE63      -0.0000
    125  N          8.7730  -26.8210    7.7580 N.3    76  MET76      -0.1245
    126  CA         7.7900  -26.5930    6.6960 C.3    76  MET76       0.1570
    127  C          6.6570  -25.6630    7.1600 C.2    76  MET76       0.2261
    128  O          5.9530  -25.0660    6.3400 O.2    76  MET76      -0.2867
    129  CB         7.2170  -27.9310    6.2290 C.3    76  MET76       0.0387
    130  CG         6.8590  -27.9860    4.7670 C.3    76  MET76       0.0595
    131  SD         6.3590  -29.6390    4.2540 S.3    76  MET76      -0.1393
    132  CE         7.9170  -30.4770    4.0920 C.3    76  MET76       0.0692
    133  N          0.0460  -47.2910   -3.9110 N.3    99  VAL99      -0.1245
    134  CA        -0.3280  -45.8710   -3.8540 C.3    99  VAL99       0.1561
    135  C         -0.6440  -45.3950   -5.2620 C.2    99  VAL99       0.2260
    136  O          0.1000  -45.6920   -6.2060 O.2    99  VAL99      -0.2867
    137  CB         0.8020  -44.9720   -3.2880 C.3    99  VAL99       0.0252
    138  CG1        0.2490  -43.5840   -2.9300 C.3    99  VAL99       0.0019
    139  CG2        1.4470  -45.6070   -2.0840 C.3    99  VAL99       0.0019
    140  N         -2.3590  -42.0210   -7.6480 N.3   101  ARG101     -0.1245
    141  CA        -2.7920  -40.6320   -7.7270 C.3   101  ARG101      0.1563
    142  C         -4.0080  -40.5140   -8.6390 C.2   101  ARG101      0.2260
    143  O         -4.0860  -41.1800   -9.6690 O.2   101  ARG101     -0.2867
    144  CB        -1.6860  -39.7500   -8.2910 C.3   101  ARG101      0.0307
    145  CG        -0.3920  -39.6930   -7.5060 C.3   101  ARG101      0.0489
    146  CD         0.6130  -39.0640   -8.4490 C.3   101  ARG101      0.2205
    147  NE         1.8340  -38.5610   -7.8410 N.pl3 101  ARG101     -0.0865
    148  CZ         3.0670  -38.8870   -8.2330 C.cat 101  ARG101      0.5346
    149  NH1        4.1050  -38.3420   -7.6190 N.pl3 101  ARG101      0.1354
    150  NH2        3.2680  -39.7510   -9.2260 N.pl3 101  ARG101      0.1354
    151  N         -5.9560  -39.1710   -3.7620 N.3   108  VAL108     -0.1245
    152  CA        -5.0180  -40.2870   -3.7380 C.3   108  VAL108      0.1561
    153  C         -5.7730  -41.5070   -3.2080 C.2   108  VAL108      0.2260
    154  O         -6.6900  -41.3690   -2.3870 O.2   108  VAL108     -0.2867
    155  CB        -3.7540  -39.9700   -2.8640 C.3   108  VAL108      0.0252
    156  CG1       -2.9610  -41.2280   -2.5210 C.3   108  VAL108      0.0019
    157  CG2       -2.8430  -38.9420   -3.5750 C.3   108  VAL108      0.0019
    158  N         -1.2450  -49.0880    1.6390 N.3   112  TYR112     -0.1241
    159  CA         0.0640  -49.4180    2.1990 C.3   112  TYR112      0.1605
    160  C          0.0250  -50.6510    3.0940 C.2   112  TYR112      0.2264
    161  O          0.8930  -51.5140    2.9900 O.2   112  TYR112     -0.2867
    162  CB         0.6320  -48.2410    2.9850 C.3   112  TYR112      0.0534
    163  CG         1.5510  -47.3460    2.2000 C.ar  112  TYR112     -0.0201
    164  CD1        1.2150  -46.0210    1.9660 C.ar  112  TYR112     -0.0009
    165  CD2        2.7710  -47.8180    1.7050 C.ar  112  TYR112     -0.0009
    166  CE1        2.0720  -45.1750    1.2550 C.ar  112  TYR112      0.0417
    167  CE2        3.6330  -46.9810    0.9850 C.ar  112  TYR112      0.0417
    168  CZ         3.2700  -45.6600    0.7750 C.ar  112  TYR112      0.1957
    169  OH         4.0920  -44.8100    0.0730 O.3   112  TYR112     -0.2866
    170  N         -2.5800  -34.0130    4.4680 N.3   321  TYR321     -0.1241
    171  CA        -1.5070  -34.7810    3.8570 C.3   321  TYR321      0.1605
    172  C         -1.6250  -34.6710    2.3380 C.2   321  TYR321      0.2264
    173  O         -0.7420  -34.1020    1.6960 O.2   321  TYR321     -0.2867
    174  CB        -1.5040  -36.2350    4.3670 C.3   321  TYR321      0.0534
    175  CG        -0.4660  -37.1780    3.7640 C.ar  321  TYR321     -0.0201
    176  CD1       -0.4820  -38.5330    4.0880 C.ar  321  TYR321     -0.0009
    177  CD2        0.5140  -36.7280    2.8690 C.ar  321  TYR321     -0.0009
    178  CE1        0.4500  -39.4100    3.5550 C.ar  321  TYR321      0.0417
    179  CE2        1.4510  -37.6030    2.3200 C.ar  321  TYR321      0.0417
    180  CZ         1.4090  -38.9440    2.6670 C.ar  321  TYR321      0.1957
    181  OH         2.3260  -39.8240    2.1410 O.3   321  TYR321     -0.2866
    182  N         -0.4610  -31.6920    0.2430 N.3   324  LEU324     -0.1231
    183  CA         1.0030  -31.5600    0.1430 C.3   324  LEU324      0.1693
    184  C          1.5510  -32.2720   -1.0970 C.2   324  LEU324      0.2592
    185  O          2.4890  -31.8000   -1.7380 O.2   324  LEU324     -0.2718
    186  CB         1.6750  -32.0900    1.4170 C.3   324  LEU324      0.0284
    187  CG         3.1910  -31.9760    1.5460 C.3   324  LEU324      0.0019
    188  CD1        3.5770  -30.5100    1.7250 C.3   324  LEU324      0.0001
    189  CD2        3.7000  -32.8200    2.7170 C.3   324  LEU324      0.0001
    190  N          0.9320  -33.3950   -1.4510 N.am  325  THR325     -0.1953
    191  CA         1.3640  -34.1890   -2.6020 C.3   325  THR325      0.1897
    192  C          0.9900  -33.5440   -3.9460 C.2   325  THR325      0.2313
    193  O          1.5710  -33.8720   -4.9870 O.2   325  THR325     -0.2863
    194  CB         0.8340  -35.6360   -2.5250 C.3   325  THR325      0.1794
    195  OG1       -0.5130  -35.6850   -3.0030 O.3   325  THR325     -0.2208
    196  CG2        0.8930  -36.1610   -1.0780 C.3   325  THR325      0.0378
    197  N          5.1750  -28.0950   -0.3070 N.3   329  PRO329     -0.2116
    198  CA         5.3300  -27.3360    0.9430 C.3   329  PRO329      0.1372
    199  C          4.6490  -25.9550    1.0160 C.2   329  PRO329      0.2244
    200  O          4.1830  -25.5990    2.0940 O.2   329  PRO329     -0.2868
    201  CB         6.8510  -27.1860    1.0770 C.3   329  PRO329      0.0268
    202  CG         7.3770  -28.4120    0.4380 C.3   329  PRO329      0.0207
    203  CD         6.4590  -28.6710   -0.7450 C.3   329  PRO329      0.0892
@<TRIPOS>BOND
     1    40    39    2
     2    39    38    1
     3    29    30    1
     4    38    41    1
     5    38    37    1
     6    41    42    1
     7    13    14    1
     8    37    31   am
     9    32    31    2
    10    31    30    1
    11    30    33    1
    12    16    15    2
    13    44    43    2
    14    24    23    2
    15   143   142    2
    16    23    22    1
    17    14    15    1
    18    14    17    1
    19    15    21   am
    20   150   148    1
    21    42    43    1
    22    43    45   am
    23    21    22    1
    24   142   141    1
    25    33    34    1
    26   146   147    1
    27   146   145    1
    28    22    25    1
    29    17    18    1
    30   144   141    1
    31   144   145    1
    32   148   147    2
    33   148   149    1
    34     4     3    2
    35    52    46    1
    36    52    51    1
    37   141   140    1
    38     3     2    1
    39    18    19    1
    40    18    20    1
    41    25    26    1
    42     1     2    1
    43    34    35    1
    44    34    36    1
    45    46    47    1
    46    51    50    1
    47     2     5    1
    48   136   135    2
    49    26    27    1
    50    47    50    1
    51    47    48    1
    52    57    54    1
    53     5     6    1
    54   135   134    1
    55    27    28    1
    56    53    54    1
    57   193   192    2
    58    48    49    2
    59    54    55    1
    60     6     7   ar
    61     6     8   ar
    62     7     9   ar
    63     8    10   ar
    64     9    11   ar
    65   192   191    1
    66   133   134    1
    67   134   137    1
    68   151   152    1
    69    10    11   ar
    70   152   153    1
    71   152   155    1
    72   157   155    1
    73    11    12    1
    74    83    81   ar
    75    83    82   ar
    76    55    56    2
    77    55    58   am
    78   137   138    1
    79   137   139    1
    80   153   154    2
    81    81    79   ar
    82   195   194    1
    83   155   156    1
    84    58    59    1
    85   191   194    1
    86   191   190    1
    87   194   196    1
    88    82    80   ar
    89    79    78   ar
    90   185   184    2
    91   190   184   am
    92    80    78   ar
    93    59    62    1
    94    59    60    1
    95    78    77    1
    96   184   183    1
    97    68    69    1
    98    62    63    1
    99   203   197    1
   100   203   202    1
   101   111   112    1
   102   111   108    1
   103    60    61    2
   104   197   198    1
   105    72    69    1
   106   112   113    1
   107    69    70    1
   108    77    74    1
   109   169   168    1
   110   183   182    1
   111   183   186    1
   112   108   107    1
   113   108   109    1
   114   113   107    1
   115   202   201    1
   116    97    96    1
   117   107   101   am
   118    63    64   ar
   119    63    65   ar
   120    94    93    2
   121   168   167   ar
   122   168   166   ar
   123   198   199    1
   124   198   201    1
   125    95    96    1
   126    95    92    1
   127   167   165   ar
   128   199   200    2
   129    98    96    1
   130   101   102    2
   131   101   100    1
   132   166   164   ar
   133    64    66   ar
   134    74    73    1
   135    74    75    1
   136    70    71    2
   137   186   187    1
   138   109   110    2
   139    93    99   am
   140    93    92    1
   141   187   188    1
   142   187   189    1
   143   158   159    1
   144   173   172    2
   145   100    99    1
   146   100   103    1
   147   165   163   ar
   148    65    67   ar
   149   164   163   ar
   150    92    91    1
   151   181   180    1
   152   159   162    1
   153   159   160    1
   154   163   162    1
   155   179   180   ar
   156   179   177   ar
   157   172   171    1
   158    75    76    2
   159    75    84   am
   160    66    67   ar
   161   180   178   ar
   162   122   120   ar
   163   122   124   ar
   164   177   175   ar
   165   106   104    1
   166   103   104    1
   167   161   160    2
   168    84    85    1
   169   120   119   ar
   170    89    88    1
   171   124   123   ar
   172   178   176   ar
   173   104   105    1
   174   175   176   ar
   175   175   174    1
   176   171   174    1
   177   171   170    1
   178   132   131    1
   179   131   130    1
   180    85    88    1
   181    85    86    1
   182    88    90    1
   183   119   118    1
   184   119   121   ar
   185   130   129    1
   186   123   121   ar
   187   118   115    1
   188   117   116    2
   189    86    87    2
   190   115   116    1
   191   115   114    1
   192   129   126    1
   193   128   127    2
   194   126   127    1
   195   126   125    1
