@<TRIPOS>MOLECULE
tmp/3f28A00.pdb
 149 144 0 0 0
SMALL
GASTEIGER

@<TRIPOS>ATOM
      1  N        -13.7330   46.5600   -1.4120 N.3   111  ASN111     -0.1225
      2  CA       -12.5760   45.6970   -1.6120 C.3   111  ASN111      0.1785
      3  C        -12.3230   44.6960   -0.5040 C.2   111  ASN111      0.2597
      4  O        -11.1660   44.4200   -0.1620 O.2   111  ASN111     -0.2718
      5  CB       -11.3050   46.5770   -1.7170 C.3   111  ASN111      0.1169
      6  CG       -11.2410   47.3130   -3.0230 C.2   111  ASN111      0.2627
      7  OD1      -11.6160   46.8380   -4.0890 O.2   111  ASN111     -0.2716
      8  ND2      -10.7600   48.5610   -3.0250 N.am  111  ASN111     -0.0877
      9  N        -13.3550   44.1350    0.1200 N.am  112  ASN112     -0.1960
     10  CA       -13.0880   43.1540    1.1700 C.3   112  ASN112      0.1819
     11  C        -14.1400   42.0290    1.0240 C.2   112  ASN112      0.2621
     12  O        -15.1220   42.1580    0.3090 O.2   112  ASN112     -0.2715
     13  CB       -13.1890   43.6540    2.5930 C.3   112  ASN112      0.1195
     14  CG       -12.3320   44.7910    3.0700 C.2   112  ASN112      0.2630
     15  OD1      -12.6450   45.3950    4.1090 O.2   112  ASN112     -0.2716
     16  ND2      -11.2660   45.1040    2.3650 N.am  112  ASN112     -0.0877
     17  N        -13.8580   40.9690    1.7300 N.am  113  ALA113     -0.1963
     18  CA       -14.8030   39.8780    1.9310 C.3   113  ALA113      0.1728
     19  C        -14.6770   39.4830    3.4000 C.2   113  ALA113      0.2616
     20  O        -13.5960   39.6650    3.9750 O.2   113  ALA113     -0.2715
     21  CB       -14.5230   38.6830    1.0450 C.3   113  ALA113      0.0334
     22  N        -15.7410   38.9540    4.0040 N.am  114  PHE114     -0.1974
     23  CA       -15.5970   38.6260    5.4210 C.3   114  PHE114      0.1639
     24  C        -16.6910   37.6670    5.8730 C.2   114  PHE114      0.2290
     25  O        -17.6630   37.4630    5.1450 O.2   114  PHE114     -0.2864
     26  CB       -15.6810   39.9000    6.2660 C.3   114  PHE114      0.0560
     27  CG       -16.8930   40.7910    6.0710 C.ar  114  PHE114     -0.0200
     28  CD1      -16.9990   41.6930    5.0280 C.ar  114  PHE114     -0.0042
     29  CD2      -17.9580   40.7470    6.9680 C.ar  114  PHE114     -0.0042
     30  CE1      -18.0870   42.5250    4.8680 C.ar  114  PHE114     -0.0003
     31  CE2      -19.0500   41.5740    6.8270 C.ar  114  PHE114     -0.0003
     32  CZ       -19.1310   42.4850    5.7850 C.ar  114  PHE114     -0.0000
     33  N         -9.3700   45.1450   -6.7660 N.3   130  PHE130     -0.1241
     34  CA       -10.0520   43.8590   -6.7840 C.3   130  PHE130      0.1605
     35  C        -11.1860   43.8580   -7.8120 C.2   130  PHE130      0.2264
     36  O        -11.7950   44.8920   -8.0940 O.2   130  PHE130     -0.2867
     37  CB       -10.6950   43.5000   -5.4400 C.3   130  PHE130      0.0534
     38  CG        -9.8450   42.9430   -4.3220 C.ar  130  PHE130     -0.0203
     39  CD1       -9.3380   41.6570   -4.3880 C.ar  130  PHE130     -0.0042
     40  CD2       -9.5800   43.7150   -3.2090 C.ar  130  PHE130     -0.0042
     41  CE1       -8.5660   41.1380   -3.3670 C.ar  130  PHE130     -0.0003
     42  CE2       -8.7990   43.2200   -2.1850 C.ar  130  PHE130     -0.0003
     43  CZ        -8.3020   41.9360   -2.2710 C.ar  130  PHE130     -0.0000
     44  N        -15.0020   39.6050   -5.2320 N.3   133  LEU133     -0.1245
     45  CA       -14.0730   38.7770   -4.4630 C.3   133  LEU133      0.1561
     46  C        -14.4880   37.3160   -4.3540 C.2   133  LEU133      0.2260
     47  O        -13.6490   36.4750   -4.0370 O.2   133  LEU133     -0.2867
     48  CB       -13.8840   39.3760   -3.0600 C.3   133  LEU133      0.0270
     49  CG       -12.8990   40.5710   -3.0640 C.3   133  LEU133      0.0019
     50  CD1      -13.6430   41.8680   -3.2830 C.3   133  LEU133      0.0001
     51  CD2      -12.1130   40.6200   -1.7720 C.3   133  LEU133      0.0001
     52  N        -10.5330   32.6720   -1.6400 N.3   139  VAL139     -0.1245
     53  CA       -11.2010   33.7030   -0.8500 C.3   139  VAL139      0.1561
     54  C        -12.4660   33.1150   -0.2150 C.2   139  VAL139      0.2260
     55  O        -12.6960   33.2730    0.9840 O.2   139  VAL139     -0.2867
     56  CB       -11.6260   34.9210   -1.6730 C.3   139  VAL139      0.0252
     57  CG1      -12.3780   35.9070   -0.7990 C.3   139  VAL139      0.0019
     58  CG2      -10.4200   35.6390   -2.3070 C.3   139  VAL139      0.0019
     59  N        -11.4780   30.6290    2.4600 N.3   142  HIS142     -0.1226
     60  CA       -10.9610   31.3470    3.6320 C.3   142  HIS142      0.1752
     61  C        -12.1040   31.8620    4.4950 C.2   142  HIS142      0.2595
     62  O        -12.0920   31.7290    5.7250 O.2   142  HIS142     -0.2718
     63  CB       -10.0820   32.5130    3.1460 C.3   142  HIS142      0.0759
     64  CG        -9.5520   33.4940    4.1270 C.ar  142  HIS142      0.0818
     65  ND1       -8.1850   33.6010    4.3700 N.ar  142  HIS142     -0.2268
     66  CD2      -10.1190   34.4420    4.9090 C.ar  142  HIS142      0.1154
     67  CE1       -7.9720   34.5470    5.2680 C.ar  142  HIS142      0.1986
     68  NE2       -9.1290   35.0810    5.6240 N.ar  142  HIS142     -0.2212
     69  N        -13.0930   32.4920    3.8690 N.am  143  GLU143     -0.1979
     70  CA       -14.1980   33.0320    4.6790 C.3   143  GLU143      0.1602
     71  C        -14.9780   31.9260    5.3640 C.2   143  GLU143      0.2287
     72  O        -15.3320   32.0050    6.5560 O.2   143  GLU143     -0.2864
     73  CB       -15.1220   33.8600    3.7860 C.3   143  GLU143      0.0415
     74  CG       -14.4960   35.0610    3.0650 C.3   143  GLU143      0.1163
     75  CD       -13.6550   35.9430    3.9550 C.2   143  GLU143      0.3649
     76  OE1      -13.8010   35.9530    5.1840 O.co2 143  GLU143     -0.2457
     77  OE2      -12.8270   36.6870    3.3650 O.co2 143  GLU143     -0.2457
     78  N        -13.3360   30.7950    8.4300 N.3   146  HIS146     -0.1241
     79  CA       -13.5240   31.5990    9.6400 C.3   146  HIS146      0.1621
     80  C        -14.7160   31.0460   10.4250 C.2   146  HIS146      0.2264
     81  O        -14.7530   31.0570   11.6580 O.2   146  HIS146     -0.2867
     82  CB       -13.7680   33.0650    9.3130 C.3   146  HIS146      0.0745
     83  CG       -12.5170   33.8700    9.0520 C.ar  146  HIS146      0.0817
     84  ND1      -11.4790   33.9050    9.9660 N.ar  146  HIS146     -0.2268
     85  CD2      -12.1360   34.6770    8.0370 C.ar  146  HIS146      0.1154
     86  CE1      -10.5150   34.6840    9.5160 C.ar  146  HIS146      0.1986
     87  NE2      -10.8780   35.1760    8.3510 N.ar  146  HIS146     -0.2212
     88  N         -9.9280   37.1950   17.6200 N.3   157  TYR157     -0.1241
     89  CA        -9.3940   37.8390   16.4180 C.3   157  TYR157      0.1605
     90  C         -8.5070   39.0120   16.7840 C.2   157  TYR157      0.2264
     91  O         -8.7310   40.1640   16.4270 O.2   157  TYR157     -0.2867
     92  CB       -10.5920   38.2320   15.5330 C.3   157  TYR157      0.0534
     93  CG       -10.2230   38.3990   14.0700 C.ar  157  TYR157     -0.0201
     94  CD1       -9.7750   37.3180   13.3210 C.ar  157  TYR157     -0.0009
     95  CD2      -10.3190   39.6470   13.4570 C.ar  157  TYR157     -0.0009
     96  CE1       -9.4320   37.4700   11.9840 C.ar  157  TYR157      0.0417
     97  CE2       -9.9750   39.7970   12.1150 C.ar  157  TYR157      0.0417
     98  CZ        -9.5320   38.7080   11.3920 C.ar  157  TYR157      0.1957
     99  OH        -9.1950   38.8440   10.0590 O.3   157  TYR157     -0.2866
    100  N         -6.2660   33.7700   11.2130 N.3   166  GLU166     -0.1245
    101  CA        -6.0300   34.1470    9.8300 C.3   166  GLU166      0.1567
    102  C         -5.2640   33.0780    9.0600 C.2   166  GLU166      0.2260
    103  O         -5.6670   32.7090    7.9410 O.2   166  GLU166     -0.2867
    104  CB        -5.2460   35.4790    9.7620 C.3   166  GLU166      0.0388
    105  CG        -6.1970   36.6810    9.7060 C.3   166  GLU166      0.1160
    106  CD        -7.1500   36.5740    8.5220 C.2   166  GLU166      0.3649
    107  OE1       -6.6430   36.3900    7.3930 O.co2 166  GLU166     -0.2457
    108  OE2       -8.3770   36.6640    8.7400 O.co2 166  GLU166     -0.2457
    109  N         -2.5730   33.8310   -2.0060 N.3   188  ILE188     -0.1231
    110  CA        -3.9600   34.1040   -1.5900 C.3   188  ILE188      0.1692
    111  C         -4.5770   35.2270   -2.3890 C.2   188  ILE188      0.2592
    112  O         -4.0770   36.3690   -2.3450 O.2   188  ILE188     -0.2718
    113  CB        -3.9750   34.5050   -0.0980 C.3   188  ILE188      0.0266
    114  CG1       -3.2980   33.4860    0.8140 C.3   188  ILE188      0.0019
    115  CG2       -5.3870   34.8340    0.3670 C.3   188  ILE188      0.0020
    116  CD1       -3.9440   32.1140    0.7680 C.3   188  ILE188      0.0001
    117  N         -5.6540   34.9680   -3.1270 N.am  189  GLY189     -0.1957
    118  CA        -6.3930   36.0490   -3.7460 C.3   189  GLY189      0.1869
    119  C         -5.9760   36.3880   -5.1590 C.2   189  GLY189      0.2309
    120  O         -6.4650   37.3520   -5.7640 O.2   189  GLY189     -0.2863
    121  N         -2.6680   38.9410   -2.7950 N.3   202  LEU202     -0.1231
    122  CA        -2.8320   39.6980   -1.5460 C.3   202  LEU202      0.1693
    123  C         -1.7860   39.3000   -0.5120 C.2   202  LEU202      0.2591
    124  O         -1.2380   40.1240    0.2240 O.2   202  LEU202     -0.2718
    125  CB        -4.2660   39.4720   -1.0490 C.3   202  LEU202      0.0284
    126  CG        -4.7000   40.1520    0.2390 C.3   202  LEU202      0.0019
    127  CD1       -4.6210   41.6690    0.1250 C.3   202  LEU202      0.0001
    128  CD2       -6.1190   39.7120    0.6050 C.3   202  LEU202      0.0001
    129  N         -1.4930   38.0090   -0.4430 N.am  203  ARG203     -0.1980
    130  CA        -0.5050   37.4140    0.4360 C.3   203  ARG203      0.1597
    131  C          0.1660   36.2090   -0.2100 C.2   203  ARG203      0.2287
    132  O         -0.3900   35.6020   -1.1310 O.2   203  ARG203     -0.2864
    133  CB        -1.1500   36.9130    1.7270 C.3   203  ARG203      0.0334
    134  CG        -1.5930   37.9740    2.7120 C.3   203  ARG203      0.0492
    135  CD        -2.0700   37.2750    3.9650 C.3   203  ARG203      0.2205
    136  NE        -3.3860   36.6720    3.8530 N.pl3 203  ARG203     -0.0865
    137  CZ        -4.5320   37.3190    3.7800 C.cat 203  ARG203      0.5346
    138  NH1       -4.6010   38.6450    3.7830 N.pl3 203  ARG203      0.1354
    139  NH2       -5.6600   36.6040    3.6960 N.pl3 203  ARG203      0.1354
    140  N         -3.4810   39.9030    9.9150 N.3   231  HIS231     -0.1241
    141  CA        -3.2040   39.6160    8.5170 C.3   231  HIS231      0.1621
    142  C         -1.7170   39.6920    8.1680 C.2   231  HIS231      0.2264
    143  O         -1.3290   39.4210    7.0220 O.2   231  HIS231     -0.2867
    144  CB        -3.9340   40.6020    7.5800 C.3   231  HIS231      0.0745
    145  CG        -5.4200   40.3850    7.6520 C.ar  231  HIS231      0.0817
    146  ND1       -6.2110   41.1670    8.4750 N.ar  231  HIS231     -0.2268
    147  CD2       -6.2420   39.5070    7.0420 C.ar  231  HIS231      0.1154
    148  CE1       -7.4870   40.7670    8.3550 C.ar  231  HIS231      0.1986
    149  NE2       -7.5310   39.7640    7.4890 N.ar  231  HIS231     -0.2212
@<TRIPOS>BOND
     1    36    35    2
     2    35    34    1
     3    34    33    1
     4    34    37    1
     5   120   119    2
     6    37    38    1
     7    44    45    1
     8   119   118    1
     9    45    46    1
    10    45    48    1
    11    39    38   ar
    12    39    41   ar
    13    46    47    2
    14    38    40   ar
    15     7     6    2
    16   118   117    1
    17    41    43   ar
    18    50    49    1
    19    40    42   ar
    20   117   111   am
    21    49    48    1
    22    49    51    1
    23     8     6   am
    24     6     5    1
    25   121   122    1
    26   111   112    2
    27   111   110    1
    28    58    56    1
    29    43    42   ar
    30   109   110    1
    31     5     2    1
    32    56    53    1
    33    56    57    1
    34    52    53    1
    35     2     1    1
    36     2     3    1
    37   110   113    1
    38   122   125    1
    39   122   123    1
    40   132   131    2
    41   125   126    1
    42    53    54    1
    43   123   129   am
    44   123   124    2
    45     3     4    2
    46     3     9   am
    47   129   130    1
    48    54    55    2
    49   131   130    1
    50   113   115    1
    51   113   114    1
    52     9    10    1
    53   127   126    1
    54   126   128    1
    55    12    11    2
    56   130   133    1
    57   116   114    1
    58    11    10    1
    59    11    17   am
    60    21    18    1
    61    10    13    1
    62   133   134    1
    63    17    18    1
    64    18    19    1
    65    16    14   am
    66    59    60    1
    67    13    14    1
    68   134   135    1
    69    74    73    1
    70    74    75    1
    71    14    15    2
    72    63    60    1
    73    63    64    1
    74    77    75   ar
    75    19    20    2
    76    19    22   am
    77    60    61    1
    78   139   137    1
    79   137   138    1
    80   137   136    2
    81    73    70    1
    82   136   135    1
    83    69    61   am
    84    69    70    1
    85    75    76   ar
    86    22    23    1
    87    64    65   ar
    88    64    66   ar
    89    65    67   ar
    90    61    62    2
    91    70    71    1
    92    30    28   ar
    93    30    32   ar
    94    66    68   ar
    95    28    27   ar
    96    25    24    2
    97    67    68   ar
    98    71    72    2
    99    23    24    1
   100    23    26    1
   101    32    31   ar
   102    27    26    1
   103    27    29   ar
   104    31    29   ar
   105   143   142    2
   106   147   149   ar
   107   147   145   ar
   108   107   106   ar
   109   149   148   ar
   110   144   145    1
   111   144   141    1
   112   145   146   ar
   113   103   102    2
   114    85    87   ar
   115    85    83   ar
   116   142   141    1
   117    87    86   ar
   118   148   146   ar
   119    78    79    1
   120   141   140    1
   121   106   108   ar
   122   106   105    1
   123    83    82    1
   124    83    84   ar
   125   102   101    1
   126    82    79    1
   127    86    84   ar
   128    79    80    1
   129   105   104    1
   130   104   101    1
   131   101   100    1
   132    99    98    1
   133    80    81    2
   134    98    96   ar
   135    98    97   ar
   136    96    94   ar
   137    97    95   ar
   138    94    93   ar
   139    95    93   ar
   140    93    92    1
   141    92    89    1
   142    89    90    1
   143    89    88    1
   144    91    90    2
