@<TRIPOS>MOLECULE
tmp/3f29A09.pdb
 75 70 0 0 0
SMALL
GASTEIGER

@<TRIPOS>ATOM
      1  N         41.1520   11.8940  166.5210 N.3   306  GLN306     -0.1231
      2  CA        40.4960   12.1680  167.7940 C.3   306  GLN306      0.1698
      3  C         41.4450   12.8780  168.7420 C.2   306  GLN306      0.2592
      4  O         42.6280   12.5380  168.8150 O.2   306  GLN306     -0.2718
      5  CB        39.9320   10.8870  168.4310 C.3   306  GLN306      0.0381
      6  CG        38.9100   10.1670  167.5460 C.3   306  GLN306      0.0905
      7  CD        38.0530    9.1570  168.3010 C.2   306  GLN306      0.2608
      8  OE1       36.8380    9.0950  168.0940 O.2   306  GLN306     -0.2717
      9  NE2       38.6800    8.3690  169.1850 N.am  306  GLN306     -0.0878
     10  N         40.9300   13.8900  169.4360 N.am  307  LEU307     -0.1966
     11  CA        41.6890   14.5820  170.4730 C.3   307  LEU307      0.1728
     12  C         42.0290   13.6170  171.6230 C.2   307  LEU307      0.2617
     13  O         43.1330   13.6630  172.1740 O.2   307  LEU307     -0.2715
     14  CB        40.8990   15.7810  171.0000 C.3   307  LEU307      0.0311
     15  CG        40.8150   17.0390  170.1200 C.3   307  LEU307      0.0022
     16  CD1       39.7190   17.9550  170.6360 C.3   307  LEU307      0.0001
     17  CD2       42.1510   17.7670  170.0730 C.3   307  LEU307      0.0001
     18  N         41.0860   12.7330  171.9540 N.am  308  SER308     -0.1936
     19  CA        41.2550   11.7730  173.0650 C.3   308  SER308      0.2055
     20  C         42.4710   10.8610  172.8970 C.2   308  SER308      0.2643
     21  O         43.3530   10.8430  173.7620 O.2   308  SER308     -0.2714
     22  CB        39.9870   10.9390  173.2670 C.3   308  SER308      0.2130
     23  OG        39.6640   10.2130  172.0910 O.3   308  SER308     -0.2179
     24  N         42.5380   10.1370  171.7800 N.am  309  ASP309     -0.1957
     25  CA        43.5630    9.1070  171.5980 C.3   309  ASP309      0.1840
     26  C         44.3790    9.2130  170.3080 C.2   309  ASP309      0.2622
     27  O         45.2310    8.3640  170.0420 O.2   309  ASP309     -0.2715
     28  CB        42.9450    7.7030  171.7280 C.3   309  ASP309      0.1450
     29  CG        41.9680    7.3700  170.5980 C.2   309  ASP309      0.3671
     30  OD1       41.5900    8.2810  169.8200 O.co2 309  ASP309     -0.2456
     31  OD2       41.5740    6.1870  170.4880 O.co2 309  ASP309     -0.2456
     32  N         44.1170   10.2430  169.4990 N.am  310  GLY310     -0.1954
     33  CA        44.8490   10.4190  168.2470 C.3   310  GLY310      0.1869
     34  C         44.5240    9.4190  167.1490 C.2   310  GLY310      0.2309
     35  O         45.2040    9.3850  166.1190 O.2   310  GLY310     -0.2863
     36  N         40.2210   16.6530  165.8690 N.3   341  PHE341     -0.1241
     37  CA        41.1250   17.6770  165.3530 C.3   341  PHE341      0.1605
     38  C         41.5290   17.3330  163.9190 C.2   341  PHE341      0.2264
     39  O         41.3190   16.1900  163.4530 O.2   341  PHE341     -0.2867
     40  CB        42.3300   17.9370  166.2820 C.3   341  PHE341      0.0534
     41  CG        43.3870   16.8620  166.2560 C.ar  341  PHE341     -0.0203
     42  CD1       43.3350   15.7940  167.1580 C.ar  341  PHE341     -0.0042
     43  CD2       44.4520   16.9330  165.3590 C.ar  341  PHE341     -0.0042
     44  CE1       44.3180   14.8040  167.1550 C.ar  341  PHE341     -0.0003
     45  CE2       45.4470   15.9480  165.3470 C.ar  341  PHE341     -0.0003
     46  CZ        45.3800   14.8790  166.2540 C.ar  341  PHE341     -0.0000
     47  N         48.2550   17.3650  162.6100 N.3   344  ARG344     -0.1245
     48  CA        49.3650   17.6270  163.5260 C.3   344  ARG344      0.1563
     49  C         50.3420   18.5510  162.8260 C.2   344  ARG344      0.2260
     50  O         50.7470   18.2800  161.6890 O.2   344  ARG344     -0.2867
     51  CB        50.0810   16.3290  163.9400 C.3   344  ARG344      0.0307
     52  CG        49.1690   15.3510  164.6950 C.3   344  ARG344      0.0489
     53  CD        49.9370   14.1140  165.1800 C.3   344  ARG344      0.2205
     54  NE        49.0710   13.1880  165.9100 N.pl3 344  ARG344     -0.0865
     55  CZ        48.2470   12.3120  165.3350 C.cat 344  ARG344      0.5346
     56  NH1       48.1560   12.2400  164.0140 N.pl3 344  ARG344      0.1354
     57  NH2       47.5030   11.5110  166.0850 N.pl3 344  ARG344      0.1354
     58  N         54.3980   19.4640  166.2470 N.3   349  GLY349     -0.1225
     59  CA        53.7200   18.2240  166.6330 C.3   349  GLY349      0.1811
     60  C         52.3740   18.4400  167.3060 C.2   349  GLY349      0.2280
     61  O         51.7230   17.4760  167.7090 O.2   349  GLY349     -0.2866
     62  N         48.4820   18.9710  167.9090 N.3   351  ALA351     -0.1245
     63  CA        47.1730   18.6970  167.3220 C.3   351  ALA351      0.1562
     64  C         46.5370   20.0570  167.0690 C.2   351  ALA351      0.2260
     65  O         46.4830   20.8850  167.9840 O.2   351  ALA351     -0.2867
     66  CB        46.3160   17.9040  168.3140 C.3   351  ALA351      0.0290
     67  N         49.6370   22.5520  173.6780 N.3   466  GLU466     -0.1245
     68  CA        48.2790   22.9200  174.0850 C.3   466  GLU466      0.1567
     69  C         48.0600   24.4060  173.8500 C.2   466  GLU466      0.2260
     70  O         46.9710   24.8300  173.4560 O.2   466  GLU466     -0.2867
     71  CB        48.0160   22.5740  175.5640 C.3   466  GLU466      0.0388
     72  CG        47.9660   21.0770  175.8790 C.3   466  GLU466      0.1160
     73  CD        46.7260   20.3700  175.3190 C.2   466  GLU466      0.3649
     74  OE1       45.6500   21.0130  175.1830 O.co2 466  GLU466     -0.2457
     75  OE2       46.8240   19.1560  175.0210 O.co2 466  GLU466     -0.2457
@<TRIPOS>BOND
     1    50    49    2
     2    47    48    1
     3    49    48    1
     4    39    38    2
     5    48    51    1
     6    38    37    1
     7    51    52    1
     8    56    55    1
     9    52    53    1
    10    53    54    1
    11    55    54    2
    12    55    57    1
    13    45    43   ar
    14    45    46   ar
    15    37    36    1
    16    37    40    1
    17    43    41   ar
    18    35    34    2
    19    58    59    1
    20    46    44   ar
    21    41    40    1
    22    41    42   ar
    23     1     2    1
    24    59    60    1
    25    64    63    1
    26    64    65    2
    27    34    33    1
    28    44    42   ar
    29    60    61    2
    30    63    62    1
    31    63    66    1
    32     6     7    1
    33     6     5    1
    34     2     5    1
    35     2     3    1
    36     8     7    2
    37    33    32    1
    38     7     9   am
    39     3     4    2
    40     3    10   am
    41    10    11    1
    42    32    26   am
    43    30    29   ar
    44    27    26    2
    45    17    15    1
    46    15    16    1
    47    15    14    1
    48    26    25    1
    49    11    14    1
    50    11    12    1
    51    31    29   ar
    52    29    28    1
    53    25    28    1
    54    25    24    1
    55    12    18   am
    56    12    13    2
    57    24    20   am
    58    18    19    1
    59    23    22    1
    60    20    19    1
    61    20    21    2
    62    19    22    1
    63    70    69    2
    64    67    68    1
    65    69    68    1
    66    68    71    1
    67    75    73   ar
    68    74    73   ar
    69    73    72    1
    70    71    72    1
