@<TRIPOS>MOLECULE
tmp/3f2bA00.pdb
 176 169 0 0 0
SMALL
GASTEIGER

@<TRIPOS>ATOM
      1  N         47.4350   37.6020  -22.6230 N.3   443  ARG443     -0.1231
      2  CA        47.3070   36.1580  -22.5330 C.3   443  ARG443      0.1694
      3  C         48.4190   35.4030  -23.2850 C.2   443  ARG443      0.2593
      4  O         49.0450   35.9350  -24.1970 O.2   443  ARG443     -0.2718
      5  CB        45.9360   35.7160  -23.0720 C.3   443  ARG443      0.0321
      6  CG        45.5210   34.2550  -22.7050 C.3   443  ARG443      0.0489
      7  CD        44.0780   33.9640  -23.1510 C.3   443  ARG443      0.2205
      8  NE        43.5550   32.6320  -22.7870 N.pl3 443  ARG443     -0.0865
      9  CZ        42.2720   32.4090  -22.4820 C.cat 443  ARG443      0.5346
     10  NH1       41.8320   31.1860  -22.1810 N.pl3 443  ARG443      0.1354
     11  NH2       41.4140   33.4280  -22.4790 N.pl3 443  ARG443      0.1354
     12  N         48.6780   34.1620  -22.8850 N.am  444  GLY444     -0.1942
     13  CA        49.4560   33.2810  -23.7230 C.3   444  GLY444      0.2014
     14  C         50.8960   33.6890  -23.8850 C.2   444  GLY444      0.2639
     15  O         51.4090   34.5050  -23.1250 O.2   444  GLY444     -0.2714
     16  N         51.5460   33.1360  -24.9020 N.am  445  SER445     -0.1949
     17  CA        52.9960   33.1900  -24.9840 C.3   445  SER445      0.1924
     18  C         53.5880   34.4240  -25.6430 C.2   445  SER445      0.2314
     19  O         54.8250   34.5390  -25.6240 O.2   445  SER445     -0.2863
     20  CB        53.5260   31.9870  -25.7240 C.3   445  SER445      0.2116
     21  OG        52.9940   32.0090  -27.0270 O.3   445  SER445     -0.2180
     22  N         58.4200   26.7180  -35.2390 N.3   520  LYS520     -0.1231
     23  CA        57.2280   26.4420  -34.4460 C.3   520  LYS520      0.1693
     24  C         56.2070   27.5050  -34.8170 C.2   520  LYS520      0.2592
     25  O         56.5760   28.6320  -35.1110 O.2   520  LYS520     -0.2718
     26  CB        57.5330   26.5670  -32.9520 C.3   520  LYS520      0.0285
     27  CG        56.2800   26.8000  -32.1080 C.3   520  LYS520      0.0035
     28  CD        56.5640   27.3590  -30.7400 C.3   520  LYS520      0.0206
     29  CE        55.2640   27.7630  -30.0540 C.3   520  LYS520      0.1093
     30  NZ        55.4930   28.3390  -28.7010 N.3   520  LYS520     -0.1314
     31  N         54.9290   27.1800  -34.8260 N.am  521  VAL521     -0.1966
     32  CA        54.0020   28.2440  -35.1470 C.3   521  VAL521      0.1712
     33  C         53.0730   28.6380  -33.9750 C.2   521  VAL521      0.2458
     34  O         52.0710   27.9670  -33.6670 O.2   521  VAL521     -0.2730
     35  CB        53.3540   28.0690  -36.5560 C.3   521  VAL521      0.0289
     36  CG1       53.4460   26.6440  -37.0280 C.3   521  VAL521      0.0023
     37  CG2       51.9630   28.6820  -36.6680 C.3   521  VAL521      0.0023
     38  N         53.4680   29.6950  -33.2720 N.am  522  PRO522     -0.2716
     39  CA        52.6200   30.1810  -32.2000 C.3   522  PRO522      0.1536
     40  C         51.5750   31.0940  -32.7790 C.2   522  PRO522      0.2598
     41  O         51.6330   31.4540  -33.9750 O.2   522  PRO522     -0.2715
     42  CB        53.5780   31.0060  -31.3400 C.3   522  PRO522      0.0310
     43  CG        54.5270   31.6150  -32.3810 C.3   522  PRO522      0.0237
     44  CD        54.6820   30.5190  -33.4480 C.3   522  PRO522      0.0939
     45  N         50.6180   31.4550  -31.9420 N.am  523  ASP523     -0.1972
     46  CA        49.6280   32.4560  -32.3100 C.3   523  ASP523      0.1709
     47  C         49.8360   33.6300  -31.3970 C.2   523  ASP523      0.2293
     48  O         50.7940   33.6490  -30.6010 O.2   523  ASP523     -0.2864
     49  CB        48.1950   31.9170  -32.1510 C.3   523  ASP523      0.1436
     50  CG        47.8400   31.5490  -30.6950 C.2   523  ASP523      0.3671
     51  OD1       46.7280   30.9700  -30.4670 O.co2 523  ASP523     -0.2456
     52  OD2       48.6580   31.8400  -29.7740 O.co2 523  ASP523     -0.2456
     53  N         47.5240   35.6760  -28.5210 N.3   525  ASP525     -0.1239
     54  CA        46.3080   35.4900  -27.7080 C.3   525  ASP525      0.1674
     55  C         45.9430   36.8050  -27.0620 C.2   525  ASP525      0.2266
     56  O         46.7920   37.4570  -26.4270 O.2   525  ASP525     -0.2867
     57  CB        46.4830   34.4300  -26.6120 C.3   525  ASP525      0.1410
     58  CG        46.9980   33.1040  -27.1460 C.2   525  ASP525      0.3668
     59  OD1       46.1960   32.2640  -27.6320 O.co2 525  ASP525     -0.2456
     60  OD2       48.2180   32.8560  -27.0240 O.co2 525  ASP525     -0.2456
     61  N         46.8590   23.6510  -38.1610 N.3   641  HIS641     -0.1241
     62  CA        47.6920   24.3400  -37.1580 C.3   641  HIS641      0.1621
     63  C         48.9740   24.9010  -37.7420 C.2   641  HIS641      0.2264
     64  O         49.4190   25.9680  -37.3700 O.2   641  HIS641     -0.2867
     65  CB        48.0000   23.3590  -35.9850 C.3   641  HIS641      0.0745
     66  CG        48.6920   23.9880  -34.8170 C.ar  641  HIS641      0.0817
     67  ND1       49.9640   24.5220  -34.9000 N.ar  641  HIS641     -0.2268
     68  CD2       48.3060   24.1420  -33.5250 C.ar  641  HIS641      0.1154
     69  CE1       50.3190   25.0010  -33.7180 C.ar  641  HIS641      0.1986
     70  NE2       49.3340   24.7770  -32.8650 N.ar  641  HIS641     -0.2212
     71  N         46.9620   32.1780  -36.7860 N.3   646  LYS646     -0.1245
     72  CA        45.7020   32.3570  -36.0770 C.3   646  LYS646      0.1561
     73  C         45.7550   33.5270  -35.0810 C.2   646  LYS646      0.2260
     74  O         46.7410   33.7220  -34.3470 O.2   646  LYS646     -0.2867
     75  CB        45.3000   31.0620  -35.3620 C.3   646  LYS646      0.0271
     76  CG        43.9920   31.1810  -34.6340 C.3   646  LYS646      0.0035
     77  CD        43.6920   29.9540  -33.7470 C.3   646  LYS646      0.0206
     78  CE        44.8000   29.6890  -32.7260 C.3   646  LYS646      0.1093
     79  NZ        44.3470   29.2330  -31.3730 N.3   646  LYS646     -0.1314
     80  N         43.9640   34.5390  -31.8610 N.3   648  ASP648     -0.1239
     81  CA        43.0860   34.0290  -30.8150 C.3   648  ASP648      0.1674
     82  C         42.4530   35.2060  -30.1070 C.2   648  ASP648      0.2266
     83  O         42.9840   35.7330  -29.1250 O.2   648  ASP648     -0.2867
     84  CB        43.8380   33.1110  -29.8380 C.3   648  ASP648      0.1410
     85  CG        43.3900   31.6680  -29.9570 C.2   648  ASP648      0.3668
     86  OD1       42.4830   31.4320  -30.7720 O.co2 648  ASP648     -0.2456
     87  OD2       43.9230   30.7770  -29.2550 O.co2 648  ASP648     -0.2456
     88  N         39.9100   36.0960  -27.9240 N.3   650  LEU650     -0.1245
     89  CA        39.1100   35.3420  -26.9540 C.3   650  LEU650      0.1561
     90  C         38.1820   36.2560  -26.1710 C.2   650  LEU650      0.2260
     91  O         38.3620   37.4640  -26.1870 O.2   650  LEU650     -0.2867
     92  CB        40.0150   34.5280  -26.0290 C.3   650  LEU650      0.0270
     93  CG        40.9110   33.5590  -26.8240 C.3   650  LEU650      0.0019
     94  CD1       41.8860   32.7990  -25.9400 C.3   650  LEU650      0.0001
     95  CD2       40.0790   32.5760  -27.6240 C.3   650  LEU650      0.0001
     96  N         40.8460   32.5210  -10.7480 N.3   707  GLU707     -0.1245
     97  CA        41.8570   31.4440  -10.5590 C.3   707  GLU707      0.1567
     98  C         42.1270   31.0930   -9.0910 C.2   707  GLU707      0.2260
     99  O         41.8620   29.9760   -8.6410 O.2   707  GLU707     -0.2867
    100  CB        43.1820   31.7710  -11.2660 C.3   707  GLU707      0.0388
    101  CG        43.0340   32.4100  -12.6600 C.3   707  GLU707      0.1160
    102  CD        42.5510   31.4490  -13.7360 C.2   707  GLU707      0.3649
    103  OE1       42.2160   31.9130  -14.8550 O.co2 707  GLU707     -0.2457
    104  OE2       42.4900   30.2380  -13.4720 O.co2 707  GLU707     -0.2457
    105  N         47.6750   25.1030  -12.3160 N.3   736  HIS736     -0.1241
    106  CA        46.9950   24.9410  -13.5990 C.3   736  HIS736      0.1621
    107  C         47.5410   23.7800  -14.4400 C.2   736  HIS736      0.2264
    108  O         48.5290   23.9180  -15.1680 O.2   736  HIS736     -0.2867
    109  CB        47.0360   26.2550  -14.3880 C.3   736  HIS736      0.0745
    110  CG        46.1060   27.3050  -13.8560 C.ar  736  HIS736      0.0817
    111  ND1       46.5230   28.3280  -13.0290 N.ar  736  HIS736     -0.2268
    112  CD2       44.7740   27.4880  -14.0350 C.ar  736  HIS736      0.1154
    113  CE1       45.4880   29.0960  -12.7260 C.ar  736  HIS736      0.1986
    114  NE2       44.4150   28.6060  -13.3210 N.ar  736  HIS736     -0.2212
    115  N         56.7230   26.4970  -17.9320 N.3   763  ARG763     -0.1245
    116  CA        57.4670   25.8230  -18.9790 C.3   763  ARG763      0.1563
    117  C         58.8060   26.5020  -19.2490 C.2   763  ARG763      0.2260
    118  O         59.7760   25.8180  -19.6070 O.2   763  ARG763     -0.2867
    119  CB        56.6320   25.7470  -20.2610 C.3   763  ARG763      0.0307
    120  CG        56.5100   27.0680  -20.9830 C.3   763  ARG763      0.0489
    121  CD        55.7160   26.9470  -22.2790 C.3   763  ARG763      0.2205
    122  NE        54.3000   26.6590  -22.0480 N.pl3 763  ARG763     -0.0865
    123  CZ        53.3050   26.9550  -22.8830 C.cat 763  ARG763      0.5346
    124  NH1       52.0610   26.6380  -22.5460 N.pl3 763  ARG763      0.1354
    125  NH2       53.5270   27.5670  -24.0380 N.pl3 763  ARG763      0.1354
    126  N         55.2950   20.5260  -21.5960 N.3   788  ARG788     -0.1245
    127  CA        54.1620   21.4190  -21.3480 C.3   788  ARG788      0.1563
    128  C         52.9280   21.0340  -22.1690 C.2   788  ARG788      0.2260
    129  O         51.8580   21.6160  -21.9850 O.2   788  ARG788     -0.2867
    130  CB        54.5420   22.8900  -21.5940 C.3   788  ARG788      0.0307
    131  CG        54.8830   23.2830  -23.0500 C.3   788  ARG788      0.0489
    132  CD        53.6590   23.7330  -23.8620 C.3   788  ARG788      0.2205
    133  NE        54.0190   24.3530  -25.1470 N.pl3 788  ARG788     -0.0865
    134  CZ        53.1250   24.8800  -25.9920 C.cat 788  ARG788      0.5346
    135  NH1       51.8470   24.8500  -25.6790 N.pl3 788  ARG788      0.1354
    136  NH2       53.4920   25.4250  -27.1530 N.pl3 788  ARG788      0.1354
    137  N         50.1450   19.3540  -18.3950 N.3   819  TYR819     -0.1241
    138  CA        49.9730   20.6480  -19.0400 C.3   819  TYR819      0.1605
    139  C         50.6950   21.7360  -18.2390 C.2   819  TYR819      0.2264
    140  O         50.7930   21.6320  -17.0400 O.2   819  TYR819     -0.2867
    141  CB        48.4950   21.0130  -19.1260 C.3   819  TYR819      0.0534
    142  CG        48.3660   22.4380  -19.5590 C.ar  819  TYR819     -0.0201
    143  CD1       48.4280   22.7620  -20.9150 C.ar  819  TYR819     -0.0009
    144  CD2       48.2760   23.4730  -18.6300 C.ar  819  TYR819     -0.0009
    145  CE1       48.3590   24.0680  -21.3480 C.ar  819  TYR819      0.0417
    146  CE2       48.2160   24.8070  -19.0530 C.ar  819  TYR819      0.0417
    147  CZ        48.2610   25.0840  -20.4180 C.ar  819  TYR819      0.1957
    148  OH        48.2100   26.3650  -20.8890 O.3   819  TYR819     -0.2866
    149  N         51.5970   26.2620  -18.0430 N.3   821  PHE821     -0.1228
    150  CA        51.6450   27.6650  -18.5020 C.3   821  PHE821      0.1721
    151  C         53.0070   28.1050  -19.0450 C.2   821  PHE821      0.2437
    152  O         54.0570   27.5750  -18.6610 O.2   821  PHE821     -0.2733
    153  CB        51.3810   28.6150  -17.3300 C.3   821  PHE821      0.0547
    154  CG        49.9320   28.7770  -16.9550 C.ar  821  PHE821     -0.0202
    155  CD1       48.9120   28.3450  -17.7930 C.ar  821  PHE821     -0.0042
    156  CD2       49.5980   29.4170  -15.7760 C.ar  821  PHE821     -0.0042
    157  CE1       47.5850   28.5280  -17.4510 C.ar  821  PHE821     -0.0003
    158  CE2       48.2640   29.6060  -15.4090 C.ar  821  PHE821     -0.0003
    159  CZ        47.2550   29.1530  -16.2460 C.ar  821  PHE821     -0.0000
    160  N         53.0040   29.1280  -19.9080 N.am  822  PRO822     -0.2729
    161  CA        54.2170   29.9090  -20.0600 C.3   822  PRO822      0.1401
    162  C         54.1860   31.0420  -19.0470 C.2   822  PRO822      0.2269
    163  O         53.0930   31.5870  -18.7410 O.2   822  PRO822     -0.2865
    164  CB        54.0920   30.4690  -21.4690 C.3   822  PRO822      0.0296
    165  CG        52.6020   30.6070  -21.6920 C.3   822  PRO822      0.0237
    166  CD        51.9270   29.5740  -20.8040 C.3   822  PRO822      0.0939
    167  N         52.0130   34.1210  -19.5170 N.3   825  HIS825     -0.1241
    168  CA        50.6110   33.9360  -19.1540 C.3   825  HIS825      0.1621
    169  C         50.3780   34.0780  -17.6410 C.2   825  HIS825      0.2264
    170  O         49.5470   34.8460  -17.2000 O.2   825  HIS825     -0.2867
    171  CB        50.1100   32.5810  -19.6240 C.3   825  HIS825      0.0745
    172  CG        48.6360   32.3980  -19.4360 C.ar  825  HIS825      0.0817
    173  ND1       47.7120   32.9030  -20.3260 N.ar  825  HIS825     -0.2268
    174  CD2       47.9260   31.7710  -18.4660 C.ar  825  HIS825      0.1154
    175  CE1       46.4950   32.5780  -19.9180 C.ar  825  HIS825      0.1986
    176  NE2       46.5960   31.8950  -18.7940 N.ar  825  HIS825     -0.2212
@<TRIPOS>BOND
     1    61    62    1
     2    63    64    2
     3    63    62    1
     4    62    65    1
     5    36    35    1
     6    71    72    1
     7    37    35    1
     8    35    32    1
     9    72    75    1
    10    72    73    1
    11    65    66    1
    12    75    76    1
    13    22    23    1
    14    32    31    1
    15    32    33    1
    16    25    24    2
    17    73    74    2
    18    67    66   ar
    19    67    69   ar
    20    31    24   am
    21    66    68   ar
    22    24    23    1
    23    76    77    1
    24    23    26    1
    25    33    34    2
    26    33    38   am
    27    41    40    2
    28    77    78    1
    29    69    70   ar
    30    68    70   ar
    31    44    38    1
    32    44    43    1
    33    38    39    1
    34    26    27    1
    35    40    39    1
    36    40    45   am
    37    78    79    1
    38    43    42    1
    39    46    49    1
    40    46    45    1
    41    46    47    1
    42    39    42    1
    43    49    50    1
    44    27    28    1
    45    80    81    1
    46    47    48    2
    47    81    82    1
    48    81    84    1
    49    86    85   ar
    50    28    29    1
    51    50    51   ar
    52    50    52   ar
    53    82    83    2
    54    29    30    1
    55    85    84    1
    56    85    87   ar
    57    53    54    1
    58    88    89    1
    59    54    55    1
    60    54    57    1
    61    59    58   ar
    62    95    93    1
    63   136   134    1
    64    58    60   ar
    65    58    57    1
    66    55    56    2
    67    21    20    1
    68    89    90    1
    69    89    92    1
    70    93    92    1
    71    93    94    1
    72    91    90    2
    73   134   135    1
    74   134   133    2
    75    20    17    1
    76    18    19    2
    77    18    17    1
    78   133   132    1
    79    17    16    1
    80    16    14   am
    81     4     3    2
    82   125   123    1
    83    14    13    1
    84    14    15    2
    85   132   131    1
    86    13    12    1
    87     3    12   am
    88     3     2    1
    89     7     8    1
    90     7     6    1
    91     5     6    1
    92     5     2    1
    93   131   130    1
    94   123   124    1
    95   123   122    2
    96     8     9    2
    97     1     2    1
    98     9    11    1
    99     9    10    1
   100   121   122    1
   101   121   120    1
   102   128   129    2
   103   128   127    1
   104   165   164    1
   105   165   166    1
   106   126   127    1
   107   130   127    1
   108   164   161    1
   109   145   143   ar
   110   145   147   ar
   111   120   119    1
   112   143   142   ar
   113   148   147    1
   114   166   160    1
   115   147   146   ar
   116   173   175   ar
   117   173   172   ar
   118   119   116    1
   119   161   160    1
   120   161   162    1
   121   175   176   ar
   122   160   151   am
   123   171   172    1
   124   171   168    1
   125   118   117    2
   126   142   141    1
   127   142   144   ar
   128   167   168    1
   129   172   174   ar
   130   117   116    1
   131   168   169    1
   132   141   138    1
   133   146   144   ar
   134   162   163    2
   135   151   152    2
   136   151   150    1
   137   138   137    1
   138   138   139    1
   139   116   115    1
   140   176   174   ar
   141   150   149    1
   142   150   153    1
   143   139   140    2
   144   155   157   ar
   145   155   154   ar
   146   169   170    2
   147   157   159   ar
   148   153   154    1
   149   154   156   ar
   150   159   158   ar
   151   156   158   ar
   152   108   107    2
   153   103   102   ar
   154   107   106    1
   155   109   110    1
   156   109   106    1
   157   112   110   ar
   158   112   114   ar
   159   110   111   ar
   160   102   104   ar
   161   102   101    1
   162   106   105    1
   163   114   113   ar
   164   111   113   ar
   165   101   100    1
   166   100    97    1
   167    96    97    1
   168    97    98    1
   169    98    99    2
