@<TRIPOS>MOLECULE
tmp/3f2nA00.pdb
 164 156 0 0 0
SMALL
GASTEIGER

@<TRIPOS>ATOM
      1  N        -11.3910   18.7880  -14.4620 N.3    20  ILE20      -0.1231
      2  CA       -12.3110   18.1700  -13.4860 C.3    20  ILE20       0.1692
      3  C        -11.6580   17.7970  -12.1600 C.2    20  ILE20       0.2593
      4  O        -12.3400   17.4860  -11.1870 O.2    20  ILE20      -0.2718
      5  CB       -13.0420   16.9220  -14.0640 C.3    20  ILE20       0.0266
      6  CG1      -12.0720   15.8740  -14.6390 C.3    20  ILE20       0.0019
      7  CG2      -14.0800   17.3460  -15.1140 C.3    20  ILE20       0.0020
      8  CD1      -12.7600   14.5290  -15.0050 C.3    20  ILE20       0.0001
      9  N        -10.3480   17.8200  -12.1030 N.am   21  GLY21      -0.1942
     10  CA        -9.6660   17.6030  -10.8410 C.3    21  GLY21       0.2014
     11  C         -8.1810   17.5530  -10.9670 C.2    21  GLY21       0.2638
     12  O         -7.6110   17.7890  -12.0380 O.2    21  GLY21      -0.2714
     13  N         -7.5380   17.2680   -9.8410 N.am   22  GLU22      -0.1977
     14  CA        -6.1100   17.3990   -9.7460 C.3    22  GLU22       0.1602
     15  C         -5.5330   16.6060   -8.5710 C.2    22  GLU22       0.2287
     16  O         -6.2610   16.2570   -7.6410 O.2    22  GLU22      -0.2864
     17  CB        -5.8160   18.8830   -9.5510 C.3    22  GLU22       0.0415
     18  CG        -6.3660   19.4660   -8.2150 C.3    22  GLU22       0.1163
     19  CD        -5.9690   20.9160   -7.9510 C.2    22  GLU22       0.3649
     20  OE1       -5.8550   21.7090   -8.9090 O.co2  22  GLU22      -0.2457
     21  OE2       -5.7480   21.2520   -6.7640 O.co2  22  GLU22      -0.2457
     22  N         -6.3650   16.5490  -14.3780 N.3    28  VAL28      -0.1245
     23  CA        -7.3540   15.6880  -15.0280 C.3    28  VAL28       0.1561
     24  C         -8.4010   16.5520  -15.7170 C.2    28  VAL28       0.2260
     25  O         -8.9590   17.4790  -15.1250 O.2    28  VAL28      -0.2867
     26  CB        -8.0180   14.6910  -14.0610 C.3    28  VAL28       0.0252
     27  CG1       -8.9660   13.7510  -14.8690 C.3    28  VAL28       0.0019
     28  CG2       -6.9700   13.8560  -13.2740 C.3    28  VAL28       0.0019
     29  N        -11.9420   10.9620  -19.9240 N.3    39  ALA39      -0.1245
     30  CA       -11.1770   11.6500  -18.9040 C.3    39  ALA39       0.1562
     31  C         -9.7080   11.4610  -19.2450 C.2    39  ALA39       0.2260
     32  O         -9.2870   10.3540  -19.5810 O.2    39  ALA39      -0.2867
     33  CB       -11.5000   11.1140  -17.4960 C.3    39  ALA39       0.0290
     34  N         -5.7720   12.1560  -17.9120 N.3    41  LYS41      -0.1245
     35  CA        -4.8770   12.4910  -16.8290 C.3    41  LYS41       0.1561
     36  C         -3.5260   12.7720  -17.4200 C.2    41  LYS41       0.2260
     37  O         -3.0100   11.9590  -18.2130 O.2    41  LYS41      -0.2867
     38  CB        -4.7520   11.3470  -15.8110 C.3    41  LYS41       0.0271
     39  CG        -3.7660   11.6230  -14.7020 C.3    41  LYS41       0.0035
     40  CD        -3.9220   10.5480  -13.6110 C.3    41  LYS41       0.0206
     41  CE        -2.9570   10.6550  -12.4470 C.3    41  LYS41       0.1093
     42  NZ        -3.3150    9.5410  -11.4420 N.3    41  LYS41      -0.1314
     43  N          1.0740    2.6900  -11.9740 N.3    65  GLU65      -0.1245
     44  CA        -0.3040    3.1740  -12.2640 C.3    65  GLU65       0.1567
     45  C         -0.7630    2.6970  -13.6540 C.2    65  GLU65       0.2260
     46  O         -1.8960    2.2690  -13.8460 O.2    65  GLU65      -0.2867
     47  CB        -0.4440    4.6880  -12.1650 C.3    65  GLU65       0.0388
     48  CG        -1.8780    5.1200  -12.4790 C.3    65  GLU65       0.1160
     49  CD        -2.1440    6.6180  -12.2990 C.2    65  GLU65       0.3649
     50  OE1       -1.1820    7.3550  -11.9740 O.co2  65  GLU65      -0.2457
     51  OE2       -3.3220    7.0230  -12.5150 O.co2  65  GLU65      -0.2457
     52  N        -12.7430    0.8810  -14.4080 N.3    87  ILE87      -0.1245
     53  CA       -12.9320    1.8520  -15.5130 C.3    87  ILE87       0.1561
     54  C        -12.0270    1.4140  -16.6560 C.2    87  ILE87       0.2260
     55  O        -10.9600    0.8150  -16.4390 O.2    87  ILE87      -0.2867
     56  CB       -12.6080    3.3070  -15.0420 C.3    87  ILE87       0.0252
     57  CG1      -13.1800    4.3950  -15.9590 C.3    87  ILE87       0.0019
     58  CG2      -11.0910    3.4780  -14.7920 C.3    87  ILE87       0.0019
     59  CD1      -14.7800    4.3420  -16.0300 C.3    87  ILE87       0.0001
     60  N         -8.9030    7.6660  -20.1220 N.3   135  PHE135     -0.1227
     61  CA        -9.8840    6.7430  -19.5490 C.3   135  PHE135      0.1736
     62  C        -11.2450    6.9470  -20.1240 C.2   135  PHE135      0.2595
     63  O        -11.6510    8.0480  -20.5140 O.2   135  PHE135     -0.2718
     64  CB        -9.9530    6.9530  -18.0460 C.3   135  PHE135      0.0547
     65  CG        -8.6680    6.6160  -17.3130 C.ar  135  PHE135     -0.0202
     66  CD1       -8.3570    5.3160  -16.9890 C.ar  135  PHE135     -0.0042
     67  CD2       -7.7800    7.6180  -16.9480 C.ar  135  PHE135     -0.0042
     68  CE1       -7.2120    5.0210  -16.2840 C.ar  135  PHE135     -0.0003
     69  CE2       -6.6310    7.3200  -16.2730 C.ar  135  PHE135     -0.0003
     70  CZ        -6.3330    6.0040  -15.9760 C.ar  135  PHE135     -0.0000
     71  N        -11.9770    5.8510  -20.1290 N.am  136  GLU136     -0.1965
     72  CA       -13.4120    5.8870  -20.2960 C.3   136  GLU136      0.1733
     73  C        -14.0310    6.8430  -19.2450 C.2   136  GLU136      0.2616
     74  O        -13.5950    6.9130  -18.0980 O.2   136  GLU136     -0.2715
     75  CB       -13.9280    4.4560  -20.1390 C.3   136  GLU136      0.0429
     76  CG       -15.4160    4.3320  -20.0230 C.3   136  GLU136      0.1163
     77  CD       -15.9110    2.9550  -19.5430 C.2   136  GLU136      0.3649
     78  OE1      -17.1010    2.7150  -19.7390 O.co2 136  GLU136     -0.2457
     79  OE2      -15.1780    2.1500  -18.9230 O.co2 136  GLU136     -0.2457
     80  N        -15.0230    7.6250  -19.6650 N.am  137  PHE137     -0.1960
     81  CA       -15.6590    8.5640  -18.7570 C.3   137  PHE137      0.1771
     82  C        -16.6300    7.7990  -17.8350 C.2   137  PHE137      0.2620
     83  O        -17.5500    7.1650  -18.3140 O.2   137  PHE137     -0.2715
     84  CB       -16.4170    9.6450  -19.5030 C.3   137  PHE137      0.0574
     85  CG       -17.0020   10.6940  -18.5760 C.ar  137  PHE137     -0.0200
     86  CD1      -16.1830   11.6280  -17.9750 C.ar  137  PHE137     -0.0042
     87  CD2      -18.3610   10.7160  -18.3100 C.ar  137  PHE137     -0.0042
     88  CE1      -16.7120   12.5850  -17.1050 C.ar  137  PHE137     -0.0003
     89  CE2      -18.9050   11.6590  -17.4160 C.ar  137  PHE137     -0.0003
     90  CZ       -18.0900   12.5900  -16.8340 C.ar  137  PHE137     -0.0000
     91  N        -16.3930    7.8600  -16.5350 N.am  138  GLY138     -0.1940
     92  CA       -17.0940    7.0460  -15.5580 C.3   138  GLY138      0.2014
     93  C        -18.2600    7.6930  -14.8280 C.2   138  GLY138      0.2639
     94  O        -18.9560    7.0290  -14.0700 O.2   138  GLY138     -0.2714
     95  N        -18.4820    8.9840  -15.0530 N.am  139  GLY139     -0.1954
     96  CA       -19.6230    9.6830  -14.4530 C.3   139  GLY139      0.1869
     97  C        -19.2000   10.7180  -13.4450 C.2   139  GLY139      0.2309
     98  O        -18.2080   11.4160  -13.6340 O.2   139  GLY139     -0.2863
     99  N        -18.4340   11.9040   -9.4210 N.3   141  ASP141     -0.1239
    100  CA       -17.9440   11.3100   -8.1900 C.3   141  ASP141      0.1674
    101  C        -18.9200   11.4200   -7.0500 C.2   141  ASP141      0.2266
    102  O        -19.7740   12.3430   -6.9920 O.2   141  ASP141     -0.2867
    103  CB       -16.6380   11.9430   -7.8080 C.3   141  ASP141      0.1410
    104  CG       -16.7690   13.4270   -7.6010 C.2   141  ASP141      0.3668
    105  OD1      -16.7630   13.8090   -6.4260 O.co2 141  ASP141     -0.2456
    106  OD2      -16.8960   14.1850   -8.6060 O.co2 141  ASP141     -0.2456
    107  N        -10.9550    7.1320   -1.4710 N.3   181  HIS181     -0.1241
    108  CA       -11.7440    8.2500   -0.9630 C.3   181  HIS181      0.1621
    109  C        -12.9200    8.5030   -1.9130 C.2   181  HIS181      0.2264
    110  O        -12.9580    7.9600   -3.0210 O.2   181  HIS181     -0.2867
    111  CB       -10.8640    9.5000   -0.7390 C.3   181  HIS181      0.0745
    112  CG       -10.2380   10.0490   -1.9690 C.ar  181  HIS181      0.0817
    113  ND1      -10.9690   10.6550   -2.9630 N.ar  181  HIS181     -0.2268
    114  CD2       -8.9440   10.1120   -2.3590 C.ar  181  HIS181      0.1154
    115  CE1      -10.1520   11.0560   -3.9210 C.ar  181  HIS181      0.1986
    116  NE2       -8.9150   10.7670   -3.5590 N.ar  181  HIS181     -0.2212
    117  N        -13.8970   10.8310   -3.8340 N.3   183  GLY183     -0.1210
    118  CA       -13.6590   11.3460   -5.1540 C.3   183  GLY183      0.1956
    119  C        -13.2570   10.2650   -6.1240 C.2   183  GLY183      0.2611
    120  O        -13.2190   10.5150   -7.3220 O.2   183  GLY183     -0.2717
    121  N        -12.9260    9.0730   -5.6200 N.am  184  ASN184     -0.1974
    122  CA       -12.4820    7.9710   -6.4900 C.3   184  ASN184      0.1688
    123  C        -13.5510    6.8790   -6.7080 C.2   184  ASN184      0.2292
    124  O        -13.2370    5.7890   -7.1690 O.2   184  ASN184     -0.2864
    125  CB       -11.1860    7.3550   -5.9550 C.3   184  ASN184      0.1181
    126  CG        -9.9860    8.2530   -6.1700 C.2   184  ASN184      0.2629
    127  OD1      -10.0110    9.0940   -7.0490 O.2   184  ASN184     -0.2716
    128  ND2       -8.9170    8.0480   -5.3960 N.am  184  ASN184     -0.0877
    129  N        -17.0430    6.7820   -8.7890 N.3   186  LEU186     -0.1245
    130  CA       -17.8990    7.4520   -9.7400 C.3   186  LEU186      0.1561
    131  C        -19.2370    6.7600   -9.9250 C.2   186  LEU186      0.2260
    132  O        -19.3250    5.5470   -9.8470 O.2   186  LEU186     -0.2867
    133  CB       -17.2060    7.5860  -11.0950 C.3   186  LEU186      0.0270
    134  CG       -15.7690    8.1720  -11.1870 C.3   186  LEU186      0.0019
    135  CD1      -15.2960    8.1820  -12.6540 C.3   186  LEU186      0.0001
    136  CD2      -15.6710    9.6020  -10.5760 C.3   186  LEU186      0.0001
    137  N        -11.9670    4.2190   -9.4470 N.3   216  ILE216     -0.1231
    138  CA       -10.9190    4.8240  -10.2650 C.3   216  ILE216      0.1692
    139  C         -9.6770    5.2360   -9.4850 C.2   216  ILE216      0.2592
    140  O         -9.6620    5.2140   -8.2660 O.2   216  ILE216     -0.2718
    141  CB       -11.4470    6.1090  -10.9820 C.3   216  ILE216      0.0266
    142  CG1      -11.8980    7.1670   -9.9770 C.3   216  ILE216      0.0019
    143  CG2      -12.5720    5.7430  -11.9270 C.3   216  ILE216      0.0020
    144  CD1      -11.9190    8.5950  -10.5340 C.3   216  ILE216      0.0001
    145  N         -8.6470    5.5710  -10.2560 N.am  217  ASP217     -0.1960
    146  CA        -7.4690    6.2900   -9.7970 C.3   217  ASP217      0.1840
    147  C         -6.5490    5.3990   -8.9750 C.2   217  ASP217      0.2622
    148  O         -6.6520    5.3380   -7.7560 O.2   217  ASP217     -0.2715
    149  CB        -7.8790    7.5160   -8.9620 C.3   217  ASP217      0.1450
    150  CG        -6.7060    8.4520   -8.7340 C.2   217  ASP217      0.3671
    151  OD1       -5.5420    7.9360   -8.6610 O.co2 217  ASP217     -0.2456
    152  OD2       -6.9480    9.6810   -8.6370 O.co2 217  ASP217     -0.2456
    153  N         -5.6500    4.7070   -9.6680 N.am  218  TYR218     -0.1974
    154  CA        -4.8490    3.6460   -9.0720 C.3   218  TYR218      0.1639
    155  C         -3.4330    4.0610   -8.6400 C.2   218  TYR218      0.2290
    156  O         -2.5230    3.2190   -8.5860 O.2   218  TYR218     -0.2864
    157  CB        -4.8550    2.4290  -10.0080 C.3   218  TYR218      0.0560
    158  CG        -6.2670    2.1680  -10.5430 C.ar  218  TYR218     -0.0198
    159  CD1       -7.3410    2.0120   -9.6900 C.ar  218  TYR218     -0.0009
    160  CD2       -6.4980    2.1650  -11.9240 C.ar  218  TYR218     -0.0009
    161  CE1       -8.6410    1.8680  -10.1880 C.ar  218  TYR218      0.0417
    162  CE2       -7.7680    1.9910  -12.4570 C.ar  218  TYR218      0.0417
    163  CZ        -8.8390    1.8370  -11.6080 C.ar  218  TYR218      0.1957
    164  OH       -10.1040    1.6730  -12.1250 O.3   218  TYR218     -0.2866
@<TRIPOS>BOND
     1    63    62    2
     2    72    75    1
     3    72    71    1
     4    72    73    1
     5    75    76    1
     6    71    62   am
     7    62    61    1
     8    60    61    1
     9    76    77    1
    10    29    30    1
    11    78    77   ar
    12    80    73   am
    13    80    81    1
    14    32    31    2
    15    61    64    1
    16    77    79   ar
    17    84    81    1
    18    84    85    1
    19    73    74    2
    20    31    30    1
    21    30    33    1
    22    81    82    1
    23    85    87   ar
    24    85    86   ar
    25    83    82    2
    26    87    89   ar
    27    37    36    2
    28    64    65    1
    29    86    88   ar
    30    34    35    1
    31    82    91   am
    32    36    35    1
    33    89    90   ar
    34    65    66   ar
    35    65    67   ar
    36    88    90   ar
    37    66    68   ar
    38    67    69   ar
    39    35    38    1
    40    54    55    2
    41    54    53    1
    42    91    92    1
    43    68    70   ar
    44    69    70   ar
    45    59    57    1
    46    57    56    1
    47    38    39    1
    48    24    25    2
    49    24    23    1
    50    92    93    1
    51    53    56    1
    52    53    52    1
    53     7     5    1
    54    95    93   am
    55    95    96    1
    56    56    58    1
    57    23    22    1
    58    23    26    1
    59     8     6    1
    60    27    26    1
    61    93    94    2
    62    39    40    1
    63     6     5    1
    64     1     2    1
    65    96    97    1
    66     5     2    1
    67    26    28    1
    68    46    45    2
    69    45    44    1
    70    98    97    2
    71    40    41    1
    72     2     3    1
    73   135   134    1
    74    51    49   ar
    75    48    49    1
    76    48    47    1
    77   162   160   ar
    78   162   163   ar
    79    41    42    1
    80    49    50   ar
    81    44    47    1
    82    44    43    1
    83     3     9   am
    84     3     4    2
    85   164   163    1
    86     9    10    1
    87    12    11    2
    88   143   141    1
    89   160   158   ar
    90   163   161   ar
    91   134   133    1
    92   134   136    1
    93   133   130    1
    94   141   138    1
    95   141   142    1
    96    11    10    1
    97    11    13   am
    98   158   157    1
    99   158   159   ar
   100   144   142    1
   101   138   139    1
   102   138   137    1
   103   145   146    1
   104   145   139   am
   105   161   159   ar
   106   157   154    1
   107   131   132    2
   108   131   130    1
   109    13    14    1
   110   146   147    1
   111   146   149    1
   112    14    17    1
   113    14    15    1
   114   130   129    1
   115   153   154    1
   116   153   147   am
   117    17    18    1
   118   139   140    2
   119    99   100    1
   120   154   155    1
   121   147   148    2
   122   149   150    1
   123    20    19   ar
   124   150   151   ar
   125   150   152   ar
   126   155   156    2
   127   106   104   ar
   128    15    16    2
   129    18    19    1
   130   100   103    1
   131   100   101    1
   132    19    21   ar
   133   103   104    1
   134   104   105   ar
   135   120   119    2
   136   124   123    2
   137   101   102    2
   138   127   126    2
   139   123   122    1
   140   122   125    1
   141   122   121    1
   142   126   125    1
   143   126   128   am
   144   119   121   am
   145   119   118    1
   146   118   117    1
   147   115   116   ar
   148   115   113   ar
   149   116   114   ar
   150   110   109    2
   151   113   112   ar
   152   114   112   ar
   153   112   111    1
   154   109   108    1
   155   107   108    1
   156   108   111    1
