@<TRIPOS>MOLECULE
tmp/3f2vA00.pdb
 143 145 0 0 0
SMALL
GASTEIGER

@<TRIPOS>ATOM
      1  N         21.6300    0.2540   23.6840 N.3     9  HIS9       -0.1241
      2  CA        21.6170   -1.1680   23.3620 C.3     9  HIS9        0.1621
      3  C         22.9900   -1.7100   23.7570 C.2     9  HIS9        0.2264
      4  O         24.0070   -1.2930   23.2060 O.2     9  HIS9       -0.2867
      5  CB        21.3770   -1.3910   21.8660 C.3     9  HIS9        0.0745
      6  CG        20.9950   -2.7980   21.5300 C.ar    9  HIS9        0.0817
      7  ND1       21.7850   -3.8840   21.8520 N.ar    9  HIS9       -0.2268
      8  CD2       19.8780   -3.3060   20.9570 C.ar    9  HIS9        0.1154
      9  CE1       21.1680   -4.9960   21.4990 C.ar    9  HIS9        0.1986
     10  NE2       20.0070   -4.6740   20.9530 N.ar    9  HIS9       -0.2212
     11  N         25.1060   -7.4410   17.5390 N.3    14  GLN14      -0.1231
     12  CA        24.3340   -8.6750   17.4440 C.3    14  GLN14       0.1698
     13  C         22.8640   -8.3300   17.2720 C.2    14  GLN14       0.2593
     14  O         21.9950   -9.2010   17.2340 O.2    14  GLN14      -0.2718
     15  CB        24.5290   -9.5220   18.7050 C.3    14  GLN14       0.0381
     16  CG        25.9860   -9.8660   18.9980 C.3    14  GLN14       0.0905
     17  CD        26.6970  -10.4780   17.8030 C.2    14  GLN14       0.2608
     18  OE1       26.2180  -11.4510   17.2080 O.2    14  GLN14      -0.2717
     19  NE2       27.8500   -9.9160   17.4480 N.am   14  GLN14      -0.0878
     20  N         22.6010   -7.0350   17.1650 N.am   15  SER15      -0.1938
     21  CA        21.2530   -6.5290   17.0000 C.3    15  SER15       0.2055
     22  C         20.8260   -6.5760   15.5400 C.2    15  SER15       0.2644
     23  O         21.6480   -6.4540   14.6280 O.2    15  SER15      -0.2714
     24  CB        21.1860   -5.0850   17.5070 C.3    15  SER15       0.2130
     25  OG        20.1060   -4.3880   16.9160 O.3    15  SER15      -0.2179
     26  N         19.5320   -6.7620   15.3250 N.am   16  THR16      -0.1936
     27  CA        18.9960   -6.7880   13.9790 C.3    16  THR16       0.2028
     28  C         18.0330   -5.6200   13.8080 C.2    16  THR16       0.2642
     29  O         18.1400   -4.8630   12.8480 O.2    16  THR16      -0.2714
     30  CB        18.2550   -8.1060   13.6850 C.3    16  THR16       0.1808
     31  OG1       17.5470   -7.9860   12.4430 O.3    16  THR16      -0.2208
     32  CG2       17.2730   -8.4280   14.7990 C.3    16  THR16       0.0379
     33  N         17.1120   -5.4580   14.7540 N.am   17  VAL17      -0.1963
     34  CA        16.1490   -4.3700   14.6780 C.3    17  VAL17       0.1727
     35  C         16.7870   -3.0040   14.9430 C.2    17  VAL17       0.2616
     36  O         16.7200   -2.1160   14.0980 O.2    17  VAL17      -0.2715
     37  CB        14.9700   -4.5790   15.6710 C.3    17  VAL17       0.0290
     38  CG1       14.0570   -3.3540   15.6720 C.3    17  VAL17       0.0023
     39  CG2       14.1680   -5.8250   15.2810 C.3    17  VAL17       0.0023
     40  N         17.4120   -2.8340   16.1030 N.am   18  HIS18      -0.1973
     41  CA        18.0180   -1.5500   16.4320 C.3    18  HIS18       0.1656
     42  C         19.1750   -1.1640   15.5150 C.2    18  HIS18       0.2291
     43  O         19.4090    0.0210   15.2670 O.2    18  HIS18      -0.2864
     44  CB        18.4370   -1.5320   17.9050 C.3    18  HIS18       0.0771
     45  CG        17.2840   -1.3190   18.8380 C.ar   18  HIS18       0.0820
     46  ND1       16.5270   -2.3550   19.3410 N.ar   18  HIS18      -0.2267
     47  CD2       16.6900   -0.1790   19.2580 C.ar   18  HIS18       0.1154
     48  CE1       15.5120   -1.8610   20.0290 C.ar   18  HIS18       0.1986
     49  NE2       15.5870   -0.5430   19.9920 N.ar   18  HIS18      -0.2212
     50  N         15.9090   -1.7140   23.3720 N.3    66  PRO66      -0.2102
     51  CA        15.1720   -2.9740   23.3410 C.3    66  PRO66       0.1504
     52  C         14.5580   -3.1520   24.7280 C.2    66  PRO66       0.2576
     53  O         15.1340   -2.7080   25.7260 O.2    66  PRO66      -0.2718
     54  CB        16.2570   -4.0020   23.0510 C.3    66  PRO66       0.0282
     55  CG        17.4490   -3.4320   23.7750 C.3    66  PRO66       0.0208
     56  CD        17.3660   -1.9470   23.4430 C.3    66  PRO66       0.0893
     57  N         13.3860   -3.7730   24.7990 N.am   67  ILE67      -0.1966
     58  CA        12.7540   -3.9970   26.0930 C.3    67  ILE67       0.1727
     59  C         13.3510   -5.2570   26.6820 C.2    67  ILE67       0.2616
     60  O         13.1630   -6.3470   26.1390 O.2    67  ILE67      -0.2715
     61  CB        11.2240   -4.2040   25.9710 C.3    67  ILE67       0.0290
     62  CG1       10.5650   -2.9460   25.3890 C.3    67  ILE67       0.0022
     63  CG2       10.6280   -4.5380   27.3530 C.3    67  ILE67       0.0023
     64  CD1       10.8000   -1.6900   26.1930 C.3    67  ILE67       0.0001
     65  N         14.0900   -5.0990   27.7760 N.am   68  TYR68      -0.1960
     66  CA        14.7130   -6.2240   28.4770 C.3    68  TYR68       0.1771
     67  C         14.0130   -6.3400   29.8200 C.2    68  TYR68       0.2620
     68  O         14.0300   -5.4010   30.6120 O.2    68  TYR68      -0.2715
     69  CB        16.2030   -5.9760   28.7230 C.3    68  TYR68       0.0574
     70  CG        17.0710   -6.0460   27.4940 C.ar   68  TYR68      -0.0198
     71  CD1       16.6010   -6.6290   26.3200 C.ar   68  TYR68      -0.0009
     72  CD2       18.3780   -5.5620   27.5150 C.ar   68  TYR68      -0.0009
     73  CE1       17.4100   -6.7300   25.1940 C.ar   68  TYR68       0.0417
     74  CE2       19.1990   -5.6620   26.3900 C.ar   68  TYR68       0.0417
     75  CZ        18.7050   -6.2460   25.2370 C.ar   68  TYR68       0.1957
     76  OH        19.4950   -6.3510   24.1140 O.3    68  TYR68      -0.2866
     77  N         13.4020   -7.4900   30.0690 N.am   69  TRP69      -0.1960
     78  CA        12.6720   -7.7120   31.3050 C.3    69  TRP69       0.1771
     79  C         11.6650   -6.5950   31.5930 C.2    69  TRP69       0.2619
     80  O         11.6330   -6.0360   32.6910 O.2    69  TRP69      -0.2715
     81  CB        13.6480   -7.8750   32.4780 C.3    69  TRP69       0.0590
     82  CG        14.3450   -9.2120   32.4720 C.ar   69  TRP69       0.0006
     83  CD1       15.6920   -9.4410   32.4140 C.ar   69  TRP69       0.0946
     84  CD2       13.7190  -10.5050   32.4880 C.ar   69  TRP69       0.0152
     85  NE1       15.9430  -10.7950   32.3900 N.ar   69  TRP69      -0.2442
     86  CE2       14.7510  -11.4710   32.4340 C.ar   69  TRP69       0.0810
     87  CE3       12.3860  -10.9390   32.5410 C.ar   69  TRP69       0.0012
     88  CZ2       14.4940  -12.8480   32.4310 C.ar   69  TRP69       0.0191
     89  CZ3       12.1270  -12.3160   32.5380 C.ar   69  TRP69       0.0001
     90  CH2       13.1800  -13.2510   32.4830 C.ar   69  TRP69       0.0015
     91  N         10.8590   -6.2660   30.5850 N.am   70  PHE70      -0.1974
     92  CA         9.8100   -5.2660   30.7190 C.3    70  PHE70       0.1639
     93  C         10.3570   -3.9330   31.2220 C.2    70  PHE70       0.2290
     94  O          9.6660   -3.1810   31.9190 O.2    70  PHE70      -0.2864
     95  CB         8.7520   -5.8210   31.6840 C.3    70  PHE70       0.0560
     96  CG         8.3030   -7.2200   31.3350 C.ar   70  PHE70      -0.0200
     97  CD1        7.4120   -7.4310   30.2860 C.ar   70  PHE70      -0.0042
     98  CD2        8.8240   -8.3270   32.0070 C.ar   70  PHE70      -0.0042
     99  CE1        7.0450   -8.7250   29.9020 C.ar   70  PHE70      -0.0003
    100  CE2        8.4640   -9.6290   31.6320 C.ar   70  PHE70      -0.0003
    101  CZ         7.5720   -9.8250   30.5740 C.ar   70  PHE70      -0.0000
    102  N         11.6240   -2.0020   20.9590 N.3   107  SER107     -0.1202
    103  CA        11.3820   -3.2780   20.3180 C.3   107  SER107      0.2020
    104  C         11.1060   -4.2790   21.4240 C.2   107  SER107      0.2619
    105  O         11.6800   -4.1990   22.5200 O.2   107  SER107     -0.2717
    106  CB        12.5980   -3.7250   19.4900 C.3   107  SER107      0.2103
    107  OG        13.7200   -3.9880   20.3190 O.3   107  SER107     -0.2182
    108  N         10.2130   -5.2170   21.1350 N.am  108  LEU108     -0.1965
    109  CA         9.8480   -6.2380   22.1000 C.3   108  LEU108      0.1728
    110  C         10.0270   -7.6160   21.4770 C.2   108  LEU108      0.2617
    111  O          9.6900   -7.8290   20.3090 O.2   108  LEU108     -0.2715
    112  CB         8.4030   -6.0330   22.5580 C.3   108  LEU108      0.0311
    113  CG         8.1210   -4.6820   23.2240 C.3   108  LEU108      0.0022
    114  CD1        7.5390   -3.7050   22.2040 C.3   108  LEU108      0.0001
    115  CD2        7.1440   -4.8750   24.3710 C.3   108  LEU108      0.0001
    116  N         10.5650   -8.5440   22.2650 N.am  109  GLY109     -0.1940
    117  CA        10.8130   -9.8920   21.7890 C.3   109  GLY109      0.2014
    118  C          9.6680  -10.8650   21.9890 C.2   109  GLY109      0.2638
    119  O          9.8930  -12.0680   22.0920 O.2   109  GLY109     -0.2714
    120  N          8.4460  -10.3470   22.0600 N.am  110  ALA110     -0.1977
    121  CA         7.2520  -11.1740   22.2160 C.3   110  ALA110      0.1597
    122  C          6.1610  -10.5590   21.3430 C.2   110  ALA110      0.2287
    123  O          6.1640   -9.3580   21.0940 O.2   110  ALA110     -0.2864
    124  CB         6.8020  -11.2070   23.6790 C.3   110  ALA110      0.0319
    125  N          0.8110   -8.7900   25.0550 N.3   115  TYR115     -0.1241
    126  CA         0.6060   -7.6060   25.8890 C.3   115  TYR115      0.1605
    127  C         -0.8340   -7.1260   25.8950 C.2   115  TYR115      0.2264
    128  O         -1.1490   -6.0270   25.4350 O.2   115  TYR115     -0.2867
    129  CB         1.5380   -6.4790   25.4390 C.3   115  TYR115      0.0534
    130  CG         2.9990   -6.8480   25.5510 C.ar  115  TYR115     -0.0201
    131  CD1        3.6160   -7.6440   24.5850 C.ar  115  TYR115     -0.0009
    132  CD2        3.7490   -6.4540   26.6570 C.ar  115  TYR115     -0.0009
    133  CE1        4.9490   -8.0420   24.7220 C.ar  115  TYR115      0.0417
    134  CE2        5.0780   -6.8460   26.8040 C.ar  115  TYR115      0.0417
    135  CZ         5.6700   -7.6390   25.8350 C.ar  115  TYR115      0.1957
    136  OH         6.9760   -8.0380   25.9880 O.3   115  TYR115     -0.2866
    137  N          9.2110   -8.3210   17.6480 N.3   151  THR151     -0.1218
    138  CA        10.0250   -9.2450   16.8760 C.3   151  THR151      0.1862
    139  C          9.4510  -10.6490   16.9830 C.2   151  THR151      0.2287
    140  O          9.5260  -11.2750   18.0420 O.2   151  THR151     -0.2866
    141  CB        11.4730   -9.2740   17.3980 C.3   151  THR151      0.1770
    142  OG1       12.0040   -7.9450   17.4100 O.3   151  THR151     -0.2211
    143  CG2       12.3350  -10.1510   16.5110 C.3   151  THR151      0.0375
@<TRIPOS>BOND
     1    31    30    1
     2    29    28    2
     3    30    27    1
     4    30    32    1
     5    28    27    1
     6    28    33   am
     7    27    26    1
     8    36    35    2
     9    23    22    2
    10    34    33    1
    11    34    35    1
    12    34    37    1
    13    35    40   am
    14    43    42    2
    15    39    37    1
    16    26    22   am
    17    42    41    1
    18    22    21    1
    19    37    38    1
    20    40    41    1
    21    41    44    1
    22   143   141    1
    23   138   139    1
    24   138   141    1
    25   138   137    1
    26    25    24    1
    27   139   140    2
    28    21    20    1
    29    21    24    1
    30    20    13   am
    31    18    17    2
    32    14    13    2
    33    13    12    1
    34   141   142    1
    35    12    11    1
    36    12    15    1
    37    19    17   am
    38    17    16    1
    39    44    45    1
    40    15    16    1
    41    45    47   ar
    42    45    46   ar
    43    47    49   ar
    44    46    48   ar
    45   106   103    1
    46   106   107    1
    47    49    48   ar
    48   111   110    2
    49   103   102    1
    50   103   104    1
    51    10     8   ar
    52    10     9   ar
    53     8     6   ar
    54   123   122    2
    55   108   104   am
    56   108   109    1
    57   122   121    1
    58   104   105    2
    59   110   109    1
    60   110   116   am
    61     9     7   ar
    62     6     7   ar
    63     6     5    1
    64   117   118    1
    65   117   116    1
    66     5     2    1
    67   118   120   am
    68   118   119    2
    69   120   121    1
    70   109   112    1
    71   114   113    1
    72   121   124    1
    73   112   113    1
    74    54    51    1
    75    54    55    1
    76     4     3    2
    77   113   115    1
    78    51    50    1
    79    51    52    1
    80     2     1    1
    81     2     3    1
    82    50    56    1
    83    56    55    1
    84    76    75    1
    85   131   133   ar
    86   131   130   ar
    87   133   135   ar
    88    52    57   am
    89    52    53    2
    90    57    58    1
    91   125   126    1
    92    73    75   ar
    93    73    71   ar
    94    75    74   ar
    95    62    61    1
    96    62    64    1
    97   128   127    2
    98   129   130    1
    99   129   126    1
   100   130   132   ar
   101   135   136    1
   102   135   134   ar
   103   126   127    1
   104    61    58    1
   105    61    63    1
   106    58    59    1
   107    60    59    2
   108    71    70   ar
   109    74    72   ar
   110   132   134   ar
   111    59    65   am
   112    70    72   ar
   113    70    69    1
   114    65    66    1
   115    66    69    1
   116    66    67    1
   117    67    77   am
   118    67    68    2
   119    99    97   ar
   120    99   101   ar
   121    77    78    1
   122    97    96   ar
   123   101   100   ar
   124    91    92    1
   125    91    79   am
   126    92    93    1
   127    92    95    1
   128    93    94    2
   129    78    79    1
   130    78    81    1
   131    96    95    1
   132    96    98   ar
   133    79    80    2
   134   100    98   ar
   135    85    83   ar
   136    85    86   ar
   137    83    82   ar
   138    88    86   ar
   139    88    90   ar
   140    86    84   ar
   141    82    81    1
   142    82    84   ar
   143    90    89   ar
   144    84    87   ar
   145    89    87   ar
