@<TRIPOS>MOLECULE
tmp/3f3aA07.pdb
 149 145 0 0 0
SMALL
GASTEIGER

@<TRIPOS>ATOM
      1  N        -29.0030   -7.3320  -15.8970 N.3    21  LEU21      -0.1231
      2  CA       -29.0060   -8.7450  -15.5450 C.3    21  LEU21       0.1693
      3  C        -27.6070   -9.3440  -15.6790 C.2    21  LEU21       0.2592
      4  O        -27.2620  -10.2850  -14.9560 O.2    21  LEU21      -0.2718
      5  CB       -30.0110   -9.5260  -16.4110 C.3    21  LEU21       0.0284
      6  CG       -31.4760   -9.3570  -15.9850 C.3    21  LEU21       0.0019
      7  CD1      -31.9960   -7.9550  -16.3100 C.3    21  LEU21       0.0001
      8  CD2      -32.3640  -10.4290  -16.6290 C.3    21  LEU21       0.0001
      9  N        -26.8120   -8.7990  -16.6040 N.am   22  GLY22      -0.1957
     10  CA       -25.4540   -9.2720  -16.8200 C.3    22  GLY22       0.1869
     11  C        -24.5870   -9.2850  -15.5570 C.2    22  GLY22       0.2309
     12  O        -23.7740  -10.2010  -15.3400 O.2    22  GLY22      -0.2863
     13  N        -25.6910  -12.4010  -13.5960 N.3    25  LEU25      -0.1231
     14  CA       -25.7850  -13.6890  -14.2750 C.3    25  LEU25       0.1693
     15  C        -24.6920  -13.9360  -15.3170 C.2    25  LEU25       0.2591
     16  O        -24.0950  -15.0200  -15.3470 O.2    25  LEU25      -0.2718
     17  CB       -27.1620  -13.8500  -14.9170 C.3    25  LEU25       0.0284
     18  CG       -28.2770  -13.9960  -13.8880 C.3    25  LEU25       0.0019
     19  CD1      -29.6670  -13.9130  -14.5390 C.3    25  LEU25       0.0001
     20  CD2      -28.0860  -15.3000  -13.1600 C.3    25  LEU25       0.0001
     21  N        -24.4350  -12.9520  -16.1790 N.am   26  ARG26      -0.1980
     22  CA       -23.4520  -13.1560  -17.2430 C.3    26  ARG26       0.1597
     23  C        -22.0090  -13.1110  -16.7270 C.2    26  ARG26       0.2287
     24  O        -21.2120  -14.0060  -17.0090 O.2    26  ARG26      -0.2864
     25  CB       -23.6540  -12.1840  -18.4140 C.3    26  ARG26       0.0334
     26  CG       -22.8980  -12.5920  -19.6910 C.3    26  ARG26       0.0492
     27  CD       -23.3130  -11.7300  -20.9070 C.3    26  ARG26       0.2205
     28  NE       -22.9210  -12.3110  -22.2010 N.pl3  26  ARG26      -0.0865
     29  CZ       -21.6790  -12.3260  -22.6880 C.cat  26  ARG26       0.5346
     30  NH1      -20.6730  -11.8140  -21.9870 N.pl3  26  ARG26       0.1354
     31  NH2      -21.4340  -12.8700  -23.8730 N.pl3  26  ARG26       0.1354
     32  N        -32.6910   -3.2860  -29.9020 N.3   100  VAL100     -0.1245
     33  CA       -32.4600   -3.8870  -28.5970 C.3   100  VAL100      0.1561
     34  C        -33.6630   -3.6860  -27.6800 C.2   100  VAL100      0.2260
     35  O        -34.0840   -4.6140  -26.9850 O.2   100  VAL100     -0.2867
     36  CB       -31.1590   -3.3700  -27.9180 C.3   100  VAL100      0.0252
     37  CG1      -31.0560   -3.8930  -26.5120 C.3   100  VAL100      0.0019
     38  CG2      -29.9310   -3.8100  -28.7010 C.3   100  VAL100      0.0019
     39  N        -36.4020   -6.3070  -28.1480 N.3   103  TYR103     -0.1227
     40  CA       -36.3840   -7.5390  -27.3650 C.3   103  TYR103      0.1736
     41  C        -36.1340   -7.3820  -25.8620 C.2   103  TYR103      0.2595
     42  O        -36.5170   -8.2610  -25.0800 O.2   103  TYR103     -0.2718
     43  CB       -35.4560   -8.5930  -27.9650 C.3   103  TYR103      0.0548
     44  CG       -33.9800   -8.2660  -27.9520 C.ar  103  TYR103     -0.0200
     45  CD1      -33.1530   -8.7010  -26.9270 C.ar  103  TYR103     -0.0009
     46  CD2      -33.4000   -7.5660  -28.9980 C.ar  103  TYR103     -0.0009
     47  CE1      -31.7870   -8.4230  -26.9380 C.ar  103  TYR103      0.0417
     48  CE2      -32.0540   -7.2790  -29.0100 C.ar  103  TYR103      0.0417
     49  CZ       -31.2440   -7.7190  -28.0000 C.ar  103  TYR103      0.1957
     50  OH       -29.8910   -7.4240  -28.0420 O.3   103  TYR103     -0.2866
     51  N        -35.4860   -6.2960  -25.4420 N.am  104  TYR104     -0.1976
     52  CA       -35.0400   -6.2370  -24.0450 C.3   104  TYR104      0.1639
     53  C        -36.2010   -6.0110  -23.1010 C.2   104  TYR104      0.2290
     54  O        -36.2200   -6.5550  -22.0110 O.2   104  TYR104     -0.2864
     55  CB       -33.9440   -5.1840  -23.8190 C.3   104  TYR104      0.0560
     56  CG       -33.2810   -5.2460  -22.4400 C.ar  104  TYR104     -0.0198
     57  CD1      -32.2870   -6.1830  -22.1600 C.ar  104  TYR104     -0.0009
     58  CD2      -33.6460   -4.3600  -21.4280 C.ar  104  TYR104     -0.0009
     59  CE1      -31.6740   -6.2320  -20.8950 C.ar  104  TYR104      0.0417
     60  CE2      -33.0490   -4.3960  -20.1780 C.ar  104  TYR104      0.0417
     61  CZ       -32.0700   -5.3350  -19.9160 C.ar  104  TYR104      0.1957
     62  OH       -31.4690   -5.3600  -18.6860 O.3   104  TYR104     -0.2866
     63  N        -37.7120   -9.2880  -22.2420 N.3   107  ILE107     -0.1245
     64  CA       -36.8840  -10.0100  -21.2700 C.3   107  ILE107      0.1561
     65  C        -37.1210   -9.4590  -19.8580 C.2   107  ILE107      0.2260
     66  O        -37.3320  -10.2000  -18.8940 O.2   107  ILE107     -0.2867
     67  CB       -35.3940   -9.8630  -21.6060 C.3   107  ILE107      0.0252
     68  CG1      -35.0530  -10.6960  -22.8480 C.3   107  ILE107      0.0019
     69  CG2      -34.5390  -10.2790  -20.4120 C.3   107  ILE107      0.0019
     70  CD1      -33.6660  -10.4220  -23.3840 C.3   107  ILE107      0.0001
     71  N        -40.2700  -10.6010  -18.1400 N.3   110  TRP110     -0.1241
     72  CA       -40.2290  -11.9300  -17.5370 C.3   110  TRP110      0.1605
     73  C        -39.8030  -11.8480  -16.0790 C.2   110  TRP110      0.2264
     74  O        -40.2770  -12.6410  -15.2630 O.2   110  TRP110     -0.2867
     75  CB       -39.2540  -12.8870  -18.2160 C.3   110  TRP110      0.0550
     76  CG       -39.3190  -13.0000  -19.6880 C.ar  110  TRP110      0.0003
     77  CD1      -40.3910  -12.7370  -20.5120 C.ar  110  TRP110      0.0946
     78  CD2      -38.2620  -13.4520  -20.5320 C.ar  110  TRP110      0.0152
     79  NE1      -40.0380  -12.9770  -21.8250 N.ar  110  TRP110     -0.2442
     80  CE2      -38.7410  -13.4210  -21.8630 C.ar  110  TRP110      0.0810
     81  CE3      -36.9500  -13.8690  -20.2940 C.ar  110  TRP110      0.0012
     82  CZ2      -37.9510  -13.7950  -22.9450 C.ar  110  TRP110      0.0191
     83  CZ3      -36.1660  -14.2330  -21.3700 C.ar  110  TRP110      0.0001
     84  CH2      -36.6690  -14.1960  -22.6810 C.ar  110  TRP110      0.0015
     85  N        -20.2670   -5.2900  -22.8570 N.3   246  PHE246     -0.1241
     86  CA       -21.6500   -5.5780  -22.5290 C.3   246  PHE246      0.1605
     87  C        -21.9990   -4.9640  -21.1630 C.2   246  PHE246      0.2264
     88  O        -23.0040   -4.2650  -21.0260 O.2   246  PHE246     -0.2867
     89  CB       -21.8240   -7.0910  -22.5090 C.3   246  PHE246      0.0534
     90  CG       -23.1760   -7.5650  -22.0500 C.ar  246  PHE246     -0.0203
     91  CD1      -24.2210   -7.6970  -22.9480 C.ar  246  PHE246     -0.0042
     92  CD2      -23.3830   -7.9520  -20.7310 C.ar  246  PHE246     -0.0042
     93  CE1      -25.4590   -8.1770  -22.5330 C.ar  246  PHE246     -0.0003
     94  CE2      -24.6220   -8.4310  -20.3100 C.ar  246  PHE246     -0.0003
     95  CZ       -25.6600   -8.5400  -21.2050 C.ar  246  PHE246     -0.0000
     96  N        -24.2100    0.9250  -27.6140 N.3   252  PHE252     -0.1241
     97  CA       -25.6400    0.6370  -27.6380 C.3   252  PHE252      0.1605
     98  C        -26.4550    1.9180  -27.7690 C.2   252  PHE252      0.2264
     99  O        -27.6740    1.8840  -27.9200 O.2   252  PHE252     -0.2867
    100  CB       -26.0510   -0.0530  -26.3340 C.3   252  PHE252      0.0534
    101  CG       -25.7940   -1.5310  -26.2950 C.ar  252  PHE252     -0.0203
    102  CD1      -26.7970   -2.4370  -26.6450 C.ar  252  PHE252     -0.0042
    103  CD2      -24.5670   -2.0270  -25.8810 C.ar  252  PHE252     -0.0042
    104  CE1      -26.5720   -3.8090  -26.5860 C.ar  252  PHE252     -0.0003
    105  CE2      -24.3350   -3.4120  -25.8170 C.ar  252  PHE252     -0.0003
    106  CZ       -25.3370   -4.3010  -26.1660 C.ar  252  PHE252     -0.0000
    107  N        -26.0320  -18.2920  -18.5040 N.3   312  ALA312     -0.1231
    108  CA       -26.5980  -17.2400  -17.6590 C.3   312  ALA312      0.1694
    109  C        -28.1210  -17.2870  -17.5360 C.2   312  ALA312      0.2592
    110  O        -28.6770  -17.0580  -16.4570 O.2   312  ALA312     -0.2718
    111  CB       -26.1690  -15.8780  -18.1820 C.3   312  ALA312      0.0304
    112  N        -28.7910  -17.5360  -18.6560 N.am  313  PHE313     -0.1976
    113  CA       -30.2450  -17.6110  -18.6730 C.3   313  PHE313      0.1639
    114  C        -30.7880  -18.8010  -17.8750 C.2   313  PHE313      0.2290
    115  O        -31.7120  -18.6400  -17.0890 O.2   313  PHE313     -0.2864
    116  CB       -30.7760  -17.6740  -20.1010 C.3   313  PHE313      0.0560
    117  CG       -32.2610  -17.8940  -20.1760 C.ar  313  PHE313     -0.0200
    118  CD1      -33.1440  -16.8660  -19.8720 C.ar  313  PHE313     -0.0042
    119  CD2      -32.7750  -19.1290  -20.5500 C.ar  313  PHE313     -0.0042
    120  CE1      -34.5070  -17.0620  -19.9380 C.ar  313  PHE313     -0.0003
    121  CE2      -34.1470  -19.3340  -20.6290 C.ar  313  PHE313     -0.0003
    122  CZ       -35.0140  -18.2920  -20.3240 C.ar  313  PHE313     -0.0000
    123  N        -32.9410  -18.1330  -14.4140 N.3   317  PHE317     -0.1241
    124  CA       -34.3630  -18.3480  -14.6030 C.3   317  PHE317      0.1605
    125  C        -34.8330  -19.7570  -14.3410 C.2   317  PHE317      0.2264
    126  O        -36.0320  -19.9980  -14.2570 O.2   317  PHE317     -0.2867
    127  CB       -34.7820  -17.9220  -16.0260 C.3   317  PHE317      0.0534
    128  CG       -34.9770  -16.4450  -16.1660 C.ar  317  PHE317     -0.0203
    129  CD1      -36.2240  -15.8790  -15.9590 C.ar  317  PHE317     -0.0042
    130  CD2      -33.9080  -15.6170  -16.4610 C.ar  317  PHE317     -0.0042
    131  CE1      -36.4090  -14.5080  -16.0780 C.ar  317  PHE317     -0.0003
    132  CE2      -34.0860  -14.2500  -16.5730 C.ar  317  PHE317     -0.0003
    133  CZ       -35.3370  -13.6990  -16.3850 C.ar  317  PHE317     -0.0000
    134  N        -35.6430  -13.1950  -31.0360 N.3   393  LEU393     -0.1245
    135  CA       -34.8530  -12.5060  -30.0300 C.3   393  LEU393      0.1561
    136  C        -33.3590  -12.6810  -30.3150 C.2   393  LEU393      0.2260
    137  O        -32.5790  -11.7130  -30.2880 O.2   393  LEU393     -0.2867
    138  CB       -35.2010  -13.0440  -28.6290 C.3   393  LEU393      0.0270
    139  CG       -34.5470  -12.4110  -27.3900 C.3   393  LEU393      0.0019
    140  CD1      -35.4200  -12.6210  -26.1360 C.3   393  LEU393      0.0001
    141  CD2      -33.1120  -12.9100  -27.1490 C.3   393  LEU393      0.0001
    142  N        -30.5520   -9.8670  -31.1430 N.3   397  ASP397     -0.1239
    143  CA       -29.4720   -9.7390  -30.1850 C.3   397  ASP397      0.1674
    144  C        -28.1240   -9.9090  -30.8600 C.2   397  ASP397      0.2266
    145  O        -27.1330   -9.2920  -30.4540 O.2   397  ASP397     -0.2867
    146  CB       -29.6030  -10.7670  -29.0610 C.3   397  ASP397      0.1410
    147  CG       -28.4910  -10.6330  -28.0340 C.2   397  ASP397      0.3668
    148  OD1      -28.3820   -9.5530  -27.4080 O.co2 397  ASP397     -0.2456
    149  OD2      -27.7130  -11.5920  -27.8860 O.co2 397  ASP397     -0.2456
@<TRIPOS>BOND
     1   142   143    1
     2   134   135    1
     3   144   145    2
     4   144   143    1
     5   136   137    2
     6   136   135    1
     7   143   146    1
     8   135   138    1
     9    32    33    1
    10   146   147    1
    11    48    46   ar
    12    48    49   ar
    13    46    44   ar
    14    38    36    1
    15   138   139    1
    16    33    36    1
    17    33    34    1
    18    39    40    1
    19    50    49    1
    20   147   149   ar
    21   147   148   ar
    22    49    47   ar
    23    43    44    1
    24    43    40    1
    25    44    45   ar
    26    99    98    2
    27    36    37    1
    28    98    97    1
    29    34    35    2
    30    97    96    1
    31    97   100    1
    32   139   141    1
    33   139   140    1
    34    40    41    1
    35    47    45   ar
    36   102   104   ar
    37   102   101   ar
    38   104   106   ar
    39   100   101    1
    40   101   103   ar
    41   106   105   ar
    42   103   105   ar
    43    41    51   am
    44    41    42    2
    45    51    52    1
    46    52    55    1
    47    52    53    1
    48    31    29    1
    49    55    56    1
    50    70    68    1
    51    53    54    2
    52    91    93   ar
    53    91    90   ar
    54    82    84   ar
    55    82    80   ar
    56    85    86    1
    57    68    67    1
    58    29    28    2
    59    29    30    1
    60    84    83   ar
    61    93    95   ar
    62    86    89    1
    63    86    87    1
    64    89    90    1
    65    56    57   ar
    66    56    58   ar
    67    63    64    1
    68    28    27    1
    69    57    59   ar
    70    90    92   ar
    71    80    79   ar
    72    80    78   ar
    73    79    77   ar
    74    67    64    1
    75    67    69    1
    76    58    60   ar
    77    83    81   ar
    78    64    65    1
    79    95    94   ar
    80    87    88    2
    81    27    26    1
    82    59    61   ar
    83    92    94   ar
    84   121   119   ar
    85   121   122   ar
    86   119   117   ar
    87    78    81   ar
    88    78    76   ar
    89    77    76   ar
    90   122   120   ar
    91    60    61   ar
    92   117   116    1
    93   117   118   ar
    94   116   113    1
    95   120   118   ar
    96    61    62    1
    97    65    66    2
    98    26    25    1
    99    76    75    1
   100   113   112    1
   101   113   114    1
   102   112   109   am
   103   107   108    1
   104    25    22    1
   105    75    72    1
   106   111   108    1
   107    71    72    1
   108   114   115    2
   109   108   109    1
   110    72    73    1
   111   109   110    2
   112    22    23    1
   113    22    21    1
   114    24    23    2
   115    10     9    1
   116    10    11    1
   117     8     6    1
   118     9     3   am
   119   132   130   ar
   120   132   133   ar
   121   130   128   ar
   122     5     6    1
   123     5     2    1
   124   133   131   ar
   125     7     6    1
   126    21    15   am
   127   128   127    1
   128   128   129   ar
   129    73    74    2
   130   131   129   ar
   131   127   124    1
   132     1     2    1
   133     3     2    1
   134     3     4    2
   135    11    12    2
   136    16    15    2
   137    15    14    1
   138    17    14    1
   139    17    18    1
   140   124   123    1
   141   124   125    1
   142    19    18    1
   143   125   126    2
   144    14    13    1
   145    18    20    1
