@<TRIPOS>MOLECULE
tmp/3f3aA08.pdb
 136 128 0 0 0
SMALL
GASTEIGER

@<TRIPOS>ATOM
      1  N        -24.4350  -12.9520  -16.1790 N.3    26  ARG26      -0.1245
      2  CA       -23.4520  -13.1560  -17.2430 C.3    26  ARG26       0.1563
      3  C        -22.0090  -13.1110  -16.7270 C.2    26  ARG26       0.2260
      4  O        -21.2120  -14.0060  -17.0090 O.2    26  ARG26      -0.2867
      5  CB       -23.6540  -12.1840  -18.4140 C.3    26  ARG26       0.0307
      6  CG       -22.8980  -12.5920  -19.6910 C.3    26  ARG26       0.0489
      7  CD       -23.3130  -11.7300  -20.9070 C.3    26  ARG26       0.2205
      8  NE       -22.9210  -12.3110  -22.2010 N.pl3  26  ARG26      -0.0865
      9  CZ       -21.6790  -12.3260  -22.6880 C.cat  26  ARG26       0.5346
     10  NH1      -20.6730  -11.8140  -21.9870 N.pl3  26  ARG26       0.1354
     11  NH2      -21.4340  -12.8700  -23.8730 N.pl3  26  ARG26       0.1354
     12  N        -19.2570  -16.0810  -17.2210 N.3    30  GLN30      -0.1245
     13  CA       -18.0920  -15.8400  -18.0640 C.3    30  GLN30       0.1566
     14  C        -16.7830  -15.9850  -17.2810 C.2    30  GLN30       0.2260
     15  O        -15.7950  -16.4910  -17.8060 O.2    30  GLN30      -0.2867
     16  CB       -18.1740  -14.4490  -18.7120 C.3    30  GLN30       0.0367
     17  CG       -19.4160  -14.2300  -19.5660 C.3    30  GLN30       0.0905
     18  CD       -19.3890  -15.0280  -20.8500 C.2    30  GLN30       0.2608
     19  OE1      -18.3830  -15.0370  -21.5610 O.2    30  GLN30      -0.2717
     20  NE2      -20.5010  -15.6980  -21.1630 N.am   30  GLN30      -0.0878
     21  N        -11.1960  -12.4610  -25.7540 N.3   238  ILE238     -0.1231
     22  CA       -12.3890  -12.0070  -26.4410 C.3   238  ILE238      0.1692
     23  C        -13.5480  -11.9600  -25.4600 C.2   238  ILE238      0.2591
     24  O        -14.2870  -10.9810  -25.4170 O.2   238  ILE238     -0.2718
     25  CB       -12.7420  -12.9090  -27.6200 C.3   238  ILE238      0.0266
     26  CG1      -11.9850  -12.4460  -28.8610 C.3   238  ILE238      0.0019
     27  CG2      -14.2390  -12.8750  -27.8920 C.3   238  ILE238      0.0020
     28  CD1      -10.5220  -12.1250  -28.6020 C.3   238  ILE238      0.0001
     29  N        -13.6940  -13.0220  -24.6690 N.am  239  ALA239     -0.1980
     30  CA       -14.7650  -13.0920  -23.6870 C.3   239  ALA239      0.1597
     31  C        -14.6910  -11.9130  -22.7170 C.2   239  ALA239      0.2287
     32  O        -15.7070  -11.2960  -22.4030 O.2   239  ALA239     -0.2864
     33  CB       -14.7080  -14.4000  -22.9310 C.3   239  ALA239      0.0319
     34  N        -15.4450   -8.5620  -24.5040 N.3   242  GLY242     -0.1225
     35  CA       -16.8690   -8.5680  -24.7750 C.3   242  GLY242      0.1811
     36  C        -17.6680   -8.3580  -23.4960 C.2   242  GLY242      0.2280
     37  O        -18.6650   -7.6330  -23.5010 O.2   242  GLY242     -0.2866
     38  N        -32.9690  -13.9240  -30.5880 N.3   394  ASP394     -0.1239
     39  CA       -31.5670  -14.2780  -30.7630 C.3   394  ASP394      0.1674
     40  C        -30.9410  -13.5970  -31.9770 C.2   394  ASP394      0.2266
     41  O        -29.7870  -13.1830  -31.9320 O.2   394  ASP394     -0.2867
     42  CB       -31.4060  -15.8030  -30.8880 C.3   394  ASP394      0.1410
     43  CG       -31.9670  -16.5530  -29.6890 C.2   394  ASP394      0.3668
     44  OD1      -33.1980  -16.4880  -29.4560 O.co2 394  ASP394     -0.2456
     45  OD2      -31.1770  -17.2050  -28.9710 O.co2 394  ASP394     -0.2456
     46  N        -30.5520   -9.8670  -31.1430 N.3   397  ASP397     -0.1225
     47  CA       -29.4720   -9.7390  -30.1850 C.3   397  ASP397      0.1805
     48  C        -28.1240   -9.9090  -30.8600 C.2   397  ASP397      0.2597
     49  O        -27.1330   -9.2920  -30.4540 O.2   397  ASP397     -0.2718
     50  CB       -29.6030  -10.7670  -29.0610 C.3   397  ASP397      0.1424
     51  CG       -28.4910  -10.6330  -28.0340 C.2   397  ASP397      0.3668
     52  OD1      -28.3820   -9.5530  -27.4080 O.co2 397  ASP397     -0.2456
     53  OD2      -27.7130  -11.5920  -27.8860 O.co2 397  ASP397     -0.2456
     54  N        -28.0790  -10.7570  -31.8780 N.am  398  PHE398     -0.1976
     55  CA       -26.8380  -10.9370  -32.6150 C.3   398  PHE398      0.1639
     56  C        -26.4620   -9.7550  -33.5120 C.2   398  PHE398      0.2290
     57  O        -25.4150   -9.1220  -33.2900 O.2   398  PHE398     -0.2864
     58  CB       -26.8440  -12.2100  -33.4450 C.3   398  PHE398      0.0560
     59  CG       -25.5670  -12.4130  -34.1970 C.ar  398  PHE398     -0.0200
     60  CD1      -24.4490  -12.9370  -33.5550 C.ar  398  PHE398     -0.0042
     61  CD2      -25.4660  -12.0470  -35.5210 C.ar  398  PHE398     -0.0042
     62  CE1      -23.2600  -13.1120  -34.2340 C.ar  398  PHE398     -0.0003
     63  CE2      -24.2820  -12.2250  -36.2060 C.ar  398  PHE398     -0.0003
     64  CZ       -23.1760  -12.7600  -35.5590 C.ar  398  PHE398     -0.0000
     65  N        -25.0240   -7.3650  -30.8330 N.3   402  THR402     -0.1203
     66  CA       -23.6950   -7.9520  -30.6380 C.3   402  THR402      0.1994
     67  C        -22.6940   -7.4830  -31.6990 C.2   402  THR402      0.2617
     68  O        -21.8260   -6.6400  -31.4230 O.2   402  THR402     -0.2717
     69  CB       -23.7880   -9.5000  -30.5710 C.3   402  THR402      0.1784
     70  OG1      -24.7640   -9.8620  -29.5880 O.3   402  THR402     -0.2211
     71  CG2      -22.4500  -10.1200  -30.1740 C.3   402  THR402      0.0376
     72  N        -22.8140   -8.0340  -32.9030 N.am  403  ILE403     -0.1979
     73  CA       -22.0610   -7.5660  -34.0590 C.3   403  ILE403      0.1595
     74  C        -22.2010   -6.0640  -34.1720 C.2   403  ILE403      0.2287
     75  O        -21.2080   -5.3280  -34.2350 O.2   403  ILE403     -0.2864
     76  CB       -22.6460   -8.1420  -35.3540 C.3   403  ILE403      0.0276
     77  CG1      -22.4730   -9.6470  -35.3840 C.3   403  ILE403      0.0022
     78  CG2      -21.9710   -7.5170  -36.5630 C.3   403  ILE403      0.0022
     79  CD1      -21.1230  -10.0710  -35.9140 C.3   403  ILE403      0.0001
     80  N        -20.4430   -3.7830  -31.4010 N.3   406  VAL406     -0.1245
     81  CA       -18.9840   -3.7980  -31.3800 C.3   406  VAL406      0.1561
     82  C        -18.4320   -3.0630  -32.5910 C.2   406  VAL406      0.2260
     83  O        -17.5150   -2.2460  -32.4720 O.2   406  VAL406     -0.2867
     84  CB       -18.3910   -5.2060  -31.2990 C.3   406  VAL406      0.0252
     85  CG1      -16.8900   -5.1440  -31.5910 C.3   406  VAL406      0.0019
     86  CG2      -18.6360   -5.8050  -29.9050 C.3   406  VAL406      0.0019
     87  N        -11.6570   -7.7960  -31.6720 N.3   456  LEU456     -0.1231
     88  CA       -12.9100   -8.3560  -31.1820 C.3   456  LEU456      0.1693
     89  C        -13.8690   -8.4920  -32.3530 C.2   456  LEU456      0.2591
     90  O        -14.5060   -9.5280  -32.5250 O.2   456  LEU456     -0.2718
     91  CB       -13.5160   -7.4810  -30.0730 C.3   456  LEU456      0.0284
     92  CG       -14.8520   -7.9550  -29.4890 C.3   456  LEU456      0.0019
     93  CD1      -14.7040   -9.3440  -28.9130 C.3   456  LEU456      0.0001
     94  CD2      -15.3860   -6.9920  -28.4340 C.3   456  LEU456      0.0001
     95  N        -13.9490   -7.4550  -33.1790 N.am  457  LEU457     -0.1980
     96  CA       -14.8430   -7.5040  -34.3220 C.3   457  LEU457      0.1596
     97  C        -14.3660   -8.6030  -35.2770 C.2   457  LEU457      0.2287
     98  O        -15.1590   -9.4380  -35.6990 O.2   457  LEU457     -0.2864
     99  CB       -14.9140   -6.1520  -35.0360 C.3   457  LEU457      0.0297
    100  CG       -16.2850   -5.7070  -35.5710 C.3   457  LEU457      0.0022
    101  CD1      -16.1370   -4.6610  -36.6710 C.3   457  LEU457      0.0001
    102  CD2      -17.1150   -6.8740  -36.0800 C.3   457  LEU457      0.0001
    103  N        -13.0850  -12.6170  -33.9850 N.3   460  TRP460     -0.1241
    104  CA       -14.3420  -13.1860  -33.5330 C.3   460  TRP460      0.1605
    105  C        -15.3970  -13.3180  -34.6500 C.2   460  TRP460      0.2264
    106  O        -15.9740  -14.3870  -34.8200 O.2   460  TRP460     -0.2867
    107  CB       -14.8720  -12.4000  -32.3310 C.3   460  TRP460      0.0550
    108  CG       -16.2710  -12.7400  -31.9620 C.ar  460  TRP460      0.0003
    109  CD1      -16.6830  -13.6300  -31.0100 C.ar  460  TRP460      0.0946
    110  CD2      -17.4540  -12.1940  -32.5430 C.ar  460  TRP460      0.0152
    111  NE1      -18.0570  -13.6730  -30.9700 N.ar  460  TRP460     -0.2442
    112  CE2      -18.5540  -12.7960  -31.8990 C.ar  460  TRP460      0.0810
    113  CE3      -17.6900  -11.2570  -33.5470 C.ar  460  TRP460      0.0012
    114  CZ2      -19.8730  -12.4860  -32.2300 C.ar  460  TRP460      0.0191
    115  CZ3      -18.9900  -10.9530  -33.8760 C.ar  460  TRP460      0.0001
    116  CH2      -20.0690  -11.5620  -33.2190 C.ar  460  TRP460      0.0015
    117  N        -18.1010  -16.4200  -36.0210 N.3   464  TYR464     -0.1241
    118  CA       -19.5180  -16.3630  -35.6510 C.3   464  TYR464      0.1605
    119  C        -20.4710  -16.2470  -36.8430 C.2   464  TYR464      0.2264
    120  O        -21.3850  -17.0620  -36.9910 O.2   464  TYR464     -0.2867
    121  CB       -19.7740  -15.2290  -34.6480 C.3   464  TYR464      0.0534
    122  CG       -20.1630  -15.7380  -33.2800 C.ar  464  TYR464     -0.0201
    123  CD1      -19.3170  -16.5700  -32.5490 C.ar  464  TYR464     -0.0009
    124  CD2      -21.3820  -15.3840  -32.7110 C.ar  464  TYR464     -0.0009
    125  CE1      -19.6910  -17.0670  -31.2920 C.ar  464  TYR464      0.0417
    126  CE2      -21.7730  -15.8630  -31.4650 C.ar  464  TYR464      0.0417
    127  CZ       -20.9120  -16.7070  -30.7670 C.ar  464  TYR464      0.1957
    128  OH       -21.3490  -17.1500  -29.5340 O.3   464  TYR464     -0.2866
    129  N        -24.0670  -18.3680  -38.1780 N.3   468  ILE468     -0.1245
    130  CA       -25.3740  -17.7130  -38.1810 C.3   468  ILE468      0.1561
    131  C        -25.9670  -17.6290  -39.5980 C.2   468  ILE468      0.2260
    132  O        -27.1810  -17.7390  -39.7810 O.2   468  ILE468     -0.2867
    133  CB       -25.3090  -16.2920  -37.5640 C.3   468  ILE468      0.0252
    134  CG1      -24.6970  -16.3290  -36.1600 C.3   468  ILE468      0.0019
    135  CG2      -26.6980  -15.6580  -37.5270 C.3   468  ILE468      0.0019
    136  CD1      -25.7150  -16.4310  -35.0320 C.3   468  ILE468      0.0001
@<TRIPOS>BOND
     1   132   131    2
     2   131   130    1
     3   130   129    1
     4   130   133    1
     5   133   135    1
     6   133   134    1
     7   120   119    2
     8   119   118    1
     9   101   100    1
    10    78    76    1
    11    63    64   ar
    12    63    61   ar
    13   134   136    1
    14   102   100    1
    15   117   118    1
    16    79    77    1
    17    98    97    2
    18   118   121    1
    19   100    99    1
    20    64    62   ar
    21    61    59   ar
    22    77    76    1
    23    76    73    1
    24    97    96    1
    25    99    96    1
    26   106   105    2
    27   105   104    1
    28   121   122    1
    29    96    95    1
    30    75    74    2
    31    62    60   ar
    32    59    60   ar
    33    59    58    1
    34    74    73    1
    35    73    72    1
    36   103   104    1
    37   115   113   ar
    38   115   116   ar
    39   113   110   ar
    40   104   107    1
    41    56    57    2
    42    56    55    1
    43    58    55    1
    44   122   124   ar
    45   122   123   ar
    46   116   114   ar
    47    95    89   am
    48    72    67   am
    49   124   126   ar
    50    55    54    1
    51    82    83    2
    52    82    81    1
    53   123   125   ar
    54   110   108   ar
    55   110   112   ar
    56    90    89    2
    57    89    88    1
    58   107   108    1
    59   114   112   ar
    60    40    41    2
    61    40    39    1
    62   108   109   ar
    63   112   111   ar
    64    54    48   am
    65    67    68    2
    66    67    66    1
    67    87    88    1
    68    85    84    1
    69   126   127   ar
    70    80    81    1
    71    81    84    1
    72    84    86    1
    73   125   127   ar
    74    88    91    1
    75    46    47    1
    76   109   111   ar
    77    42    39    1
    78    42    43    1
    79    48    49    2
    80    48    47    1
    81    65    66    1
    82   127   128    1
    83    39    38    1
    84    66    69    1
    85    69    71    1
    86    69    70    1
    87    47    50    1
    88    91    92    1
    89    43    44   ar
    90    43    45   ar
    91    92    93    1
    92    92    94    1
    93    50    51    1
    94    26    28    1
    95    26    25    1
    96    51    53   ar
    97    51    52   ar
    98    27    25    1
    99    25    22    1
   100    22    21    1
   101    22    23    1
   102    23    24    2
   103    23    29   am
   104    35    34    1
   105    35    36    1
   106    29    30    1
   107    11     9    1
   108    30    33    1
   109    30    31    1
   110    37    36    2
   111    31    32    2
   112     9     8    2
   113     9    10    1
   114     8     7    1
   115    19    18    2
   116    20    18   am
   117     7     6    1
   118    18    17    1
   119     6     5    1
   120    17    16    1
   121    16    13    1
   122     5     2    1
   123    13    14    1
   124    13    12    1
   125    15    14    2
   126     2     3    1
   127     2     1    1
   128     4     3    2
