@<TRIPOS>MOLECULE
tmp/3f3cA00.pdb
 122 115 0 0 0
SMALL
GASTEIGER

@<TRIPOS>ATOM
      1  N         28.5540   37.5760   15.5190 N.3    17  ASN17      -0.1225
      2  CA        28.3730   37.2970   16.9340 C.3    17  ASN17       0.1785
      3  C         27.5220   36.0270   17.0520 C.2    17  ASN17       0.2597
      4  O         27.9410   35.0470   17.6410 O.2    17  ASN17      -0.2718
      5  CB        27.7210   38.5110   17.6280 C.3    17  ASN17       0.1169
      6  CG        27.5800   38.3450   19.1360 C.2    17  ASN17       0.2627
      7  OD1       27.4650   37.2300   19.6480 O.2    17  ASN17      -0.2716
      8  ND2       27.5770   39.4700   19.8570 N.am   17  ASN17      -0.0877
      9  N         26.3400   36.0530   16.4510 N.am   18  ALA18      -0.1979
     10  CA        25.3810   34.9570   16.5590 C.3    18  ALA18       0.1597
     11  C         25.7470   33.6950   15.7680 C.2    18  ALA18       0.2287
     12  O         25.6960   32.5840   16.3150 O.2    18  ALA18      -0.2864
     13  CB        23.9800   35.4440   16.1690 C.3    18  ALA18       0.0319
     14  N         27.7380   30.8950   14.5760 N.3    20  GLY20      -0.1210
     15  CA        28.9660   30.2800   15.0640 C.3    20  GLY20       0.1956
     16  C         28.9690   28.7700   15.1090 C.2    20  GLY20       0.2612
     17  O         28.2710   28.0990   14.3430 O.2    20  GLY20      -0.2717
     18  N         29.7740   28.2340   16.0150 N.am   21  LEU21      -0.1965
     19  CA        29.8440   26.8040   16.2210 C.3    21  LEU21       0.1728
     20  C         28.4720   26.2360   16.5710 C.2    21  LEU21       0.2617
     21  O         28.1930   25.0690   16.3060 O.2    21  LEU21      -0.2715
     22  CB        30.8600   26.4800   17.3190 C.3    21  LEU21       0.0311
     23  CG        32.2810   26.9970   17.0740 C.3    21  LEU21       0.0022
     24  CD1       33.1780   26.6250   18.2390 C.3    21  LEU21       0.0001
     25  CD2       32.8500   26.4540   15.7650 C.3    21  LEU21       0.0001
     26  N         27.6140   27.0660   17.1570 N.am   22  GLY22      -0.1940
     27  CA        26.2610   26.6440   17.5170 C.3    22  GLY22       0.2014
     28  C         25.4030   26.2890   16.3180 C.2    22  GLY22       0.2638
     29  O         24.5410   25.4030   16.3950 O.2    22  GLY22      -0.2714
     30  N         25.6310   26.9790   15.2030 N.am   23  ASN23      -0.1972
     31  CA        24.8640   26.7280   13.9810 C.3    23  ASN23       0.1688
     32  C         25.2580   25.4260   13.2960 C.2    23  ASN23       0.2292
     33  O         24.4080   24.6850   12.8040 O.2    23  ASN23      -0.2864
     34  CB        25.0360   27.8820   12.9830 C.3    23  ASN23       0.1181
     35  CG        24.6900   29.2300   13.5850 C.2    23  ASN23       0.2629
     36  OD1       25.2820   29.6470   14.5830 O.2    23  ASN23      -0.2716
     37  ND2       23.7350   29.9240   12.9790 N.am   23  ASN23      -0.0877
     38  N         29.9700   35.1330   29.8090 N.3    97  PRO97      -0.2116
     39  CA        30.8050   35.1610   28.5960 C.3    97  PRO97       0.1372
     40  C         32.2820   34.8320   28.8440 C.2    97  PRO97       0.2244
     41  O         32.9430   34.2580   27.9780 O.2    97  PRO97      -0.2868
     42  CB        30.6430   36.6060   28.0900 C.3    97  PRO97       0.0268
     43  CG        30.3130   37.4010   29.2980 C.3    97  PRO97       0.0207
     44  CD        29.4490   36.4740   30.1430 C.3    97  PRO97       0.0892
     45  N         32.3650   30.9800   29.2010 N.3   100  VAL100     -0.1245
     46  CA        32.1210   30.3780   27.9060 C.3   100  VAL100      0.1561
     47  C         33.3470   30.5610   27.0060 C.2   100  VAL100      0.2260
     48  O         33.7380   29.6350   26.2910 O.2   100  VAL100     -0.2867
     49  CB        30.8200   30.8900   27.2550 C.3   100  VAL100      0.0252
     50  CG1       30.6550   30.3120   25.8500 C.3   100  VAL100      0.0019
     51  CG2       29.6290   30.4990   28.1070 C.3   100  VAL100      0.0019
     52  N         35.1160   27.9060   24.6030 N.3   104  TYR104     -0.1241
     53  CA        34.7350   28.1560   23.2170 C.3   104  TYR104      0.1605
     54  C         35.9580   28.4100   22.3490 C.2   104  TYR104      0.2264
     55  O         36.0540   27.8860   21.2420 O.2   104  TYR104     -0.2867
     56  CB        33.8050   29.3570   23.1440 C.3   104  TYR104      0.0534
     57  CG        33.0160   29.5000   21.8650 C.ar  104  TYR104     -0.0201
     58  CD1       31.7380   28.9480   21.7480 C.ar  104  TYR104     -0.0009
     59  CD2       33.5260   30.2050   20.7850 C.ar  104  TYR104     -0.0009
     60  CE1       31.0080   29.0880   20.5970 C.ar  104  TYR104      0.0417
     61  CE2       32.7890   30.3480   19.6080 C.ar  104  TYR104      0.0417
     62  CZ        31.5380   29.7900   19.5210 C.ar  104  TYR104      0.1957
     63  OH        30.7940   29.9290   18.3600 O.3   104  TYR104     -0.2866
     64  N         21.5630   29.8380   23.0170 N.3   247  PHE247     -0.1227
     65  CA        22.9540   29.6750   22.6150 C.3   247  PHE247      0.1736
     66  C         23.1630   30.2380   21.2180 C.2   247  PHE247      0.2596
     67  O         24.1490   30.9330   20.9660 O.2   247  PHE247     -0.2718
     68  CB        23.3840   28.2010   22.6610 C.3   247  PHE247      0.0547
     69  CG        24.8760   28.0060   22.5720 C.ar  247  PHE247     -0.0202
     70  CD1       25.6390   27.8770   23.7240 C.ar  247  PHE247     -0.0042
     71  CD2       25.5180   27.9570   21.3310 C.ar  247  PHE247     -0.0042
     72  CE1       27.0140   27.7090   23.6490 C.ar  247  PHE247     -0.0003
     73  CE2       26.8850   27.7840   21.2450 C.ar  247  PHE247     -0.0003
     74  CZ        27.6420   27.6590   22.4020 C.ar  247  PHE247     -0.0000
     75  N         22.2260   29.9480   20.3200 N.am  248  THR248     -0.1953
     76  CA        22.4070   30.3070   18.9150 C.3   248  THR248      0.1897
     77  C         22.3210   31.8080   18.6700 C.2   248  THR248      0.2313
     78  O         23.1240   32.3590   17.9150 O.2   248  THR248     -0.2863
     79  CB        21.4640   29.5210   17.9390 C.3   248  THR248      0.1794
     80  OG1       21.9740   29.6380   16.6040 O.3   248  THR248     -0.2208
     81  CG2       20.0410   30.0410   17.9700 C.3   248  THR248      0.0378
     82  N         23.0470   34.0630   20.7340 N.3   250  SER250     -0.1217
     83  CA        23.9910   34.7260   21.6590 C.3   250  SER250      0.1889
     84  C         23.3070   35.4450   22.8320 C.2   250  SER250      0.2288
     85  O         23.8570   36.3970   23.3870 O.2   250  SER250     -0.2866
     86  CB        24.8770   35.7310   20.9140 C.3   250  SER250      0.2089
     87  OG        25.6910   35.1020   19.9330 O.3   250  SER250     -0.2183
     88  N         24.2340   36.0960   27.4000 N.3   253  PHE253     -0.1241
     89  CA        25.6820   36.0610   27.5950 C.3   253  PHE253      0.1605
     90  C         26.2380   37.4630   27.8440 C.2   253  PHE253      0.2264
     91  O         27.4510   37.6360   27.9430 O.2   253  PHE253     -0.2867
     92  CB        26.4160   35.5170   26.3570 C.3   253  PHE253      0.0534
     93  CG        26.1000   34.0880   25.9890 C.ar  253  PHE253     -0.0203
     94  CD1       26.9680   33.0600   26.3380 C.ar  253  PHE253     -0.0042
     95  CD2       24.9660   33.7750   25.2500 C.ar  253  PHE253     -0.0042
     96  CE1       26.6990   31.7460   25.9820 C.ar  253  PHE253     -0.0003
     97  CE2       24.6890   32.4530   24.8910 C.ar  253  PHE253     -0.0003
     98  CZ        25.5500   31.4410   25.2540 C.ar  253  PHE253     -0.0000
     99  N         26.5470   39.6430   25.7690 N.3   255  ALA255     -0.1245
    100  CA        27.4040   39.9530   24.6170 C.3   255  ALA255      0.1562
    101  C         26.7030   40.7150   23.4940 C.2   255  ALA255      0.2260
    102  O         27.3290   41.5060   22.8020 O.2   255  ALA255     -0.2867
    103  CB        28.0330   38.6790   24.0740 C.3   255  ALA255      0.0290
    104  N         32.6300   34.7250   16.4170 N.3   349  SER349     -0.1217
    105  CA        31.8620   34.6210   17.6580 C.3   349  SER349      0.1889
    106  C         32.6910   34.8240   18.9010 C.2   349  SER349      0.2288
    107  O         32.2050   35.3930   19.8710 O.2   349  SER349     -0.2866
    108  CB        31.1550   33.2700   17.7430 C.3   349  SER349      0.2089
    109  OG        30.0370   33.2470   16.8760 O.3   349  SER349     -0.2183
    110  N         33.3080   38.4010   19.8520 N.3   352  ALA352     -0.1231
    111  CA        32.0990   38.8740   20.5170 C.3   352  ALA352      0.1694
    112  C         31.9940   38.4540   21.9850 C.2   352  ALA352      0.2591
    113  O         31.5630   39.2450   22.8370 O.2   352  ALA352     -0.2718
    114  CB        30.8800   38.3700   19.7680 C.3   352  ALA352      0.0304
    115  N         32.3970   37.2220   22.2880 N.am  353  ILE353     -0.1980
    116  CA        32.2820   36.6760   23.6460 C.3   353  ILE353      0.1595
    117  C         33.2920   37.2860   24.6000 C.2   353  ILE353      0.2287
    118  O         33.0650   37.3350   25.8090 O.2   353  ILE353     -0.2864
    119  CB        32.4490   35.1220   23.7000 C.3   353  ILE353      0.0276
    120  CG1       33.9170   34.7100   23.5670 C.3   353  ILE353      0.0022
    121  CG2       31.6160   34.4360   22.6470 C.3   353  ILE353      0.0022
    122  CD1       34.1050   33.2340   23.2880 C.3   353  ILE353      0.0001
@<TRIPOS>BOND
     1    33    32    2
     2    37    35   am
     3    34    35    1
     4    34    31    1
     5    32    31    1
     6    35    36    2
     7    31    30    1
     8    17    16    2
     9    14    15    1
    10    15    16    1
    11    16    18   am
    12    30    28   am
    13     1     2    1
    14    25    23    1
    15    11    12    2
    16    11    10    1
    17    18    19    1
    18    13    10    1
    19    19    20    1
    20    19    22    1
    21    21    20    2
    22    28    29    2
    23    28    27    1
    24   104   105    1
    25     9    10    1
    26     9     3   am
    27    20    26   am
    28    80    79    1
    29   109   108    1
    30     2     3    1
    31     2     5    1
    32     3     4    2
    33    23    22    1
    34    23    24    1
    35    26    27    1
    36     5     6    1
    37   105   108    1
    38   105   106    1
    39    78    77    2
    40    79    81    1
    41    79    76    1
    42    63    62    1
    43    77    76    1
    44   106   107    2
    45    76    75    1
    46     6     7    2
    47     6     8   am
    48    62    61   ar
    49    62    60   ar
    50    61    59   ar
    51   114   111    1
    52   110   111    1
    53    87    86    1
    54    75    66   am
    55   111   112    1
    56    60    58   ar
    57    82    83    1
    58    59    57   ar
    59    86    83    1
    60    67    66    2
    61    66    65    1
    62    55    54    2
    63    73    71   ar
    64    73    74   ar
    65    71    69   ar
    66    83    84    1
    67    58    57   ar
    68    57    56    1
    69   112   115   am
    70   112   113    2
    71   115   116    1
    72    54    53    1
    73    74    72   ar
    74    69    68    1
    75    69    70   ar
    76    65    68    1
    77    65    64    1
    78   121   119    1
    79   102   101    2
    80    84    85    2
    81    56    53    1
    82    53    52    1
    83   122   120    1
    84   101   100    1
    85   120   119    1
    86   116   119    1
    87   116   117    1
    88    72    70   ar
    89   103   100    1
    90   117   118    2
    91   100    99    1
    92    97    95   ar
    93    97    98   ar
    94    95    93   ar
    95    98    96   ar
    96    50    49    1
    97    96    94   ar
    98    93    94   ar
    99    93    92    1
   100    48    47    2
   101    92    89    1
   102    47    46    1
   103    49    46    1
   104    49    51    1
   105    88    89    1
   106    89    90    1
   107    90    91    2
   108    46    45    1
   109    41    40    2
   110    42    39    1
   111    42    43    1
   112    39    40    1
   113    39    38    1
   114    43    44    1
   115    38    44    1
