@<TRIPOS>MOLECULE
tmp/3f3dA05.pdb
 115 108 0 0 0
SMALL
GASTEIGER

@<TRIPOS>ATOM
      1  N         27.3010   37.5810   15.2200 N.3    17  ASN17      -0.1225
      2  CA        27.0900   37.3140   16.6330 C.3    17  ASN17       0.1785
      3  C         26.2340   36.0450   16.8240 C.2    17  ASN17       0.2597
      4  O         26.6500   35.0970   17.5060 O.2    17  ASN17      -0.2718
      5  CB        26.4190   38.5510   17.2560 C.3    17  ASN17       0.1169
      6  CG        26.2670   38.4720   18.7670 C.2    17  ASN17       0.2627
      7  OD1       26.0420   37.4080   19.3430 O.2    17  ASN17      -0.2716
      8  ND2       26.3650   39.6250   19.4160 N.am   17  ASN17      -0.0877
      9  N         25.0540   36.0310   16.2060 N.am   18  ALA18      -0.1979
     10  CA        24.1220   34.9090   16.3260 C.3    18  ALA18       0.1597
     11  C         24.5240   33.6650   15.5170 C.2    18  ALA18       0.2287
     12  O         24.4800   32.5560   16.0510 O.2    18  ALA18      -0.2864
     13  CB        22.7000   35.3450   15.9790 C.3    18  ALA18       0.0319
     14  N         26.5580   30.9600   14.4620 N.3    20  GLY20      -0.1210
     15  CA        27.7970   30.3200   14.8940 C.3    20  GLY20       0.1956
     16  C         27.7640   28.8110   14.8730 C.2    20  GLY20       0.2612
     17  O         27.0960   28.2040   14.0330 O.2    20  GLY20      -0.2717
     18  N         28.4950   28.2120   15.8080 N.am   21  LEU21      -0.1965
     19  CA        28.5430   26.7600   15.9730 C.3    21  LEU21       0.1728
     20  C         27.1930   26.1960   16.4320 C.2    21  LEU21       0.2617
     21  O         26.9540   24.9990   16.3280 O.2    21  LEU21      -0.2715
     22  CB        29.6530   26.3600   16.9590 C.3    21  LEU21       0.0311
     23  CG        31.0750   26.9170   16.7750 C.3    21  LEU21       0.0022
     24  CD1       31.9260   26.6650   18.0180 C.3    21  LEU21       0.0001
     25  CD2       31.7630   26.3490   15.5290 C.3    21  LEU21       0.0001
     26  N         26.3140   27.0580   16.9310 N.am   22  GLY22      -0.1940
     27  CA        24.9600   26.6460   17.3130 C.3    22  GLY22       0.2014
     28  C         24.1020   26.2610   16.1190 C.2    22  GLY22       0.2638
     29  O         23.2740   25.3530   16.2080 O.2    22  GLY22      -0.2714
     30  N         24.3230   26.9490   14.9990 N.am   23  ASN23      -0.1972
     31  CA        23.5950   26.7030   13.7520 C.3    23  ASN23       0.1688
     32  C         23.9880   25.4080   13.0600 C.2    23  ASN23       0.2292
     33  O         23.1360   24.6980   12.5200 O.2    23  ASN23      -0.2864
     34  CB        23.8070   27.8550   12.7650 C.3    23  ASN23       0.1181
     35  CG        23.3430   29.1800   13.3080 C.2    23  ASN23       0.2629
     36  OD1       23.8640   29.6650   14.3140 O.2    23  ASN23      -0.2716
     37  ND2       22.3630   29.7880   12.6420 N.am   23  ASN23      -0.0877
     38  N         31.1750   31.0960   28.8530 N.3   100  VAL100     -0.1245
     39  CA        30.9280   30.5690   27.5100 C.3   100  VAL100      0.1561
     40  C         32.1770   30.6770   26.6220 C.2   100  VAL100      0.2260
     41  O         32.5410   29.7030   25.9610 O.2   100  VAL100     -0.2867
     42  CB        29.6680   31.1960   26.8480 C.3   100  VAL100      0.0252
     43  CG1       29.5600   30.8100   25.3800 C.3   100  VAL100      0.0019
     44  CG2       28.4150   30.7510   27.6000 C.3   100  VAL100      0.0019
     45  N         33.8850   27.8660   24.3830 N.3   104  TYR104     -0.1241
     46  CA        33.4750   28.1110   22.9970 C.3   104  TYR104      0.1605
     47  C         34.6670   28.3910   22.0850 C.2   104  TYR104      0.2264
     48  O         34.7330   27.8550   20.9830 O.2   104  TYR104     -0.2867
     49  CB        32.4750   29.2720   22.9300 C.3   104  TYR104      0.0534
     50  CG        31.7430   29.4250   21.6180 C.ar  104  TYR104     -0.0201
     51  CD1       30.4670   28.8790   21.4450 C.ar  104  TYR104     -0.0009
     52  CD2       32.3100   30.1360   20.5570 C.ar  104  TYR104     -0.0009
     53  CE1       29.7800   29.0240   20.2390 C.ar  104  TYR104      0.0417
     54  CE2       31.6340   30.2940   19.3540 C.ar  104  TYR104      0.0417
     55  CZ        30.3720   29.7330   19.2000 C.ar  104  TYR104      0.1957
     56  OH        29.6960   29.8880   18.0130 O.3   104  TYR104     -0.2866
     57  N         20.4240   29.8300   22.8770 N.3   247  PHE247     -0.1227
     58  CA        21.7840   29.6350   22.4080 C.3   247  PHE247      0.1736
     59  C         21.9890   30.2010   21.0060 C.2   247  PHE247      0.2596
     60  O         22.9710   30.9080   20.7530 O.2   247  PHE247     -0.2718
     61  CB        22.1710   28.1500   22.4360 C.3   247  PHE247      0.0547
     62  CG        23.6470   27.9100   22.2560 C.ar  247  PHE247     -0.0202
     63  CD1       24.4850   27.8030   23.3630 C.ar  247  PHE247     -0.0042
     64  CD2       24.2030   27.8080   20.9790 C.ar  247  PHE247     -0.0042
     65  CE1       25.8530   27.5900   23.2070 C.ar  247  PHE247     -0.0003
     66  CE2       25.5750   27.5940   20.8080 C.ar  247  PHE247     -0.0003
     67  CZ        26.4010   27.4830   21.9210 C.ar  247  PHE247     -0.0000
     68  N         21.0640   29.8900   20.1020 N.am  248  THR248     -0.1953
     69  CA        21.2440   30.2540   18.6990 C.3   248  THR248      0.1897
     70  C         21.1710   31.7550   18.4040 C.2   248  THR248      0.2313
     71  O         21.8840   32.2480   17.5180 O.2   248  THR248     -0.2863
     72  CB        20.3300   29.4520   17.7300 C.3   248  THR248      0.1794
     73  OG1       20.9030   29.4990   16.4180 O.3   248  THR248     -0.2208
     74  CG2       18.9080   30.0130   17.6780 C.3   248  THR248      0.0378
     75  N         21.9100   34.1060   20.6210 N.3   250  SER250     -0.1217
     76  CA        22.7840   34.7690   21.5970 C.3   250  SER250      0.1889
     77  C         22.0150   35.5210   22.6830 C.2   250  SER250      0.2288
     78  O         22.4820   36.5470   23.1730 O.2   250  SER250     -0.2866
     79  CB        23.7740   35.7170   20.9120 C.3   250  SER250      0.2089
     80  OG        24.6040   35.0230   20.0100 O.3   250  SER250     -0.2183
     81  N         23.0650   36.0120   26.9490 N.3   253  PHE253     -0.1241
     82  CA        24.5270   35.9400   26.9410 C.3   253  PHE253      0.1605
     83  C         25.1530   37.3070   27.2260 C.2   253  PHE253      0.2264
     84  O         26.3720   37.4110   27.3740 O.2   253  PHE253     -0.2867
     85  CB        25.0420   35.4620   25.5750 C.3   253  PHE253      0.0534
     86  CG        24.8980   33.9890   25.3310 C.ar  253  PHE253     -0.0203
     87  CD1       25.9790   33.1300   25.5250 C.ar  253  PHE253     -0.0042
     88  CD2       23.7000   33.4580   24.8670 C.ar  253  PHE253     -0.0042
     89  CE1       25.8570   31.7590   25.2790 C.ar  253  PHE253     -0.0003
     90  CE2       23.5680   32.0920   24.6200 C.ar  253  PHE253     -0.0003
     91  CZ        24.6510   31.2400   24.8310 C.ar  253  PHE253     -0.0000
     92  N         25.5140   39.5790   25.1090 N.3   255  ALA255     -0.1245
     93  CA        26.3190   39.8870   23.9270 C.3   255  ALA255      0.1562
     94  C         25.5660   40.7410   22.9120 C.2   255  ALA255      0.2260
     95  O         26.1610   41.6030   22.2750 O.2   255  ALA255     -0.2867
     96  CB        26.8190   38.5990   23.2700 C.3   255  ALA255      0.0290
     97  N         31.2680   34.7130   16.4150 N.3   349  SER349     -0.1217
     98  CA        30.5170   34.5950   17.6750 C.3   349  SER349      0.1889
     99  C         31.3770   34.7600   18.9140 C.2   349  SER349      0.2288
    100  O         30.8940   35.2380   19.9410 O.2   349  SER349     -0.2866
    101  CB        29.7680   33.2670   17.7540 C.3   349  SER349      0.2089
    102  OG        28.7030   33.2440   16.8200 O.3   349  SER349     -0.2183
    103  N         32.0900   38.2560   19.7720 N.3   352  ALA352     -0.1231
    104  CA        30.8910   38.7960   20.3970 C.3   352  ALA352      0.1694
    105  C         30.7930   38.4840   21.8990 C.2   352  ALA352      0.2591
    106  O         30.3620   39.3420   22.6740 O.2   352  ALA352     -0.2718
    107  CB        29.6460   38.3180   19.6600 C.3   352  ALA352      0.0304
    108  N         31.1810   37.2740   22.3140 N.am  353  ILE353     -0.1980
    109  CA        31.0710   36.8930   23.7380 C.3   353  ILE353      0.1595
    110  C         32.2290   37.3490   24.6170 C.2   353  ILE353      0.2287
    111  O         32.1640   37.2210   25.8410 O.2   353  ILE353     -0.2864
    112  CB        30.8440   35.3720   23.9750 C.3   353  ILE353      0.0276
    113  CG1       31.7550   34.5370   23.0750 C.3   353  ILE353      0.0022
    114  CG2       29.3730   35.0360   23.8490 C.3   353  ILE353      0.0022
    115  CD1       31.7890   33.0660   23.4220 C.3   353  ILE353      0.0001
@<TRIPOS>BOND
     1    33    32    2
     2    37    35   am
     3    34    35    1
     4    34    31    1
     5    32    31    1
     6    35    36    2
     7    31    30    1
     8    17    16    2
     9    14    15    1
    10    16    15    1
    11    16    18   am
    12    30    28   am
    13     1     2    1
    14    11    12    2
    15    11    10    1
    16    25    23    1
    17    18    19    1
    18    19    20    1
    19    19    22    1
    20    13    10    1
    21    28    29    2
    22    28    27    1
    23     9    10    1
    24     9     3   am
    25    21    20    2
    26    97    98    1
    27    73    72    1
    28    20    26   am
    29     2     3    1
    30     2     5    1
    31    23    22    1
    32    23    24    1
    33   102   101    1
    34     3     4    2
    35    26    27    1
    36     5     6    1
    37    71    70    2
    38    98   101    1
    39    98    99    1
    40    74    72    1
    41    72    69    1
    42    56    55    1
    43    70    69    1
    44    69    68    1
    45     6     7    2
    46     6     8   am
    47    99   100    2
    48    55    54   ar
    49    55    53   ar
    50    54    52   ar
    51   107   104    1
    52   103   104    1
    53    80    79    1
    54    68    59   am
    55    53    51   ar
    56   104   105    1
    57    52    50   ar
    58    75    76    1
    59    60    59    2
    60    66    64   ar
    61    66    67   ar
    62    79    76    1
    63    64    62   ar
    64    48    47    2
    65    59    58    1
    66    51    50   ar
    67    76    77    1
    68    50    49    1
    69   105   108   am
    70   105   106    2
    71    67    65   ar
    72    47    46    1
    73    62    61    1
    74    62    63   ar
    75    95    94    2
    76   108   109    1
    77    58    61    1
    78    58    57    1
    79    77    78    2
    80    94    93    1
    81    49    46    1
    82    46    45    1
    83   113   115    1
    84   113   112    1
    85    65    63   ar
    86    96    93    1
    87   109   112    1
    88   109   110    1
    89   114   112    1
    90    93    92    1
    91   110   111    2
    92    90    91   ar
    93    90    88   ar
    94    91    89   ar
    95    88    86   ar
    96    89    87   ar
    97    86    87   ar
    98    86    85    1
    99    43    42    1
   100    85    82    1
   101    41    40    2
   102    40    39    1
   103    42    39    1
   104    42    44    1
   105    82    81    1
   106    82    83    1
   107    83    84    2
   108    39    38    1
