@<TRIPOS>MOLECULE
tmp/3f3eA07.pdb
 107 100 0 0 0
SMALL
GASTEIGER

@<TRIPOS>ATOM
      1  N         26.9530   22.9920   14.3290 N.3    25  LEU25      -0.1231
      2  CA        27.2500   21.8450   15.1840 C.3    25  LEU25       0.1693
      3  C         26.1150   21.5420   16.1470 C.2    25  LEU25       0.2591
      4  O         25.7210   20.3820   16.2700 O.2    25  LEU25      -0.2718
      5  CB        28.5170   22.0600   16.0320 C.3    25  LEU25       0.0284
      6  CG        29.8420   22.2090   15.2580 C.3    25  LEU25       0.0019
      7  CD1       30.9870   22.4740   16.2260 C.3    25  LEU25       0.0001
      8  CD2       30.1130   20.9290   14.3880 C.3    25  LEU25       0.0001
      9  N         25.6090   22.5760   16.8300 N.am   26  ARG26      -0.1980
     10  CA        24.6550   22.3400   17.9200 C.3    26  ARG26       0.1597
     11  C         23.2570   22.0270   17.3590 C.2    26  ARG26       0.2287
     12  O         22.6370   21.0620   17.7530 O.2    26  ARG26      -0.2864
     13  CB        24.6290   23.5560   18.8730 C.3    26  ARG26       0.0334
     14  CG        24.0610   23.2150   20.2950 C.3    26  ARG26       0.0492
     15  CD        23.9170   24.4780   21.1590 C.3    26  ARG26       0.2205
     16  NE        23.5860   24.1850   22.5750 N.pl3  26  ARG26      -0.0865
     17  CZ        22.3730   23.8690   23.0350 C.cat  26  ARG26       0.5346
     18  NH1       21.3180   23.8130   22.2170 N.pl3  26  ARG26       0.1354
     19  NH2       22.2170   23.6040   24.3310 N.pl3  26  ARG26       0.1354
     20  N         22.5340   18.3780   15.9980 N.3    29  VAL29      -0.1231
     21  CA        22.4610   17.3920   17.0880 C.3    29  VAL29       0.1692
     22  C         21.1510   17.5220   17.8780 C.2    29  VAL29       0.2591
     23  O         20.4900   16.5260   18.1820 O.2    29  VAL29      -0.2718
     24  CB        23.6550   17.5410   18.0570 C.3    29  VAL29       0.0266
     25  CG1       23.4070   16.7680   19.3570 C.3    29  VAL29       0.0020
     26  CG2       24.9480   17.0410   17.3780 C.3    29  VAL29       0.0020
     27  N         20.7760   18.7500   18.2220 N.am   30  GLN30      -0.1979
     28  CA        19.5520   18.9480   18.9990 C.3    30  GLN30       0.1601
     29  C         18.3510   18.5010   18.1880 C.2    30  GLN30       0.2287
     30  O         17.4380   17.8370   18.7080 O.2    30  GLN30      -0.2864
     31  CB        19.3940   20.4180   19.3710 C.3    30  GLN30       0.0394
     32  CG        20.5310   20.9630   20.2010 C.3    30  GLN30       0.0908
     33  CD        20.6600   20.2680   21.5070 C.2    30  GLN30       0.2608
     34  OE1       19.6660   20.0370   22.1800 O.2    30  GLN30      -0.2717
     35  NE2       21.8790   19.9060   21.8760 N.am   30  GLN30      -0.0878
     36  N         18.4900   14.6090   17.9260 N.3    33  GLU33      -0.1245
     37  CA        18.2590   13.9730   19.2190 C.3    33  GLU33       0.1567
     38  C         16.7970   14.0010   19.6320 C.2    33  GLU33       0.2260
     39  O         16.3830   13.2300   20.5000 O.2    33  GLU33      -0.2867
     40  CB        19.0490   14.6750   20.3270 C.3    33  GLU33       0.0388
     41  CG        20.4500   14.1570   20.5280 C.3    33  GLU33       0.1160
     42  CD        21.1560   14.8370   21.6820 C.2    33  GLU33       0.3649
     43  OE1       20.7040   15.9210   22.1370 O.co2  33  GLU33      -0.2457
     44  OE2       22.1750   14.2780   22.1330 O.co2  33  GLU33      -0.2457
     45  N         20.8040   29.7740   22.7150 N.3   247  PHE247     -0.1241
     46  CA        22.1990   29.6210   22.3420 C.3   247  PHE247      0.1605
     47  C         22.4090   30.2170   20.9420 C.2   247  PHE247      0.2264
     48  O         23.3140   31.0050   20.6970 O.2   247  PHE247     -0.2867
     49  CB        22.5880   28.1320   22.3070 C.3   247  PHE247      0.0534
     50  CG        24.0730   27.9290   22.2140 C.ar  247  PHE247     -0.0203
     51  CD1       24.8390   27.7800   23.3860 C.ar  247  PHE247     -0.0042
     52  CD2       24.7120   27.9260   20.9770 C.ar  247  PHE247     -0.0042
     53  CE1       26.2200   27.6400   23.3110 C.ar  247  PHE247     -0.0003
     54  CE2       26.0910   27.7690   20.8850 C.ar  247  PHE247     -0.0003
     55  CZ        26.8500   27.6210   22.0470 C.ar  247  PHE247     -0.0000
     56  N         23.0860   11.1810   19.0060 N.3   310  LYS310     -0.1245
     57  CA        22.9420   10.9990   20.4440 C.3   310  LYS310      0.1561
     58  C         24.2800   10.6220   21.0730 C.2   310  LYS310      0.2260
     59  O         24.4560   10.7110   22.2850 O.2   310  LYS310     -0.2867
     60  CB        21.8900    9.9110   20.7130 C.3   310  LYS310      0.0271
     61  CG        20.4680   10.3420   20.3650 C.3   310  LYS310      0.0035
     62  CD        19.4560    9.2310   20.6570 C.3   310  LYS310      0.0206
     63  CE        18.0220    9.7140   20.4790 C.3   310  LYS310      0.1093
     64  NZ        17.6540   10.7290   21.4990 N.3   310  LYS310     -0.1314
     65  N         27.4160   11.7960   20.9750 N.3   312  GLY312     -0.1210
     66  CA        28.2450   12.8260   21.5680 C.3   312  GLY312      0.1956
     67  C         27.8940   14.1480   20.9250 C.2   312  GLY312      0.2611
     68  O         27.2100   14.1860   19.9030 O.2   312  GLY312     -0.2717
     69  N         28.3400   15.2460   21.5140 N.am  313  ALA313     -0.1979
     70  CA        28.0530   16.5370   20.9150 C.3   313  ALA313      0.1597
     71  C         28.8370   16.7170   19.6050 C.2   313  ALA313      0.2287
     72  O         28.4200   17.4580   18.7140 O.2   313  ALA313     -0.2864
     73  CB        28.3830   17.6480   21.8790 C.3   313  ALA313      0.0319
     74  N         31.7520   20.3080   29.6040 N.3   395  ASP395     -0.1239
     75  CA        30.3410   20.0070   29.7490 C.3   395  ASP395      0.1674
     76  C         29.7370   20.7780   30.9260 C.2   395  ASP395      0.2266
     77  O         28.5850   21.2450   30.8680 O.2   395  ASP395     -0.2867
     78  CB        30.1180   18.5020   29.9730 C.3   395  ASP395      0.1410
     79  CG        30.8130   17.6260   28.9340 C.2   395  ASP395      0.3668
     80  OD1       31.9630   17.9210   28.4890 O.co2 395  ASP395     -0.2456
     81  OD2       30.1900   16.6050   28.5810 O.co2 395  ASP395     -0.2456
     82  N         29.3460   24.4690   30.0870 N.3   398  ASP398     -0.1225
     83  CA        28.2910   24.6690   29.0920 C.3   398  ASP398      0.1805
     84  C         26.9490   24.4990   29.7850 C.2   398  ASP398      0.2597
     85  O         25.9630   25.1340   29.4220 O.2   398  ASP398     -0.2718
     86  CB        28.4370   23.6640   27.9360 C.3   398  ASP398      0.1424
     87  CG        27.2890   23.7280   26.9680 C.2   398  ASP398      0.3668
     88  OD1       27.2150   24.7200   26.2290 O.co2 398  ASP398     -0.2456
     89  OD2       26.4480   22.8070   26.9880 O.co2 398  ASP398     -0.2456
     90  N         26.9090   23.6390   30.7940 N.am  399  PHE399     -0.1976
     91  CA        25.6600   23.4960   31.5450 C.3   399  PHE399      0.1639
     92  C         25.3290   24.7460   32.3730 C.2   399  PHE399      0.2290
     93  O         24.2730   25.3540   32.2130 O.2   399  PHE399     -0.2864
     94  CB        25.6660   22.2620   32.4490 C.3   399  PHE399      0.0560
     95  CG        24.4260   22.1710   33.2940 C.ar  399  PHE399     -0.0200
     96  CD1       23.2130   21.8440   32.7100 C.ar  399  PHE399     -0.0042
     97  CD2       24.4730   22.4610   34.6490 C.ar  399  PHE399     -0.0042
     98  CE1       22.0610   21.7810   33.4680 C.ar  399  PHE399     -0.0003
     99  CE2       23.3230   22.4080   35.4100 C.ar  399  PHE399     -0.0003
    100  CZ        22.1170   22.0630   34.8170 C.ar  399  PHE399     -0.0000
    101  N         23.6940   26.9600   29.4070 N.3   403  THR403     -0.1218
    102  CA        22.3980   26.3020   29.3200 C.3   403  THR403      0.1862
    103  C         21.4400   26.9020   30.3480 C.2   403  THR403      0.2287
    104  O         20.5640   27.6820   29.9980 O.2   403  THR403     -0.2866
    105  CB        22.5430   24.7710   29.4720 C.3   403  THR403      0.1770
    106  OG1       23.4310   24.2880   28.4550 O.3   403  THR403     -0.2211
    107  CG2       21.2060   24.0880   29.2840 C.3   403  THR403      0.0375
@<TRIPOS>BOND
     1     1     2    1
     2     8     6    1
     3     2     5    1
     4     2     3    1
     5     6     5    1
     6     6     7    1
     7    20    21    1
     8     3     4    2
     9     3     9   am
    10     9    10    1
    11    21    22    1
    12    21    24    1
    13    11    12    2
    14    11    10    1
    15    26    24    1
    16    22    23    2
    17    22    27   am
    18    10    13    1
    19    36    37    1
    20    24    25    1
    21    29    30    2
    22    29    28    1
    23    27    28    1
    24    72    71    2
    25    13    14    1
    26    28    31    1
    27    56    57    1
    28    37    38    1
    29    37    40    1
    30    31    32    1
    31    71    70    1
    32    38    39    2
    33    68    67    2
    34    32    33    1
    35    14    15    1
    36    40    41    1
    37    61    62    1
    38    61    60    1
    39    57    60    1
    40    57    58    1
    41    63    62    1
    42    63    64    1
    43    41    42    1
    44    48    47    2
    45    54    52   ar
    46    54    55   ar
    47    70    69    1
    48    70    73    1
    49    67    69   am
    50    67    66    1
    51    47    46    1
    52    65    66    1
    53    52    50   ar
    54    58    59    2
    55    15    16    1
    56    33    35   am
    57    33    34    2
    58    42    44   ar
    59    42    43   ar
    60    55    53   ar
    61    50    49    1
    62    50    51   ar
    63    18    17    1
    64    49    46    1
    65    46    45    1
    66    16    17    2
    67    17    19    1
    68    53    51   ar
    69    88    87   ar
    70    87    89   ar
    71    87    86    1
    72    86    83    1
    73   106   105    1
    74    80    79   ar
    75    81    79   ar
    76    79    78    1
    77    83    84    1
    78    83    82    1
    79   107   105    1
    80   102   101    1
    81   102   105    1
    82   102   103    1
    83    85    84    2
    84    74    75    1
    85    75    78    1
    86    75    76    1
    87    84    90   am
    88   104   103    2
    89    90    91    1
    90    77    76    2
    91    91    92    1
    92    91    94    1
    93    93    92    2
    94    94    95    1
    95    96    95   ar
    96    96    98   ar
    97    95    97   ar
    98    98   100   ar
    99    97    99   ar
   100   100    99   ar
