@<TRIPOS>MOLECULE
tmp/3f3mA00.pdb
 173 165 0 0 0
SMALL
GASTEIGER

@<TRIPOS>ATOM
      1  N       -154.8900 -117.2530  111.5130 N.3     9  PRO9       -0.2102
      2  CA      -154.0430 -117.0210  110.3400 C.3     9  PRO9        0.1504
      3  C       -152.8390 -117.9400  110.1770 C.2     9  PRO9        0.2576
      4  O       -152.4190 -118.6180  111.1140 O.2     9  PRO9       -0.2718
      5  CB      -153.6210 -115.5690  110.5190 C.3     9  PRO9        0.0282
      6  CG      -153.3890 -115.5120  112.0080 C.3     9  PRO9        0.0208
      7  CD      -154.6110 -116.2500  112.5630 C.3     9  PRO9        0.0893
      8  N       -152.2840 -117.9330  108.9690 N.am   10  GLY10      -0.1943
      9  CA      -151.1190 -118.7400  108.6730 C.3    10  GLY10       0.2014
     10  C       -150.9550 -118.9450  107.1790 C.2    10  GLY10       0.2640
     11  O       -151.8660 -118.6700  106.3950 O.2    10  GLY10      -0.2714
     12  N       -149.7850 -119.4030  106.7660 N.am   11  SER11      -0.1935
     13  CA      -149.5820 -119.6670  105.3560 C.3    11  SER11       0.2055
     14  C       -149.8310 -121.1640  105.1600 C.2    11  SER11       0.2643
     15  O       -149.8080 -121.6570  104.0390 O.2    11  SER11      -0.2714
     16  CB      -148.1630 -119.2840  104.9190 C.3    11  SER11       0.2130
     17  OG      -147.2150 -120.2250  105.3800 O.3    11  SER11      -0.2179
     18  N       -150.0840 -121.8690  106.2660 N.am   12  PHE12      -0.1959
     19  CA      -150.3770 -123.3120  106.2680 C.3    12  PHE12       0.1771
     20  C       -149.8430 -124.0080  105.0230 C.2    12  PHE12       0.2619
     21  O       -150.6140 -124.3990  104.1410 O.2    12  PHE12      -0.2715
     22  CB      -151.8960 -123.5430  106.3500 C.3    12  PHE12       0.0574
     23  CG      -152.5760 -122.7460  107.4270 C.ar   12  PHE12      -0.0200
     24  CD1     -153.1190 -121.4890  107.1480 C.ar   12  PHE12      -0.0042
     25  CD2     -152.6720 -123.2440  108.7250 C.ar   12  PHE12      -0.0042
     26  CE1     -153.7480 -120.7460  108.1460 C.ar   12  PHE12      -0.0003
     27  CE2     -153.3010 -122.5040  109.7310 C.ar   12  PHE12      -0.0003
     28  CZ      -153.8400 -121.2550  109.4430 C.ar   12  PHE12      -0.0000
     29  N       -148.5260 -124.1760  104.9630 N.am   13  ASP13      -0.1971
     30  CA      -147.8930 -124.7770  103.7960 C.3    13  ASP13       0.1709
     31  C       -146.9910 -125.9640  104.1390 C.2    13  ASP13       0.2293
     32  O       -145.7590 -125.8730  104.0570 O.2    13  ASP13      -0.2864
     33  CB      -147.0890 -123.6990  103.0660 C.3    13  ASP13       0.1436
     34  CG      -146.5610 -124.1690  101.7290 C.2    13  ASP13       0.3671
     35  OD1     -145.4510 -123.7350  101.3430 O.co2  13  ASP13      -0.2456
     36  OD2     -147.2600 -124.9650  101.0660 O.co2  13  ASP13      -0.2456
     37  N       -150.2760 -128.6350  109.6300 N.3    16  THR16      -0.1218
     38  CA      -149.7690 -129.7990  110.3440 C.3    16  THR16       0.1862
     39  C       -150.6580 -130.0650  111.5560 C.2    16  THR16       0.2287
     40  O       -151.6160 -129.3250  111.8060 O.2    16  THR16      -0.2866
     41  CB      -148.3260 -129.5530  110.8480 C.3    16  THR16       0.1770
     42  OG1     -148.3450 -128.5640  111.8880 O.3    16  THR16      -0.2211
     43  CG2     -147.4440 -129.0490  109.7210 C.3    16  THR16       0.0375
     44  N       -149.7900 -129.6030  114.3770 N.3    18  GLY18      -0.1210
     45  CA      -149.4900 -128.4870  115.2540 C.3    18  GLY18       0.1956
     46  C       -150.5520 -127.4130  115.0880 C.2    18  GLY18       0.2611
     47  O       -151.1010 -126.9250  116.0710 O.2    18  GLY18      -0.2717
     48  N       -150.8390 -127.0470  113.8390 N.am   19  HIS19      -0.1975
     49  CA      -151.8530 -126.0400  113.5480 C.3    19  HIS19       0.1656
     50  C       -153.2050 -126.6150  113.9520 C.2    19  HIS19       0.2291
     51  O       -153.9660 -125.9970  114.6960 O.2    19  HIS19      -0.2864
     52  CB      -151.9150 -125.7120  112.0520 C.3    19  HIS19       0.0771
     53  CG      -150.6160 -125.2700  111.4550 C.ar   19  HIS19       0.0820
     54  ND1     -149.7060 -126.1530  110.9150 N.ar   19  HIS19      -0.2267
     55  CD2     -150.0870 -124.0370  111.2840 C.ar   19  HIS19       0.1154
     56  CE1     -148.6740 -125.4840  110.4360 C.ar   19  HIS19       0.1986
     57  NE2     -148.8800 -124.1970  110.6450 N.ar   19  HIS19      -0.2212
     58  N       -154.3460 -126.3440  117.4670 N.3    22  ILE22      -0.1245
     59  CA      -154.7730 -125.0120  117.8620 C.3    22  ILE22       0.1561
     60  C       -156.1990 -124.7710  117.4050 C.2    22  ILE22       0.2260
     61  O       -157.0040 -124.2060  118.1430 O.2    22  ILE22      -0.2867
     62  CB      -153.8480 -123.9080  117.2610 C.3    22  ILE22       0.0252
     63  CG1     -152.4110 -124.1100  117.7450 C.3    22  ILE22       0.0019
     64  CG2     -154.3420 -122.5280  117.6810 C.3    22  ILE22       0.0019
     65  CD1     -152.2520 -123.9890  119.2390 C.3    22  ILE22       0.0001
     66  N       -150.7480 -114.1830  102.6420 N.3    39  LYS39      -0.1245
     67  CA      -149.4660 -114.1160  101.9260 C.3    39  LYS39       0.1561
     68  C       -149.3500 -115.1640  100.8200 C.2    39  LYS39       0.2260
     69  O       -148.2510 -115.5960  100.4660 O.2    39  LYS39      -0.2867
     70  CB      -148.2900 -114.2720  102.9050 C.3    39  LYS39       0.0271
     71  CG      -148.1300 -113.1180  103.8870 C.3    39  LYS39       0.0035
     72  CD      -147.9470 -111.7860  103.1630 C.3    39  LYS39       0.0206
     73  CE      -147.8370 -110.6280  104.1450 C.3    39  LYS39       0.1093
     74  NZ      -147.7130 -109.3140  103.4600 N.3    39  LYS39      -0.1314
     75  N       -153.2350 -117.2860  117.6310 N.3    84  ARG84      -0.1231
     76  CA      -151.9110 -117.7040  117.1850 C.3    84  ARG84       0.1694
     77  C       -151.3270 -118.6940  118.1870 C.2    84  ARG84       0.2592
     78  O       -151.5630 -118.5940  119.3880 O.2    84  ARG84      -0.2718
     79  CB      -150.9800 -116.4920  117.0550 C.3    84  ARG84       0.0321
     80  CG      -151.3820 -115.4880  115.9820 C.3    84  ARG84       0.0489
     81  CD      -150.3140 -114.4070  115.8080 C.3    84  ARG84       0.2205
     82  NE      -149.0390 -114.9760  115.3790 N.pl3  84  ARG84      -0.0865
     83  CZ      -148.7740 -115.3720  114.1360 C.cat  84  ARG84       0.5346
     84  NH1     -149.6980 -115.2530  113.1890 N.pl3  84  ARG84       0.1354
     85  NH2     -147.5880 -115.9080  113.8440 N.pl3  84  ARG84       0.1354
     86  N       -150.5690 -119.6640  117.6920 N.am   85  GLY85      -0.1957
     87  CA      -149.9770 -120.6390  118.5850 C.3    85  GLY85       0.1869
     88  C       -148.5830 -120.2170  118.9960 C.2    85  GLY85       0.2309
     89  O       -147.8320 -119.6650  118.1870 O.2    85  GLY85      -0.2863
     90  N       -145.0720 -121.6730  120.3680 N.3    87  ARG87      -0.1245
     91  CA      -144.3010 -122.9090  120.5410 C.3    87  ARG87       0.1563
     92  C       -142.8930 -122.6610  121.0600 C.2    87  ARG87       0.2260
     93  O       -142.3750 -121.5440  120.9950 O.2    87  ARG87      -0.2867
     94  CB      -144.1650 -123.6620  119.2110 C.3    87  ARG87       0.0307
     95  CG      -145.4410 -123.8240  118.4020 C.3    87  ARG87       0.0489
     96  CD      -145.3650 -122.9980  117.1250 C.3    87  ARG87       0.2205
     97  NE      -144.3910 -123.5330  116.1790 N.pl3  87  ARG87      -0.0865
     98  CZ      -143.8470 -122.8320  115.1840 C.cat  87  ARG87       0.5346
     99  NH1     -144.1770 -121.5570  115.0060 N.pl3  87  ARG87       0.1354
    100  NH2     -142.9770 -123.4070  114.3640 N.pl3  87  ARG87       0.1354
    101  N       -140.0740 -112.0890  116.2880 N.3    94  TYR94      -0.1241
    102  CA      -140.9330 -112.0290  115.1170 C.3    94  TYR94       0.1605
    103  C       -142.3860 -111.8710  115.5640 C.2    94  TYR94       0.2264
    104  O       -143.1300 -111.0660  115.0100 O.2    94  TYR94      -0.2867
    105  CB      -140.7660 -113.3000  114.2940 C.3    94  TYR94       0.0534
    106  CG      -141.7900 -113.4740  113.1980 C.ar   94  TYR94      -0.0201
    107  CD1     -141.7490 -112.6930  112.0460 C.ar   94  TYR94      -0.0009
    108  CD2     -142.7960 -114.4330  113.3110 C.ar   94  TYR94      -0.0009
    109  CE1     -142.6860 -112.8650  111.0260 C.ar   94  TYR94       0.0417
    110  CE2     -143.7380 -114.6150  112.3030 C.ar   94  TYR94       0.0417
    111  CZ      -143.6780 -113.8310  111.1620 C.ar   94  TYR94       0.1957
    112  OH      -144.5970 -114.0280  110.1520 O.3    94  TYR94      -0.2866
    113  N       -144.8340 -108.6080  114.7050 N.3    98  LEU98      -0.1245
    114  CA      -146.0900 -108.9490  114.0510 C.3    98  LEU98       0.1561
    115  C       -147.3290 -108.4960  114.8290 C.2    98  LEU98       0.2260
    116  O       -148.1570 -107.7440  114.3120 O.2    98  LEU98      -0.2867
    117  CB      -146.1210 -110.4660  113.8170 C.3    98  LEU98       0.0270
    118  CG      -147.3110 -111.2350  113.2530 C.3    98  LEU98       0.0019
    119  CD1     -146.8710 -112.6810  113.0290 C.3    98  LEU98       0.0001
    120  CD2     -148.4810 -111.2040  114.2110 C.3    98  LEU98       0.0001
    121  N       -148.7060 -124.2370  122.4440 N.3   116  SER116     -0.1217
    122  CA      -148.7420 -125.5550  121.8200 C.3   116  SER116      0.1889
    123  C       -148.6050 -126.6990  122.8430 C.2   116  SER116      0.2288
    124  O       -148.0580 -126.5110  123.9260 O.2   116  SER116     -0.2866
    125  CB      -147.6050 -125.6420  120.8030 C.3   116  SER116      0.2089
    126  OG      -147.4180 -126.9720  120.3470 O.3   116  SER116     -0.2183
    127  N       -146.1230 -130.9350  119.8880 N.3   120  TYR120     -0.1241
    128  CA      -146.1380 -130.1850  118.6320 C.3   120  TYR120      0.1605
    129  C       -145.4060 -128.8690  118.7990 C.2   120  TYR120      0.2264
    130  O       -145.3670 -128.0420  117.8810 O.2   120  TYR120     -0.2867
    131  CB      -147.5770 -129.8940  118.2150 C.3   120  TYR120      0.0534
    132  CG      -148.4130 -131.1280  118.0060 C.ar  120  TYR120     -0.0201
    133  CD1     -149.7010 -131.2150  118.5360 C.ar  120  TYR120     -0.0009
    134  CD2     -147.9340 -132.2020  117.2510 C.ar  120  TYR120     -0.0009
    135  CE1     -150.4930 -132.3350  118.3170 C.ar  120  TYR120      0.0417
    136  CE2     -148.7220 -133.3290  117.0290 C.ar  120  TYR120      0.0417
    137  CZ      -150.0000 -133.3860  117.5650 C.ar  120  TYR120      0.1957
    138  OH      -150.7870 -134.4920  117.3520 O.3   120  TYR120     -0.2866
    139  N       -142.3060 -128.4800  116.0200 N.3   123  ILE123     -0.1231
    140  CA      -142.3330 -128.6080  114.5670 C.3   123  ILE123      0.1692
    141  C       -142.8380 -127.3690  113.8410 C.2   123  ILE123      0.2593
    142  O       -143.4080 -126.4570  114.4420 O.2   123  ILE123     -0.2718
    143  CB      -143.1760 -129.8400  114.0940 C.3   123  ILE123      0.0266
    144  CG1     -144.6470 -129.4560  113.8920 C.3   123  ILE123      0.0019
    145  CG2     -143.0500 -130.9770  115.0930 C.3   123  ILE123      0.0020
    146  CD1     -145.4120 -129.2030  115.1590 C.3   123  ILE123      0.0001
    147  N       -142.5890 -127.3440  112.5380 N.am  124  SER124     -0.1938
    148  CA      -143.0300 -126.2600  111.6710 C.3   124  SER124      0.2055
    149  C       -143.2450 -126.9320  110.3200 C.2   124  SER124      0.2644
    150  O       -142.8100 -128.0720  110.1240 O.2   124  SER124     -0.2714
    151  CB      -141.9530 -125.1650  111.5720 C.3   124  SER124      0.2130
    152  OG      -140.7610 -125.6370  110.9620 O.3   124  SER124     -0.2179
    153  N       -143.9210 -126.2540  109.3960 N.am  125  SER125     -0.1935
    154  CA      -144.1620 -126.8380  108.0790 C.3   125  SER125      0.2055
    155  C       -142.8530 -127.1200  107.3340 C.2   125  SER125      0.2643
    156  O       -142.7260 -128.1410  106.6560 O.2   125  SER125     -0.2714
    157  CB      -145.0580 -125.9170  107.2470 C.3   125  SER125      0.2130
    158  OG      -146.3420 -125.7840  107.8420 O.3   125  SER125     -0.2179
    159  N       -141.8780 -126.2260  107.4850 N.am  126  SER126     -0.1949
    160  CA      -140.5740 -126.3590  106.8280 C.3   126  SER126      0.1924
    161  C       -139.8780 -127.6690  107.1280 C.2   126  SER126      0.2314
    162  O       -139.5690 -128.4440  106.2240 O.2   126  SER126     -0.2863
    163  CB      -139.6360 -125.2280  107.2520 C.3   126  SER126      0.2116
    164  OG      -140.0150 -124.0080  106.6580 O.3   126  SER126     -0.2180
    165  N       -141.8580 -130.6300  105.7120 N.3   129  LYS129     -0.1245
    166  CA      -141.7390 -130.8380  104.2690 C.3   129  LYS129      0.1561
    167  C       -140.3560 -131.3910  103.9410 C.2   129  LYS129      0.2260
    168  O       -140.1980 -132.2110  103.0400 O.2   129  LYS129     -0.2867
    169  CB      -141.9430 -129.5230  103.5090 C.3   129  LYS129      0.0271
    170  CG      -143.3670 -129.0120  103.5340 C.3   129  LYS129      0.0035
    171  CD      -143.5100 -127.6860  102.8050 C.3   129  LYS129      0.0206
    172  CE      -142.6600 -126.6020  103.4440 C.3   129  LYS129      0.1093
    173  NZ      -142.9620 -125.2780  102.8470 N.3   129  LYS129     -0.1314
@<TRIPOS>BOND
     1    69    68    2
     2    68    67    1
     3    36    34   ar
     4    35    34   ar
     5    34    33    1
     6    67    66    1
     7    67    70    1
     8   171   172    1
     9   171   170    1
    10   173   172    1
    11    70    71    1
    12   168   167    2
    13    33    30    1
    14    72    71    1
    15    72    73    1
    16    74    73    1
    17   169   170    1
    18   169   166    1
    19    30    31    1
    20    30    29    1
    21   167   166    1
    22    15    14    2
    23    32    31    2
    24    21    20    2
    25   166   165    1
    26    16    13    1
    27    16    17    1
    28    29    20   am
    29    20    19    1
    30    14    13    1
    31    14    18   am
    32    13    12    1
    33   162   161    2
    34    18    19    1
    35    19    22    1
    36    22    23    1
    37    11    10    2
    38   156   155    2
    39   164   163    1
    40    12    10   am
    41   160   161    1
    42   160   163    1
    43   160   159    1
    44    24    23   ar
    45    24    26   ar
    46    10     9    1
    47   157   158    1
    48   157   154    1
    49   155   159   am
    50   155   154    1
    51    23    25   ar
    52   154   153    1
    53    26    28   ar
    54     9     8    1
    55    25    27   ar
    56     8     3   am
    57   153   149   am
    58    28    27   ar
    59    37    38    1
    60    43    41    1
    61   150   149    2
    62   112   111    1
    63     3     2    1
    64     3     4    2
    65   149   148    1
    66     2     5    1
    67     2     1    1
    68    38    41    1
    69    38    39    1
    70    56    57   ar
    71    56    54   ar
    72     5     6    1
    73    57    55   ar
    74    41    42    1
    75    54    53   ar
    76   152   151    1
    77   109   111   ar
    78   109   107   ar
    79   111   110   ar
    80    55    53   ar
    81    53    52    1
    82     1     7    1
    83    39    40    2
    84   151   148    1
    85   148   147    1
    86     6     7    1
    87   107   106   ar
    88    52    49    1
    89   110   108   ar
    90   147   141   am
    91   119   118    1
    92    84    83    1
    93   106   108   ar
    94   106   105    1
    95   118   117    1
    96   118   120    1
    97    49    48    1
    98    49    50    1
    99   117   114    1
   100    48    46   am
   101   141   142    2
   102   141   140    1
   103    85    83    1
   104   144   143    1
   105   144   146    1
   106    50    51    2
   107   114   113    1
   108   114   115    1
   109   143   140    1
   110   143   145    1
   111    83    82    2
   112   105   102    1
   113   116   115    2
   114   100    98    1
   115    44    45    1
   116   140   139    1
   117    99    98    1
   118   104   103    2
   119    46    45    1
   120    46    47    2
   121   102   103    1
   122   102   101    1
   123    98    97    2
   124    82    81    1
   125    81    80    1
   126    80    79    1
   127    97    96    1
   128   136   134   ar
   129   136   137   ar
   130    79    76    1
   131    96    95    1
   132    76    75    1
   133    76    77    1
   134   134   132   ar
   135    62    64    1
   136    62    63    1
   137    62    59    1
   138   138   137    1
   139    60    59    1
   140    60    61    2
   141    58    59    1
   142   137   135   ar
   143    86    77   am
   144    86    87    1
   145    63    65    1
   146   130   129    2
   147   132   131    1
   148   132   133   ar
   149    89    88    2
   150    77    78    2
   151   131   128    1
   152   135   133   ar
   153    95    94    1
   154    87    88    1
   155   128   129    1
   156   128   127    1
   157    94    91    1
   158   126   125    1
   159    90    91    1
   160    91    92    1
   161   125   122    1
   162    93    92    2
   163   122   121    1
   164   122   123    1
   165   123   124    2
