@<TRIPOS>MOLECULE
tmp/3f3sA00.pdb
 200 196 0 0 0
SMALL
GASTEIGER

@<TRIPOS>ATOM
      1  N        -18.2520   10.8650   -9.6650 N.3     8  VAL8       -0.1231
      2  CA       -17.5770    9.5780   -9.5250 C.3     8  VAL8        0.1692
      3  C        -18.4850    8.5050  -10.1150 C.2     8  VAL8        0.2593
      4  O        -19.4810    8.1320   -9.4870 O.2     8  VAL8       -0.2718
      5  CB       -17.3010    9.2760   -8.0770 C.3     8  VAL8        0.0266
      6  CG1      -16.7110    7.8410   -7.9210 C.3     8  VAL8        0.0020
      7  CG2      -16.3530   10.3320   -7.4840 C.3     8  VAL8        0.0020
      8  N        -18.1910    8.0690  -11.3340 N.am    9  GLY9       -0.1942
      9  CA       -19.0830    7.1710  -12.0590 C.3     9  GLY9        0.2014
     10  C        -19.7670    7.9270  -13.1660 C.2     9  GLY9        0.2640
     11  O        -20.7370    8.6430  -12.9380 O.2     9  GLY9       -0.2714
     12  N        -19.2510    7.7780  -14.3790 N.am   10  SER10      -0.1935
     13  CA       -19.7600    8.5220  -15.5280 C.3    10  SER10       0.2055
     14  C        -20.7440    7.6830  -16.3260 C.2    10  SER10       0.2644
     15  O        -20.6050    7.5210  -17.5460 O.2    10  SER10      -0.2714
     16  CB       -18.6060    8.9980  -16.4180 C.3    10  SER10       0.2130
     17  OG       -17.7080    7.9440  -16.6950 O.3    10  SER10      -0.2179
     18  N        -21.7600    7.1730  -15.6380 N.am   11  GLY11      -0.1939
     19  CA       -22.8220    6.3920  -16.2840 C.3    11  GLY11       0.2014
     20  C        -24.0570    7.2240  -16.5650 C.2    11  GLY11       0.2639
     21  O        -23.9270    8.3900  -16.8660 O.2    11  GLY11      -0.2714
     22  N        -25.2420    6.6110  -16.4800 N.am   12  VAL12      -0.1963
     23  CA       -26.5090    7.2760  -16.8380 C.3    12  VAL12       0.1727
     24  C        -26.7240    8.5010  -15.9470 C.2    12  VAL12       0.2616
     25  O        -26.9030    9.6310  -16.4230 O.2    12  VAL12      -0.2715
     26  CB       -27.7170    6.3130  -16.7390 C.3    12  VAL12       0.0290
     27  CG1      -29.0780    7.0500  -16.9330 C.3    12  VAL12       0.0023
     28  CG2      -27.5750    5.1350  -17.7430 C.3    12  VAL12       0.0023
     29  N        -26.6290    8.2870  -14.6530 N.am   13  ILE13      -0.1963
     30  CA       -26.9300    9.3260  -13.7090 C.3    13  ILE13       0.1727
     31  C        -25.7900   10.3200  -13.6630 C.2    13  ILE13       0.2616
     32  O        -26.0310   11.5290  -13.6460 O.2    13  ILE13      -0.2715
     33  CB       -27.2840    8.7310  -12.3090 C.3    13  ILE13       0.0290
     34  CG1      -28.6630    8.1040  -12.4090 C.3    13  ILE13       0.0022
     35  CG2      -27.2740    9.8030  -11.1920 C.3    13  ILE13       0.0023
     36  CD1      -29.8390    9.0700  -12.8300 C.3    13  ILE13       0.0001
     37  N        -24.5540    9.8320  -13.6930 N.am   14  GLY14      -0.1955
     38  CA       -23.3890   10.7320  -13.7380 C.3    14  GLY14       0.1869
     39  C        -23.3970   11.7440  -14.8660 C.2    14  GLY14       0.2309
     40  O        -23.0670   12.9320  -14.6660 O.2    14  GLY14      -0.2863
     41  N        -15.0210   11.4040  -13.4220 N.3    31  TYR31      -0.1227
     42  CA       -14.1450   10.2970  -13.1110 C.3    31  TYR31       0.1736
     43  C        -14.9070    8.9720  -13.2160 C.2    31  TYR31       0.2595
     44  O        -16.1140    8.9030  -12.9910 O.2    31  TYR31      -0.2718
     45  CB       -13.5510   10.4800  -11.7300 C.3    31  TYR31       0.0548
     46  CG       -12.8900    9.2510  -11.1890 C.ar   31  TYR31      -0.0200
     47  CD1      -11.5980    8.8760  -11.5910 C.ar   31  TYR31      -0.0009
     48  CD2      -13.5500    8.4460  -10.2750 C.ar   31  TYR31      -0.0009
     49  CE1      -11.0060    7.7240  -11.0860 C.ar   31  TYR31       0.0417
     50  CE2      -12.9630    7.2990   -9.7580 C.ar   31  TYR31       0.0417
     51  CZ       -11.7050    6.9420  -10.1600 C.ar   31  TYR31       0.1957
     52  OH       -11.1570    5.8020   -9.6350 O.3    31  TYR31      -0.2866
     53  N        -14.1980    7.9300  -13.6220 N.am   32  ASP32      -0.1960
     54  CA       -14.7400    6.5830  -13.6790 C.3    32  ASP32       0.1840
     55  C        -13.5680    5.6250  -13.4900 C.2    32  ASP32       0.2622
     56  O        -12.4230    5.9290  -13.8570 O.2    32  ASP32      -0.2715
     57  CB       -15.4280    6.3220  -15.0180 C.3    32  ASP32       0.1450
     58  CG       -16.4240    5.1630  -14.9670 C.2    32  ASP32       0.3671
     59  OD1      -16.0150    3.9700  -15.0130 O.co2  32  ASP32      -0.2456
     60  OD2      -17.6350    5.4510  -14.8930 O.co2  32  ASP32      -0.2456
     61  N        -13.8530    4.4440  -12.9660 N.am   33  ILE33      -0.1963
     62  CA       -12.8060    3.4370  -12.8290 C.3    33  ILE33       0.1727
     63  C        -12.3830    2.9660  -14.2390 C.2    33  ILE33       0.2616
     64  O        -11.2720    2.5380  -14.4200 O.2    33  ILE33      -0.2715
     65  CB       -13.2720    2.2820  -11.9050 C.3    33  ILE33       0.0290
     66  CG1      -12.0730    1.4260  -11.4510 C.3    33  ILE33       0.0022
     67  CG2      -14.3680    1.4440  -12.6070 C.3    33  ILE33       0.0023
     68  CD1      -11.1260    2.1520  -10.4860 C.3    33  ILE33       0.0001
     69  N        -13.2600    3.0790  -15.2370 N.am   34  GLU34      -0.1977
     70  CA       -12.9230    2.7530  -16.6350 C.3    34  GLU34       0.1602
     71  C        -12.7980    4.0190  -17.4400 C.2    34  GLU34       0.2287
     72  O        -13.7890    4.7520  -17.6090 O.2    34  GLU34      -0.2864
     73  CB       -14.0250    1.9390  -17.2990 C.3    34  GLU34       0.0415
     74  CG       -14.1600    0.5620  -16.7770 C.3    34  GLU34       0.1163
     75  CD       -15.3030   -0.1970  -17.4210 C.2    34  GLU34       0.3649
     76  OE1      -15.5940    0.0410  -18.6180 O.co2  34  GLU34      -0.2457
     77  OE2      -15.8680   -1.0540  -16.7220 O.co2  34  GLU34      -0.2457
     78  N        -15.1610    4.7730  -20.1900 N.3    37  GLN37      -0.1245
     79  CA       -16.4640    5.3220  -19.8290 C.3    37  GLN37       0.1566
     80  C        -16.4380    6.8580  -19.7230 C.2    37  GLN37       0.2260
     81  O        -17.3830    7.5170  -20.1510 O.2    37  GLN37      -0.2867
     82  CB       -17.0290    4.6380  -18.5790 C.3    37  GLN37       0.0367
     83  CG       -17.4270    3.1760  -18.8810 C.3    37  GLN37       0.0905
     84  CD       -18.4100    3.0430  -20.0270 C.2    37  GLN37       0.2608
     85  OE1      -19.4910    3.5890  -19.9640 O.2    37  GLN37      -0.2717
     86  NE2      -18.0420    2.2970  -21.0760 N.am   37  GLN37      -0.0878
     87  N        -21.9510    8.1630   -8.2880 N.3    90  CYS90      -0.1221
     88  CA       -22.9190    7.5990   -9.2100 C.3    90  CYS90       0.1808
     89  C        -22.4230    6.2740   -9.7280 C.2    90  CYS90       0.2601
     90  O        -22.4900    5.9870  -10.9540 O.2    90  CYS90      -0.2717
     91  CB       -23.1170    8.5510  -10.3820 C.3    90  CYS90       0.0970
     92  SG       -23.4300   10.2390   -9.9190 S.3    90  CYS90      -0.0800
     93  N        -21.8730    5.4820   -8.8220 N.am   91  VAL91      -0.1966
     94  CA       -21.4350    4.1380   -9.1910 C.3    91  VAL91       0.1712
     95  C        -22.5950    3.1480   -9.0000 C.2    91  VAL91       0.2458
     96  O        -23.6470    3.5200   -8.4970 O.2    91  VAL91      -0.2730
     97  CB       -20.1800    3.7370   -8.4110 C.3    91  VAL91       0.0289
     98  CG1      -19.1370    4.8740   -8.5110 C.3    91  VAL91       0.0023
     99  CG2      -20.5280    3.3900   -6.9330 C.3    91  VAL91       0.0023
    100  N        -22.4120    1.8800   -9.4030 N.am   92  PRO92      -0.2716
    101  CA       -23.5400    0.9750   -9.2710 C.3    92  PRO92       0.1536
    102  C        -24.1510    0.8480   -7.8770 C.2    92  PRO92       0.2598
    103  O        -23.5030    1.0730   -6.8470 O.2    92  PRO92      -0.2715
    104  CB       -22.9860   -0.3590   -9.7690 C.3    92  PRO92       0.0310
    105  CG       -21.9070    0.0310  -10.7210 C.3    92  PRO92       0.0237
    106  CD       -21.2830    1.2430  -10.1050 C.3    92  PRO92       0.0939
    107  N        -25.4250    0.4910   -7.8630 N.am   93  GLU93      -0.1978
    108  CA       -26.1610    0.3380   -6.6020 C.3    93  GLU93       0.1602
    109  C        -25.7120   -0.9190   -5.8450 C.2    93  GLU93       0.2287
    110  O        -26.3870   -1.9370   -5.8800 O.2    93  GLU93      -0.2864
    111  CB       -27.6710    0.2780   -6.9040 C.3    93  GLU93       0.0415
    112  CG       -28.5720    0.3510   -5.6370 C.3    93  GLU93       0.1163
    113  CD       -28.7720    1.7710   -5.1600 C.2    93  GLU93       0.3649
    114  OE1      -29.9560    2.1650   -5.0020 O.co2  93  GLU93      -0.2457
    115  OE2      -27.7510    2.4900   -4.9740 O.co2  93  GLU93      -0.2457
    116  N        -19.4450   -1.9400   -2.6910 N.3    97  LEU97      -0.1231
    117  CA       -18.6860   -1.0870   -3.6350 C.3    97  LEU97       0.1693
    118  C        -18.7200    0.3750   -3.2180 C.2    97  LEU97       0.2591
    119  O        -17.6840    1.0600   -3.2690 O.2    97  LEU97      -0.2718
    120  CB       -19.1960   -1.2140   -5.0860 C.3    97  LEU97       0.0284
    121  CG       -18.4920   -0.2670   -6.0980 C.3    97  LEU97       0.0019
    122  CD1      -17.0210   -0.7340   -6.3010 C.3    97  LEU97       0.0001
    123  CD2      -19.1780   -0.2220   -7.4340 C.3    97  LEU97       0.0001
    124  N        -19.8920    0.8730   -2.8150 N.am   98  LYS98      -0.1980
    125  CA       -20.0060    2.2840   -2.4120 C.3    98  LYS98       0.1596
    126  C        -19.2070    2.5600   -1.1540 C.2    98  LYS98       0.2287
    127  O        -18.5500    3.5930   -1.0440 O.2    98  LYS98      -0.2864
    128  CB       -21.4760    2.7280   -2.2050 C.3    98  LYS98       0.0298
    129  CG       -22.3010    2.7550   -3.5020 C.3    98  LYS98       0.0038
    130  CD       -23.5400    3.5390   -3.3500 C.3    98  LYS98       0.0206
    131  CE       -24.5250    3.3080   -4.4370 C.3    98  LYS98       0.1093
    132  NZ       -24.0830    3.7410   -5.7880 N.3    98  LYS98      -0.1314
    133  N        -16.5620    0.9980   -0.1080 N.3   100  LYS100     -0.1231
    134  CA       -15.1430    0.9570   -0.4970 C.3   100  LYS100      0.1693
    135  C        -14.6660    2.2970   -1.0720 C.2   100  LYS100      0.2591
    136  O        -13.5980    2.7900   -0.7290 O.2   100  LYS100     -0.2718
    137  CB       -14.9320   -0.1270   -1.5480 C.3   100  LYS100      0.0285
    138  CG       -13.4990   -0.3540   -1.9870 C.3   100  LYS100      0.0035
    139  CD       -13.3820   -1.4880   -3.0510 C.3   100  LYS100      0.0206
    140  CE       -13.8360   -1.0480   -4.4610 C.3   100  LYS100      0.1093
    141  NZ       -13.6730   -2.1240   -5.5260 N.3   100  LYS100     -0.1314
    142  N        -15.4470    2.8410   -1.9830 N.am  101  ILE101     -0.1980
    143  CA       -15.1270    4.1130   -2.6100 C.3   101  ILE101      0.1595
    144  C        -15.1610    5.2010   -1.5770 C.2   101  ILE101      0.2287
    145  O        -14.2690    6.0310   -1.5310 O.2   101  ILE101     -0.2864
    146  CB       -16.0870    4.4440   -3.7670 C.3   101  ILE101      0.0276
    147  CG1      -15.8740    3.4460   -4.9170 C.3   101  ILE101      0.0022
    148  CG2      -15.8330    5.8450   -4.2800 C.3   101  ILE101      0.0022
    149  CD1      -17.0120    3.3900   -5.8730 C.3   101  ILE101      0.0001
    150  N        -25.9080    9.2610   -4.9860 N.3   118  SER118     -0.1202
    151  CA       -27.0980    9.2260   -5.8230 C.3   118  SER118      0.2020
    152  C        -28.0360    8.0640   -5.5300 C.2   118  SER118      0.2619
    153  O        -29.0310    7.8890   -6.2350 O.2   118  SER118     -0.2717
    154  CB       -26.7160    9.1320   -7.2930 C.3   118  SER118      0.2103
    155  OG       -26.1020   10.3090   -7.7330 O.3   118  SER118     -0.2182
    156  N        -27.7310    7.2800   -4.5050 N.am  119  THR119     -0.1938
    157  CA       -28.3870    6.0030   -4.2840 C.3   119  THR119      0.2028
    158  C        -29.8970    6.1600   -4.2170 C.2   119  THR119      0.2642
    159  O        -30.4370    7.1520   -3.6380 O.2   119  THR119     -0.2714
    160  CB       -27.8890    5.3430   -2.9720 C.3   119  THR119      0.1808
    161  OG1      -28.4760    4.0480   -2.8340 O.3   119  THR119     -0.2208
    162  CG2      -28.2170    6.1770   -1.7660 C.3   119  THR119      0.0379
    163  N        -30.5690    5.1750   -4.7730 N.am  120  SER120     -0.1949
    164  CA       -32.0290    5.1430   -4.7270 C.3   120  SER120      0.1924
    165  C        -32.5340    4.3380   -3.5500 C.2   120  SER120      0.2314
    166  O        -33.6870    4.4790   -3.1730 O.2   120  SER120     -0.2863
    167  CB       -32.5900    4.5940   -6.0240 C.3   120  SER120      0.2116
    168  OG       -32.4420    3.1900   -6.0830 O.3   120  SER120     -0.2180
    169  N        -30.6320   12.0150   -3.9130 N.3   141  HIS141     -0.1227
    170  CA       -31.1970   11.0380   -4.8270 C.3   141  HIS141      0.1737
    171  C        -32.0510   11.7440   -5.8920 C.2   141  HIS141      0.2438
    172  O        -33.0750   12.3580   -5.5620 O.2   141  HIS141     -0.2733
    173  CB       -32.0560   10.0170   -4.0530 C.3   141  HIS141      0.0758
    174  CG       -32.8780    9.1250   -4.9350 C.ar  141  HIS141      0.0818
    175  ND1      -34.2550    9.0900   -4.8800 N.ar  141  HIS141     -0.2268
    176  CD2      -32.5210    8.2780   -5.9300 C.ar  141  HIS141      0.1154
    177  CE1      -34.7100    8.2510   -5.8000 C.ar  141  HIS141      0.1986
    178  NE2      -33.6800    7.7450   -6.4500 N.ar  141  HIS141     -0.2212
    179  N        -31.6500   11.6500   -7.1610 N.am  142  PRO142     -0.2718
    180  CA       -32.4120   12.2480   -8.2300 C.3   142  PRO142      0.1535
    181  C        -33.4230   11.2430   -8.8230 C.2   142  PRO142      0.2598
    182  O        -33.4980   10.0860   -8.3960 O.2   142  PRO142     -0.2715
    183  CB       -31.3130   12.5790   -9.2480 C.3   142  PRO142      0.0310
    184  CG       -30.3940   11.3680   -9.0950 C.3   142  PRO142      0.0237
    185  CD       -30.3850   11.0640   -7.6630 C.3   142  PRO142      0.0939
    186  N        -34.2040   11.6840   -9.8070 N.am  143  VAL143     -0.1964
    187  CA       -35.2160   10.8450  -10.4200 C.3   143  VAL143      0.1727
    188  C        -34.9100   10.7760  -11.8930 C.2   143  VAL143      0.2616
    189  O        -34.8410   11.7890  -12.5700 O.2   143  VAL143     -0.2715
    190  CB       -36.6440   11.4370  -10.2100 C.3   143  VAL143      0.0290
    191  CG1      -37.7120   10.5770  -10.8570 C.3   143  VAL143      0.0023
    192  CG2      -36.9310   11.5890   -8.7020 C.3   143  VAL143      0.0023
    193  N        -34.7670    9.5820  -12.4290 N.am  144  ASN144     -0.1972
    194  CA       -34.4230    9.4980  -13.8370 C.3   144  ASN144      0.1688
    195  C        -35.6560    9.7660  -14.7260 C.2   144  ASN144      0.2292
    196  O        -36.7200    9.2680  -14.4240 O.2   144  ASN144     -0.2864
    197  CB       -33.8370    8.1110  -14.1490 C.3   144  ASN144      0.1181
    198  CG       -33.1320    8.0610  -15.4960 C.2   144  ASN144      0.2629
    199  OD1      -32.2040    8.8200  -15.7510 O.2   144  ASN144     -0.2716
    200  ND2      -33.5670    7.1780  -16.3500 N.am  144  ASN144     -0.0877
@<TRIPOS>BOND
     1    86    84   am
     2    78    79    1
     3    81    80    2
     4    84    85    2
     5    84    83    1
     6    79    80    1
     7    79    82    1
     8    83    82    1
     9    76    75   ar
    10    28    26    1
    11    72    71    2
    12    15    14    2
    13    71    70    1
    14    75    74    1
    15    75    77   ar
    16    73    74    1
    17    73    70    1
    18    27    26    1
    19    21    20    2
    20    23    26    1
    21    23    22    1
    22    23    24    1
    23    17    16    1
    24    70    69    1
    25    20    22   am
    26    20    19    1
    27    25    24    2
    28    16    13    1
    29   200   198   am
    30    14    18   am
    31    14    13    1
    32    19    18    1
    33    24    29   am
    34   199   198    2
    35    13    12    1
    36   198   197    1
    37    69    63   am
    38    57    58    1
    39    57    54    1
    40    59    58   ar
    41    58    60   ar
    42    39    40    2
    43    39    38    1
    44   195   196    2
    45   195   194    1
    46    29    30    1
    47    64    63    2
    48    12    10   am
    49    63    62    1
    50   197   194    1
    51    56    55    2
    52   194   193    1
    53    38    37    1
    54    30    31    1
    55    30    33    1
    56    37    31   am
    57    54    53    1
    58    54    55    1
    59    31    32    2
    60    53    43   am
    61    55    61   am
    62    41    42    1
    63    43    42    1
    64    43    44    2
    65    10    11    2
    66    10     9    1
    67    42    45    1
    68    61    62    1
    69    36    34    1
    70    62    65    1
    71    67    65    1
    72   189   188    2
    73   193   188   am
    74    34    33    1
    75    33    35    1
    76     9     8    1
    77    65    66    1
    78   188   187    1
    79    45    46    1
    80    47    46   ar
    81    47    49   ar
    82    66    68    1
    83     8     3   am
    84    46    48   ar
    85    49    51   ar
    86    90    89    2
    87   191   190    1
    88   105   106    1
    89   105   104    1
    90   187   190    1
    91   187   186    1
    92    91    92    1
    93    91    88    1
    94    48    50   ar
    95   190   192    1
    96    51    50   ar
    97    51    52    1
    98     3     2    1
    99     3     4    2
   100   106   100    1
   101   186   181   am
   102   104   101    1
   103    89    88    1
   104    89    93   am
   105     1     2    1
   106     2     5    1
   107   100   101    1
   108   100    95   am
   109   101   102    1
   110   183   184    1
   111   183   180    1
   112    88    87    1
   113    94    95    1
   114    94    93    1
   115    94    97    1
   116   184   185    1
   117    95    96    2
   118   181   182    2
   119   181   180    1
   120    98    97    1
   121    97    99    1
   122   180   179    1
   123     5     6    1
   124     5     7    1
   125   102   107   am
   126   102   103    2
   127   107   108    1
   128   155   154    1
   129   185   179    1
   130   123   121    1
   131   154   151    1
   132   179   171   am
   133   111   108    1
   134   111   112    1
   135   108   109    1
   136   178   176   ar
   137   178   177   ar
   138   122   121    1
   139   153   152    2
   140   121   120    1
   141   168   167    1
   142   167   164    1
   143   176   174   ar
   144   171   172    2
   145   171   170    1
   146   110   109    2
   147   149   147    1
   148   151   152    1
   149   151   150    1
   150   177   175   ar
   151   132   131    1
   152   112   113    1
   153   152   156   am
   154   141   140    1
   155   113   114   ar
   156   113   115   ar
   157   120   117    1
   158   174   175   ar
   159   174   173    1
   160   147   146    1
   161   170   173    1
   162   170   169    1
   163   163   164    1
   164   163   158   am
   165   164   165    1
   166   156   157    1
   167   140   139    1
   168   131   130    1
   169   157   158    1
   170   157   160    1
   171   148   146    1
   172   158   159    2
   173   146   143    1
   174   117   118    1
   175   117   116    1
   176   165   166    2
   177   129   130    1
   178   129   128    1
   179   119   118    2
   180   118   124   am
   181   139   138    1
   182   160   161    1
   183   160   162    1
   184   124   125    1
   185   143   142    1
   186   143   144    1
   187   125   128    1
   188   125   126    1
   189   138   137    1
   190   142   135   am
   191   144   145    2
   192   137   134    1
   193   126   127    2
   194   135   136    2
   195   135   134    1
   196   134   133    1
