@<TRIPOS>MOLECULE
tmp/3f3tA01.pdb
 144 137 0 0 0
SMALL
GASTEIGER

@<TRIPOS>ATOM
      1  N        -11.8120   44.7860   -8.0950 N.3    17  LEU17      -0.1231
      2  CA       -11.6820   44.1300   -6.7890 C.3    17  LEU17       0.1693
      3  C        -10.4550   44.5500   -5.9770 C.2    17  LEU17       0.2593
      4  O        -10.4930   44.5800   -4.7420 O.2    17  LEU17      -0.2718
      5  CB       -11.6380   42.6050   -6.9610 C.3    17  LEU17       0.0284
      6  CG       -12.9420   41.8760   -7.2750 C.3    17  LEU17       0.0019
      7  CD1      -12.6670   40.3930   -7.3640 C.3    17  LEU17       0.0001
      8  CD2      -14.0180   42.1830   -6.2270 C.3    17  LEU17       0.0001
      9  N         -9.3640   44.8330   -6.6930 N.am   18  GLY18      -0.1942
     10  CA        -8.0730   45.1690   -6.0980 C.3    18  GLY18       0.2014
     11  C         -7.1290   45.7400   -7.1380 C.2    18  GLY18       0.2639
     12  O         -7.2460   45.4310   -8.3160 O.2    18  GLY18      -0.2714
     13  N         -6.2130   46.6000   -6.6930 N.am   19  GLN19      -0.1963
     14  CA        -5.1300   47.1070   -7.5430 C.3    19  GLN19       0.1733
     15  C         -3.7920   47.2600   -6.7810 C.2    19  GLN19       0.2616
     16  O         -3.7350   47.8650   -5.7150 O.2    19  GLN19      -0.2715
     17  CB        -5.5020   48.4220   -8.2540 C.3    19  GLN19       0.0408
     18  CG        -4.7340   48.5710   -9.5840 C.3    19  GLN19       0.0908
     19  CD        -4.4180   50.0020  -10.0040 C.2    19  GLN19       0.2608
     20  OE1       -5.2480   50.9030   -9.8660 O.2    19  GLN19      -0.2717
     21  NE2       -3.2140   50.2070  -10.5510 N.am   19  GLN19      -0.0878
     22  N         -2.7440   46.6560   -7.3450 N.am   20  GLY20      -0.1955
     23  CA        -1.3620   46.8990   -6.9590 C.3    20  GLY20       0.1869
     24  C         -0.7590   47.6380   -8.1380 C.2    20  GLY20       0.2309
     25  O         -1.4740   47.9710   -9.0890 O.2    20  GLY20      -0.2863
     26  N         -0.7620   45.6610  -11.6720 N.3    23  GLY23      -0.1210
     27  CA        -2.0480   45.5660  -12.3450 C.3    23  GLY23       0.1956
     28  C         -3.2550   45.4440  -11.4300 C.2    23  GLY23       0.2612
     29  O         -3.2070   45.7880  -10.2490 O.2    23  GLY23      -0.2717
     30  N         -4.3320   44.9060  -11.9910 N.am   24  GLU24      -0.1965
     31  CA        -5.6430   44.8810  -11.3710 C.3    24  GLU24       0.1733
     32  C         -6.2120   43.4860  -11.3060 C.2    24  GLU24       0.2616
     33  O         -5.7340   42.5530  -11.9660 O.2    24  GLU24      -0.2715
     34  CB        -6.6220   45.7020  -12.2000 C.3    24  GLU24       0.0429
     35  CG        -6.4790   47.1990  -12.1020 C.3    24  GLU24       0.1163
     36  CD        -7.4080   47.9010  -13.0720 C.2    24  GLU24       0.3649
     37  OE1       -7.0430   47.9790  -14.2620 O.co2  24  GLU24      -0.2457
     38  OE2       -8.4990   48.3600  -12.6530 O.co2  24  GLU24      -0.2457
     39  N         -7.2740   43.3660  -10.5220 N.am   25  VAL25      -0.1977
     40  CA        -8.0210   42.1380  -10.3730 C.3    25  VAL25       0.1596
     41  C         -9.4740   42.5400  -10.3830 C.2    25  VAL25       0.2287
     42  O         -9.8880   43.3650   -9.5650 O.2    25  VAL25      -0.2864
     43  CB        -7.6530   41.4040   -9.0470 C.3    25  VAL25       0.0276
     44  CG1       -8.7700   40.4430   -8.6200 C.3    25  VAL25       0.0022
     45  CG2       -6.3240   40.6450   -9.2070 C.3    25  VAL25       0.0022
     46  N        -12.7850   35.6590  -11.7200 N.3    37  ALA37      -0.1245
     47  CA       -11.8850   36.6730  -11.2580 C.3    37  ALA37       0.1562
     48  C        -10.8570   36.7670  -12.3650 C.2    37  ALA37       0.2260
     49  O        -10.4210   35.7470  -12.9120 O.2    37  ALA37      -0.2867
     50  CB       -11.2640   36.2980   -9.9060 C.3    37  ALA37       0.0290
     51  N         -7.3560   38.7370  -13.7860 N.3    39  LYS39      -0.1245
     52  CA        -6.1880   39.4590  -13.3660 C.3    39  LYS39       0.1561
     53  C         -5.5680   40.0730  -14.5810 C.2    39  LYS39       0.2260
     54  O         -5.5100   39.4470  -15.6560 O.2    39  LYS39      -0.2867
     55  CB        -5.1970   38.5370  -12.6250 C.3    39  LYS39       0.0271
     56  CG        -3.7910   39.0780  -12.4590 C.3    39  LYS39       0.0035
     57  CD        -3.0110   38.2220  -11.4610 C.3    39  LYS39       0.0206
     58  CE        -1.8850   39.0530  -10.8760 C.3    39  LYS39       0.1093
     59  NZ        -0.9830   38.2630  -10.0200 N.3    39  LYS39      -0.1314
     60  N        -14.2060   32.2930   -9.4040 N.3    84  TYR84      -0.1227
     61  CA       -14.5470   33.3860   -8.5100 C.3    84  TYR84       0.1736
     62  C        -14.7280   32.8550   -7.0890 C.2    84  TYR84       0.2595
     63  O        -15.5290   31.9570   -6.8650 O.2    84  TYR84      -0.2718
     64  CB       -15.8220   34.0830   -8.9910 C.3    84  TYR84       0.0548
     65  CG       -16.1410   35.3360   -8.2150 C.ar   84  TYR84      -0.0200
     66  CD1      -15.1760   36.3370   -8.0610 C.ar   84  TYR84      -0.0009
     67  CD2      -17.4100   35.5370   -7.6530 C.ar   84  TYR84      -0.0009
     68  CE1      -15.4490   37.4730   -7.3410 C.ar   84  TYR84       0.0417
     69  CE2      -17.7010   36.6820   -6.9410 C.ar   84  TYR84       0.0417
     70  CZ       -16.7120   37.6470   -6.7750 C.ar   84  TYR84       0.1957
     71  OH       -16.9590   38.8060   -6.0530 O.3    84  TYR84      -0.2866
     72  N        -13.9690   33.3930   -6.1400 N.am   85  MET85      -0.1965
     73  CA       -14.1300   33.0060   -4.7280 C.3    85  MET85       0.1736
     74  C        -14.8450   34.1520   -4.0270 C.2    85  MET85       0.2617
     75  O        -14.2310   35.1620   -3.6740 O.2    85  MET85      -0.2715
     76  CB       -12.7830   32.6960   -4.0880 C.3    85  MET85       0.0427
     77  CG       -12.0540   31.5510   -4.7720 C.3    85  MET85       0.0599
     78  SD       -13.0620   30.0320   -4.7740 S.3    85  MET85      -0.1393
     79  CE       -13.0510   29.5200   -3.0490 C.3    85  MET85       0.0692
     80  N        -16.1420   33.9830   -3.8310 N.am   86  SER86      -0.1936
     81  CA       -17.0550   35.1090   -3.6640 C.3    86  SER86       0.2055
     82  C        -16.8770   35.9180   -2.3850 C.2    86  SER86       0.2643
     83  O        -17.2660   37.0790   -2.3490 O.2    86  SER86      -0.2714
     84  CB       -18.4970   34.6340   -3.7700 C.3    86  SER86       0.2130
     85  OG       -18.7690   33.7160   -2.7250 O.3    86  SER86      -0.2179
     86  N        -16.2590   35.3330   -1.3550 N.am   87  LYS87      -0.1963
     87  CA       -16.1080   36.0590   -0.0820 C.3    87  LYS87       0.1728
     88  C        -14.7080   36.6300    0.1640 C.2    87  LYS87       0.2617
     89  O        -14.4190   37.1670    1.2470 O.2    87  LYS87      -0.2715
     90  CB       -16.6970   35.2590    1.1150 C.3    87  LYS87       0.0311
     91  CG       -18.2450   35.0100    0.9200 C.3    87  LYS87       0.0038
     92  CD       -19.0770   34.9800    2.2330 C.3    87  LYS87       0.0206
     93  CE       -19.6400   36.3950    2.6610 C.3    87  LYS87       0.1093
     94  NZ       -20.3960   36.3230    3.9920 N.3    87  LYS87      -0.1314
     95  N        -13.8540   36.5740   -0.8580 N.am   88  GLY88      -0.1940
     96  CA       -12.5680   37.2960   -0.7850 C.3    88  GLY88       0.2014
     97  C        -11.5380   36.5220    0.0370 C.2    88  GLY88       0.2639
     98  O        -11.6770   35.3050    0.2280 O.2    88  GLY88      -0.2714
     99  N        -10.5190   37.2160    0.5150 N.am   89  CYS89      -0.1967
    100  CA        -9.4360   36.5820    1.2230 C.3    89  CYS89       0.1712
    101  C         -9.7470   36.2170    2.6860 C.2    89  CYS89       0.2296
    102  O        -10.5110   36.9020    3.3570 O.2    89  CYS89      -0.2864
    103  CB        -8.1650   37.4370    1.1120 C.3    89  CYS89       0.0983
    104  SG        -7.9850   38.8220    2.2900 S.3    89  CYS89      -0.0798
    105  N         -7.9100   36.3120    5.5020 N.3    91  LEU91      -0.1231
    106  CA        -7.6140   37.4280    6.4420 C.3    91  LEU91       0.1693
    107  C         -8.7900   38.4420    6.6000 C.2    91  LEU91       0.2592
    108  O         -9.3110   38.6400    7.6920 O.2    91  LEU91      -0.2718
    109  CB        -6.3320   38.1460    6.0070 C.3    91  LEU91       0.0284
    110  CG        -5.8060   39.2600    6.8850 C.3    91  LEU91       0.0019
    111  CD1       -5.3250   38.7120    8.2510 C.3    91  LEU91       0.0001
    112  CD2       -4.6880   39.9320    6.1040 C.3    91  LEU91       0.0001
    113  N         -9.2270   39.0640    5.5150 N.am   92  ASP92      -0.1974
    114  CA       -10.4130   39.9540    5.5900 C.3    92  ASP92       0.1709
    115  C        -11.6640   39.2590    6.1050 C.2    92  ASP92       0.2293
    116  O        -12.5160   39.8570    6.7260 O.2    92  ASP92      -0.2864
    117  CB       -10.6630   40.6080    4.2400 C.3    92  ASP92       0.1436
    118  CG        -9.5790   41.6310    3.9010 C.2    92  ASP92       0.3671
    119  OD1       -8.9790   42.1700    4.8850 O.co2  92  ASP92      -0.2456
    120  OD2       -9.3120   41.8960    2.6820 O.co2  92  ASP92      -0.2456
    121  N         -3.6060   35.7040    4.3770 N.3   134  ALA134     -0.1245
    122  CA        -3.7690   36.7390    3.3320 C.3   134  ALA134      0.1562
    123  C         -3.8610   36.1510    1.9590 C.2   134  ALA134      0.2260
    124  O         -4.2720   36.8370    1.0180 O.2   134  ALA134     -0.2867
    125  CB        -2.6290   37.8430    3.3430 C.3   134  ALA134      0.0290
    126  N         -8.2530   32.0410   -0.0520 N.3   137  LEU137     -0.1245
    127  CA        -9.4760   32.5490   -0.6060 C.3   137  LEU137      0.1561
    128  C        -10.6640   31.7530   -0.0210 C.2   137  LEU137      0.2260
    129  O        -10.5740   30.5450    0.2280 O.2   137  LEU137     -0.2867
    130  CB        -9.4270   32.4170   -2.1400 C.3   137  LEU137      0.0270
    131  CG        -8.5510   33.4110   -2.8990 C.3   137  LEU137      0.0019
    132  CD1       -8.4990   33.0770   -4.3230 C.3   137  LEU137      0.0001
    133  CD2       -9.0300   34.8480   -2.7760 C.3   137  LEU137      0.0001
    134  N         -1.3550   35.8410   -4.0400 N.3   149  PHE149     -0.1241
    135  CA        -1.5620   37.2080   -4.5290 C.3   149  PHE149      0.1605
    136  C         -0.2490   37.8410   -4.9840 C.2   149  PHE149      0.2264
    137  O         -0.2350   38.9450   -5.5450 O.2   149  PHE149     -0.2867
    138  CB        -2.1880   38.1040   -3.4330 C.3   149  PHE149      0.0534
    139  CG        -3.6660   37.8930   -3.2120 C.ar  149  PHE149     -0.0203
    140  CD1       -4.6080   38.5000   -4.0450 C.ar  149  PHE149     -0.0042
    141  CD2       -4.1110   37.1180   -2.1660 C.ar  149  PHE149     -0.0042
    142  CE1       -5.9860   38.3170   -3.8350 C.ar  149  PHE149     -0.0003
    143  CE2       -5.4770   36.9350   -1.9250 C.ar  149  PHE149     -0.0003
    144  CZ        -6.4200   37.5360   -2.7660 C.ar  149  PHE149     -0.0000
@<TRIPOS>BOND
     1    54    53    2
     2    53    52    1
     3    37    36   ar
     4    51    52    1
     5    52    55    1
     6    36    38   ar
     7    36    35    1
     8    49    48    2
     9    55    56    1
    10    56    57    1
    11    48    47    1
    12    27    26    1
    13    27    28    1
    14    34    35    1
    15    34    31    1
    16    30    28   am
    17    30    31    1
    18    33    32    2
    19    46    47    1
    20    57    58    1
    21    28    29    2
    22    31    32    1
    23    32    39   am
    24    47    50    1
    25    58    59    1
    26    21    19   am
    27    39    40    1
    28    41    40    1
    29    41    42    2
    30    40    43    1
    31    19    20    2
    32    19    18    1
    33    18    17    1
    34    60    61    1
    35    45    43    1
    36    25    24    2
    37    43    44    1
    38    64    61    1
    39    64    65    1
    40    61    62    1
    41    12    11    2
    42    17    14    1
    43    65    66   ar
    44    65    67   ar
    45    24    23    1
    46     1     2    1
    47    66    68   ar
    48    67    69   ar
    49    14    15    1
    50    14    13    1
    51     7     6    1
    52    22    23    1
    53    22    15   am
    54    68    70   ar
    55     6     5    1
    56     6     8    1
    57    11    13   am
    58    11    10    1
    59    62    63    2
    60    62    72   am
    61     5     2    1
    62    69    70   ar
    63     2     3    1
    64    15    16    2
    65    70    71    1
    66     9    10    1
    67     9     3   am
    68    72    73    1
    69     3     4    2
    70   137   136    2
    71   136   135    1
    72    78    77    1
    73    78    79    1
    74    77    76    1
    75    73    76    1
    76    73    74    1
    77   135   134    1
    78   135   138    1
    79   132   131    1
    80   140   142   ar
    81   140   139   ar
    82    74    80   am
    83    74    75    2
    84   142   144   ar
    85    80    81    1
    86    84    81    1
    87    84    85    1
    88    81    82    1
    89   138   139    1
    90   139   141   ar
    91   131   133    1
    92   131   130    1
    93   144   143   ar
    94    82    83    2
    95    82    86   am
    96   141   143   ar
    97   130   127    1
    98    86    87    1
    99    95    96    1
   100    95    88   am
   101    96    97    1
   102   127   126    1
   103   127   128    1
   104    87    88    1
   105    87    90    1
   106   128   129    2
   107    97    98    2
   108    97    99   am
   109    88    89    2
   110    99   100    1
   111    91    90    1
   112    91    92    1
   113   124   123    2
   114   103   100    1
   115   103   104    1
   116   100   101    1
   117   123   122    1
   118    92    93    1
   119    93    94    1
   120   120   118   ar
   121   101   102    2
   122   122   125    1
   123   122   121    1
   124   118   117    1
   125   118   119   ar
   126   117   114    1
   127   105   106    1
   128   113   114    1
   129   113   107   am
   130   114   115    1
   131   109   106    1
   132   109   110    1
   133   112   110    1
   134   115   116    2
   135   106   107    1
   136   107   108    2
   137   110   111    1
