@<TRIPOS>MOLECULE
tmp/3f3tA00.pdb
 164 153 0 0 0
SMALL
GASTEIGER

@<TRIPOS>ATOM
      1  N         -7.2740   43.3660  -10.5220 N.3    25  VAL25      -0.1245
      2  CA        -8.0210   42.1380  -10.3730 C.3    25  VAL25       0.1561
      3  C         -9.4740   42.5400  -10.3830 C.2    25  VAL25       0.2260
      4  O         -9.8880   43.3650   -9.5650 O.2    25  VAL25      -0.2867
      5  CB        -7.6530   41.4040   -9.0470 C.3    25  VAL25       0.0252
      6  CG1       -8.7700   40.4430   -8.6200 C.3    25  VAL25       0.0019
      7  CG2       -6.3240   40.6450   -9.2070 C.3    25  VAL25       0.0019
      8  N        -12.7850   35.6590  -11.7200 N.3    37  ALA37      -0.1245
      9  CA       -11.8850   36.6730  -11.2580 C.3    37  ALA37       0.1562
     10  C        -10.8570   36.7670  -12.3650 C.2    37  ALA37       0.2260
     11  O        -10.4210   35.7470  -12.9120 O.2    37  ALA37      -0.2867
     12  CB       -11.2640   36.2980   -9.9060 C.3    37  ALA37       0.0290
     13  N         -7.3560   38.7370  -13.7860 N.3    39  LYS39      -0.1245
     14  CA        -6.1880   39.4590  -13.3660 C.3    39  LYS39       0.1561
     15  C         -5.5680   40.0730  -14.5810 C.2    39  LYS39       0.2260
     16  O         -5.5100   39.4470  -15.6560 O.2    39  LYS39      -0.2867
     17  CB        -5.1970   38.5370  -12.6250 C.3    39  LYS39       0.0271
     18  CG        -3.7910   39.0780  -12.4590 C.3    39  LYS39       0.0035
     19  CD        -3.0110   38.2220  -11.4610 C.3    39  LYS39       0.0206
     20  CE        -1.8850   39.0530  -10.8760 C.3    39  LYS39       0.1093
     21  NZ        -0.9830   38.2630  -10.0200 N.3    39  LYS39      -0.1314
     22  N          3.9670   33.6990  -16.4020 N.3    53  GLN53      -0.1231
     23  CA         4.6650   32.5870  -15.7730 C.3    53  GLN53       0.1698
     24  C          3.8030   32.0480  -14.6360 C.2    53  GLN53       0.2592
     25  O          4.0020   30.9210  -14.1850 O.2    53  GLN53      -0.2718
     26  CB         6.0610   32.9970  -15.2950 C.3    53  GLN53       0.0381
     27  CG         7.1010   31.8680  -15.3780 C.3    53  GLN53       0.0905
     28  CD         8.4410   32.3020  -16.0040 C.2    53  GLN53       0.2608
     29  OE1        9.3960   31.5170  -16.0610 O.2    53  GLN53      -0.2717
     30  NE2        8.5130   33.5490  -16.4750 N.am   53  GLN53      -0.0878
     31  N          2.8210   32.8530  -14.2160 N.am   54  GLU54      -0.1979
     32  CA         1.8740   32.4850  -13.1560 C.3    54  GLU54       0.1602
     33  C          0.8730   31.4260  -13.6160 C.2    54  GLU54       0.2287
     34  O          0.6850   30.4260  -12.9410 O.2    54  GLU54      -0.2864
     35  CB         1.1270   33.7170  -12.6360 C.3    54  GLU54       0.0415
     36  CG         0.1150   33.4030  -11.5660 C.3    54  GLU54       0.1163
     37  CD        -0.5680   34.6380  -11.0160 C.2    54  GLU54       0.3649
     38  OE1       -0.5120   35.7140  -11.6550 O.co2  54  GLU54      -0.2457
     39  OE2       -1.1730   34.5350   -9.9350 O.co2  54  GLU54      -0.2457
     40  N          2.1830   27.9690  -14.1980 N.3    57  VAL57      -0.1231
     41  CA         2.2650   27.1880  -12.9700 C.3    57  VAL57       0.1692
     42  C          0.8910   26.6700  -12.5710 C.2    57  VAL57       0.2591
     43  O          0.7590   25.5670  -12.0490 O.2    57  VAL57      -0.2718
     44  CB         2.8740   28.0460  -11.8180 C.3    57  VAL57       0.0266
     45  CG1        2.2400   27.7290  -10.4700 C.3    57  VAL57       0.0020
     46  CG2        4.3920   27.8820  -11.7880 C.3    57  VAL57       0.0020
     47  N         -0.1400   27.4640  -12.8150 N.am   58  MET58      -0.1979
     48  CA        -1.4730   27.0680  -12.4110 C.3    58  MET58       0.1605
     49  C         -2.0900   26.0150  -13.3440 C.2    58  MET58       0.2287
     50  O         -3.0290   25.3200  -12.9570 O.2    58  MET58      -0.2864
     51  CB        -2.3570   28.3040  -12.2640 C.3    58  MET58       0.0413
     52  CG        -1.7700   29.3290  -11.3270 C.3    58  MET58       0.0598
     53  SD        -2.8410   30.7160  -10.9780 S.3    58  MET58      -0.1393
     54  CE        -3.5760   31.0560  -12.5810 C.3    58  MET58       0.0692
     55  N         -1.0330   22.5760  -11.7800 N.3    61  LEU61      -0.1245
     56  CA        -1.5820   22.3620  -10.4350 C.3    61  LEU61       0.1561
     57  C         -3.1300   22.3690  -10.4550 C.2    61  LEU61       0.2260
     58  O         -3.7530   23.4050  -10.5880 O.2    61  LEU61      -0.2867
     59  CB        -0.9850   23.3790   -9.4440 C.3    61  LEU61       0.0270
     60  CG         0.5370   23.2110   -9.1550 C.3    61  LEU61       0.0019
     61  CD1        1.1640   24.3490   -8.3230 C.3    61  LEU61       0.0001
     62  CD2        0.8780   21.8750   -8.5060 C.3    61  LEU61       0.0001
     63  N         -7.0480   24.2160   -4.2790 N.3    66  LEU66      -0.1231
     64  CA        -6.2630   25.3390   -4.8100 C.3    66  LEU66       0.1693
     65  C         -7.0750   26.0670   -5.8630 C.2    66  LEU66       0.2591
     66  O         -7.6740   25.4310   -6.7570 O.2    66  LEU66      -0.2718
     67  CB        -4.9770   24.8790   -5.4900 C.3    66  LEU66       0.0284
     68  CG        -4.0590   23.7230   -5.0510 C.3    66  LEU66       0.0019
     69  CD1       -2.8210   23.8310   -5.9210 C.3    66  LEU66       0.0001
     70  CD2       -3.6880   23.6900   -3.5420 C.3    66  LEU66       0.0001
     71  N         -7.0820   27.3960   -5.8050 N.am   67  VAL67      -0.1980
     72  CA        -7.8260   28.1910   -6.7790 C.3    67  VAL67       0.1595
     73  C         -7.5030   27.6950   -8.1800 C.2    67  VAL67       0.2287
     74  O         -6.3660   27.3260   -8.4800 O.2    67  VAL67      -0.2864
     75  CB        -7.4940   29.6850   -6.6790 C.3    67  VAL67       0.0276
     76  CG1       -8.7010   30.5170   -7.1090 C.3    67  VAL67       0.0022
     77  CG2       -7.1830   30.0240   -5.3070 C.3    67  VAL67       0.0022
     78  N         -5.3460   36.6740  -16.9930 N.3    80  ILE80      -0.1245
     79  CA        -5.3940   35.3640  -16.3330 C.3    80  ILE80       0.1561
     80  C         -6.7420   35.3050  -15.6010 C.2    80  ILE80       0.2260
     81  O         -7.0960   36.2250  -14.8700 O.2    80  ILE80      -0.2867
     82  CB        -4.2230   35.2350  -15.3340 C.3    80  ILE80       0.0252
     83  CG1       -2.8680   35.2290  -16.0750 C.3    80  ILE80       0.0019
     84  CG2       -4.3830   34.0310  -14.4200 C.3    80  ILE80       0.0019
     85  CD1       -1.6400   35.1980  -15.1430 C.3    80  ILE80       0.0001
     86  N         -9.5920   33.0100  -13.3830 N.3    82  THR82      -0.1218
     87  CA        -9.7370   31.8810  -12.4850 C.3    82  THR82       0.1862
     88  C        -11.1720   31.8540  -12.0220 C.2    82  THR82       0.2287
     89  O        -11.9500   32.7740  -12.3360 O.2    82  THR82      -0.2866
     90  CB        -8.9070   32.0560  -11.2220 C.3    82  THR82       0.1770
     91  OG1       -9.3620   33.2280  -10.5470 O.3    82  THR82      -0.2211
     92  CG2       -7.4720   32.1980  -11.5380 C.3    82  THR82       0.0375
     93  N         -0.0490   20.0230   -2.8330 N.3   121  VAL121     -0.1245
     94  CA         1.2240   20.6980   -3.0900 C.3   121  VAL121      0.1561
     95  C          2.3800   19.7810   -2.6100 C.2   121  VAL121      0.2260
     96  O          3.3570   19.5580   -3.3420 O.2   121  VAL121     -0.2867
     97  CB         1.2260   22.0840   -2.3990 C.3   121  VAL121      0.0252
     98  CG1        2.6120   22.7140   -2.3360 C.3   121  VAL121      0.0019
     99  CG2        0.2290   23.0460   -3.0890 C.3   121  VAL121      0.0019
    100  N          5.9530   20.5760   -4.7240 N.3   126  TYR126     -0.1241
    101  CA         5.9940   22.0070   -4.9170 C.3   126  TYR126      0.1605
    102  C          6.1670   22.6740   -3.5480 C.2   126  TYR126      0.2264
    103  O          6.1470   21.9910   -2.5290 O.2   126  TYR126     -0.2867
    104  CB         4.7240   22.4360   -5.6110 C.3   126  TYR126      0.0534
    105  CG         4.7350   23.8260   -6.1980 C.ar  126  TYR126     -0.0201
    106  CD1        5.4310   24.1040   -7.3690 C.ar  126  TYR126     -0.0009
    107  CD2        3.9990   24.8660   -5.5860 C.ar  126  TYR126     -0.0009
    108  CE1        5.4170   25.3950   -7.9120 C.ar  126  TYR126      0.0417
    109  CE2        3.9810   26.1430   -6.1100 C.ar  126  TYR126      0.0417
    110  CZ         4.6730   26.4090   -7.2810 C.ar  126  TYR126      0.1957
    111  OH         4.6250   27.6780   -7.8210 O.3   126  TYR126     -0.2866
    112  N          5.0960   26.3910   -1.3390 N.3   128  HIS128     -0.1241
    113  CA         4.3500   27.6390   -1.4110 C.3   128  HIS128      0.1621
    114  C          5.2140   28.8740   -1.1960 C.2   128  HIS128      0.2264
    115  O          5.2820   29.7320   -2.0770 O.2   128  HIS128     -0.2867
    116  CB         3.1540   27.6570   -0.4730 C.3   128  HIS128      0.0745
    117  CG         2.1550   28.7180   -0.8170 C.ar  128  HIS128      0.0817
    118  ND1        2.4220   30.0710   -0.6900 N.ar  128  HIS128     -0.2268
    119  CD2        0.8910   28.6240   -1.2880 C.ar  128  HIS128      0.1154
    120  CE1        1.3550   30.7580   -1.0530 C.ar  128  HIS128      0.1986
    121  NE2        0.4080   29.9010   -1.4050 N.ar  128  HIS128     -0.2212
    122  N         -8.2530   32.0410   -0.0520 N.3   137  LEU137     -0.1245
    123  CA        -9.4760   32.5490   -0.6060 C.3   137  LEU137      0.1561
    124  C        -10.6640   31.7530   -0.0210 C.2   137  LEU137      0.2260
    125  O        -10.5740   30.5450    0.2280 O.2   137  LEU137     -0.2867
    126  CB        -9.4270   32.4170   -2.1400 C.3   137  LEU137      0.0270
    127  CG        -8.5510   33.4110   -2.8990 C.3   137  LEU137      0.0019
    128  CD1       -8.4990   33.0770   -4.3230 C.3   137  LEU137      0.0001
    129  CD2       -9.0300   34.8480   -2.7760 C.3   137  LEU137      0.0001
    130  N         -6.2000   27.4520   -1.3940 N.3   146  VAL146     -0.1231
    131  CA        -4.8770   28.0240   -1.3490 C.3   146  VAL146      0.1692
    132  C         -4.6720   28.8750   -2.5990 C.2   146  VAL146      0.2592
    133  O         -5.0490   28.4820   -3.7420 O.2   146  VAL146     -0.2718
    134  CB        -3.8190   26.8900   -1.2800 C.3   146  VAL146      0.0266
    135  CG1       -2.4040   27.4160   -1.4150 C.3   146  VAL146      0.0020
    136  CG2       -3.9660   26.1100    0.0170 C.3   146  VAL146      0.0020
    137  N         -4.0810   30.0550   -2.3860 N.am  147  ALA147     -0.1966
    138  CA        -3.8530   30.9850   -3.5000 C.3   147  ALA147      0.1728
    139  C         -2.5080   31.6890   -3.3600 C.2   147  ALA147      0.2616
    140  O         -1.7490   31.3980   -2.4350 O.2   147  ALA147     -0.2715
    141  CB        -5.0040   31.9890   -3.5520 C.3   147  ALA147      0.0334
    142  N         -2.1940   32.6050   -4.2670 N.am  148  ASP148     -0.1957
    143  CA        -1.0130   33.4480   -4.0750 C.3   148  ASP148      0.1840
    144  C         -1.1930   34.7610   -4.8170 C.2   148  ASP148      0.2622
    145  O         -1.1870   34.7780   -6.0360 O.2   148  ASP148     -0.2715
    146  CB         0.2690   32.7190   -4.5040 C.3   148  ASP148      0.1450
    147  CG         1.5660   33.4630   -4.1030 C.2   148  ASP148      0.3671
    148  OD1        1.5610   34.7150   -3.9760 O.co2 148  ASP148     -0.2456
    149  OD2        2.6210   32.7750   -3.9530 O.co2 148  ASP148     -0.2456
    150  N         -1.3550   35.8410   -4.0400 N.am  149  PHE149     -0.1960
    151  CA        -1.5620   37.2080   -4.5290 C.3   149  PHE149      0.1771
    152  C         -0.2490   37.8410   -4.9840 C.2   149  PHE149      0.2620
    153  O         -0.2350   38.9450   -5.5450 O.2   149  PHE149     -0.2715
    154  CB        -2.1880   38.1040   -3.4330 C.3   149  PHE149      0.0574
    155  CG        -3.6660   37.8930   -3.2120 C.ar  149  PHE149     -0.0200
    156  CD1       -4.6080   38.5000   -4.0450 C.ar  149  PHE149     -0.0042
    157  CD2       -4.1110   37.1180   -2.1660 C.ar  149  PHE149     -0.0042
    158  CE1       -5.9860   38.3170   -3.8350 C.ar  149  PHE149     -0.0003
    159  CE2       -5.4770   36.9350   -1.9250 C.ar  149  PHE149     -0.0003
    160  CZ        -6.4200   37.5360   -2.7660 C.ar  149  PHE149     -0.0000
    161  N          0.8600   37.1650   -4.7120 N.am  150  GLY150     -0.1954
    162  CA         2.1190   37.5200   -5.3680 C.3   150  GLY150      0.1869
    163  C          2.7360   38.8560   -5.0220 C.2   150  GLY150      0.2309
    164  O          3.2250   39.5380   -5.9050 O.2   150  GLY150     -0.2863
@<TRIPOS>BOND
     1    78    79    1
     2    30    28   am
     3    22    23    1
     4    79    80    1
     5    79    82    1
     6    83    82    1
     7    83    85    1
     8    29    28    2
     9    28    27    1
    10    23    26    1
    11    23    24    1
    12    16    15    2
    13    80    81    2
    14    27    26    1
    15    82    84    1
    16    24    31   am
    17    24    25    2
    18    15    14    1
    19    31    32    1
    20    40    41    1
    21    13    14    1
    22    33    32    1
    23    33    34    2
    24    86    87    1
    25    14    17    1
    26    49    50    2
    27    49    48    1
    28    32    35    1
    29    41    42    1
    30    41    44    1
    31    11    10    2
    32    47    42   am
    33    47    48    1
    34    35    36    1
    35    17    18    1
    36    54    53    1
    37    42    43    2
    38    87    88    1
    39    87    90    1
    40    18    19    1
    41    48    51    1
    42    10     9    1
    43    89    88    2
    44    51    52    1
    45    44    46    1
    46    44    45    1
    47    55    56    1
    48     8     9    1
    49    38    37   ar
    50    36    37    1
    51    92    90    1
    52    19    20    1
    53    52    53    1
    54     9    12    1
    55    90    91    1
    56    37    39   ar
    57    20    21    1
    58    58    57    2
    59     1     2    1
    60    57    56    1
    61    56    59    1
    62     3     2    1
    63     3     4    2
    64     2     5    1
    65    59    60    1
    66     7     5    1
    67    60    62    1
    68    60    61    1
    69     5     6    1
    70    74    73    2
    71    73    72    1
    72   108   106   ar
    73   108   110   ar
    74   111   110    1
    75   106   105   ar
    76   110   109   ar
    77    76    75    1
    78    72    75    1
    79    72    71    1
    80    66    65    2
    81    75    77    1
    82   105   104    1
    83   105   107   ar
    84   109   107   ar
    85   145   144    2
    86    69    68    1
    87   164   163    2
    88    65    71   am
    89    65    64    1
    90   104   101    1
    91   153   152    2
    92    67    68    1
    93    67    64    1
    94   162   163    1
    95   162   161    1
    96    68    70    1
    97   152   161   am
    98   152   151    1
    99   101   100    1
   100   101   102    1
   101   144   143    1
   102   144   150   am
   103    64    63    1
   104   151   150    1
   105   151   154    1
   106   146   147    1
   107   146   143    1
   108   128   127    1
   109   142   143    1
   110   142   139   am
   111   147   148   ar
   112   147   149   ar
   113   156   158   ar
   114   156   155   ar
   115   158   160   ar
   116   133   132    2
   117   141   138    1
   118   102   103    2
   119   138   139    1
   120   138   137    1
   121   154   155    1
   122   139   140    2
   123    96    95    2
   124   155   157   ar
   125    94    93    1
   126    94    95    1
   127    94    97    1
   128    99    97    1
   129   127   129    1
   130   127   126    1
   131   160   159   ar
   132   132   137   am
   133   132   131    1
   134    97    98    1
   135   157   159   ar
   136   126   123    1
   137   115   114    2
   138   135   134    1
   139   113   112    1
   140   113   114    1
   141   113   116    1
   142   121   119   ar
   143   121   120   ar
   144   130   131    1
   145   131   134    1
   146   119   117   ar
   147   134   136    1
   148   120   118   ar
   149   117   118   ar
   150   117   116    1
   151   123   122    1
   152   123   124    1
   153   124   125    2
