@<TRIPOS>MOLECULE
tmp/3f3uA00.pdb
 164 153 0 0 0
SMALL
GASTEIGER

@<TRIPOS>ATOM
      1  N         -6.8920   43.1240   -9.1290 N.3    25  VAL25      -0.1245
      2  CA        -7.8210   42.0230   -9.2750 C.3    25  VAL25       0.1561
      3  C         -9.2610   42.5070   -9.2780 C.2    25  VAL25       0.2260
      4  O         -9.6710   43.2780   -8.4260 O.2    25  VAL25      -0.2867
      5  CB        -7.5780   40.9110   -8.2700 C.3    25  VAL25       0.0252
      6  CG1       -8.4710   39.7280   -8.6040 C.3    25  VAL25       0.0019
      7  CG2       -6.1220   40.4870   -8.3310 C.3    25  VAL25       0.0019
      8  N        -12.5280   35.6150  -10.8840 N.3    37  ALA37      -0.1245
      9  CA       -11.5180   36.5560  -10.4080 C.3    37  ALA37       0.1562
     10  C        -10.5320   36.8280  -11.5390 C.2    37  ALA37       0.2260
     11  O        -10.0330   35.8970  -12.1890 O.2    37  ALA37      -0.2867
     12  CB       -10.7980   36.0100   -9.2060 C.3    37  ALA37       0.0290
     13  N         -7.0640   38.6450  -12.5630 N.3    39  LYS39      -0.1245
     14  CA        -5.7930   39.3200  -12.3120 C.3    39  LYS39       0.1561
     15  C         -5.3430   40.1060  -13.5430 C.2    39  LYS39       0.2260
     16  O         -5.5250   39.6630  -14.6910 O.2    39  LYS39      -0.2867
     17  CB        -4.7180   38.3230  -11.8940 C.3    39  LYS39       0.0271
     18  CG        -3.4370   38.9630  -11.4110 C.3    39  LYS39       0.0035
     19  CD        -2.7230   38.1220  -10.3620 C.3    39  LYS39       0.0206
     20  CE        -1.2970   38.6340  -10.1830 C.3    39  LYS39       0.1093
     21  NZ        -0.6550   38.2290   -8.9000 N.3    39  LYS39      -0.1314
     22  N          4.2660   33.5190  -15.4170 N.3    53  GLN53      -0.1231
     23  CA         4.8570   32.4490  -14.6220 C.3    53  GLN53       0.1698
     24  C          3.8670   31.9590  -13.5730 C.2    53  GLN53       0.2592
     25  O          3.9490   30.8180  -13.1130 O.2    53  GLN53      -0.2718
     26  CB         6.1680   32.8990  -13.9710 C.3    53  GLN53       0.0381
     27  CG         7.3660   32.8710  -14.9060 C.3    53  GLN53       0.0905
     28  CD         7.4430   31.5870  -15.7160 C.2    53  GLN53       0.2608
     29  OE1        8.1700   30.6530  -15.3590 O.2    53  GLN53      -0.2717
     30  NE2        6.6790   31.5270  -16.8070 N.am   53  GLN53      -0.0878
     31  N          2.9200   32.8210  -13.2200 N.am   54  GLU54      -0.1979
     32  CA         1.8580   32.4630  -12.2880 C.3    54  GLU54       0.1602
     33  C          0.9190   31.4050  -12.8680 C.2    54  GLU54       0.2287
     34  O          0.6680   30.3700  -12.2400 O.2    54  GLU54      -0.2864
     35  CB         1.0760   33.7100  -11.8940 C.3    54  GLU54       0.0415
     36  CG        -0.0410   33.4660  -10.9040 C.3    54  GLU54       0.1163
     37  CD        -0.6050   34.7580  -10.3710 C.2    54  GLU54       0.3649
     38  OE1       -1.2450   34.7210   -9.2920 O.co2  54  GLU54      -0.2457
     39  OE2       -0.3950   35.8100  -11.0250 O.co2  54  GLU54      -0.2457
     40  N          2.5300   27.9370  -13.2390 N.3    57  VAL57      -0.1231
     41  CA         2.6620   27.1930  -11.9990 C.3    57  VAL57       0.1692
     42  C          1.2930   26.6890  -11.5350 C.2    57  VAL57       0.2591
     43  O          1.1820   25.5780  -11.0130 O.2    57  VAL57      -0.2718
     44  CB         3.4240   27.9900  -10.9160 C.3    57  VAL57       0.0266
     45  CG1        3.4010   27.2500   -9.5990 C.3    57  VAL57       0.0020
     46  CG2        4.8800   28.2260  -11.3530 C.3    57  VAL57       0.0020
     47  N          0.2500   27.4770  -11.7760 N.am   58  MET58      -0.1979
     48  CA        -1.1090   27.0600  -11.4100 C.3    58  MET58       0.1605
     49  C         -1.6680   25.9940  -12.3540 C.2    58  MET58       0.2287
     50  O         -2.6460   25.3200  -12.0340 O.2    58  MET58      -0.2864
     51  CB        -2.0590   28.2660  -11.3420 C.3    58  MET58       0.0413
     52  CG        -1.7650   29.2380  -10.2060 C.3    58  MET58       0.0598
     53  SD        -2.8310   30.6750  -10.2700 S.3    58  MET58      -0.1393
     54  CE        -4.4090   29.9230   -9.8270 C.3    58  MET58       0.0692
     55  N         -0.9660   22.4590  -10.9750 N.3    61  LEU61      -0.1245
     56  CA        -1.4960   22.2330   -9.6240 C.3    61  LEU61       0.1561
     57  C         -3.0080   22.3580   -9.5300 C.2    61  LEU61       0.2260
     58  O         -3.5250   23.4590   -9.3490 O.2    61  LEU61      -0.2867
     59  CB        -0.8650   23.2090   -8.6310 C.3    61  LEU61       0.0270
     60  CG         0.6280   23.0640   -8.3940 C.3    61  LEU61       0.0019
     61  CD1        1.0490   24.1300   -7.4360 C.3    61  LEU61       0.0001
     62  CD2        0.9960   21.6600   -7.8710 C.3    61  LEU61       0.0001
     63  N         -7.0370   24.0240   -3.4720 N.3    66  LEU66      -0.1231
     64  CA        -6.2380   25.0530   -4.1080 C.3    66  LEU66       0.1693
     65  C         -7.0960   25.7740   -5.0900 C.2    66  LEU66       0.2591
     66  O         -7.8200   25.1570   -5.8710 O.2    66  LEU66      -0.2718
     67  CB        -5.0750   24.4890   -4.9040 C.3    66  LEU66       0.0284
     68  CG        -3.9870   23.6420   -4.2740 C.3    66  LEU66       0.0019
     69  CD1       -2.7290   23.8170   -5.0910 C.3    66  LEU66       0.0001
     70  CD2       -3.7630   23.9730   -2.8050 C.3    66  LEU66       0.0001
     71  N         -6.9650   27.0890   -5.0820 N.am   67  VAL67      -0.1980
     72  CA        -7.6680   27.9500   -5.9830 C.3    67  VAL67       0.1595
     73  C         -7.3490   27.5620   -7.4240 C.2    67  VAL67       0.2287
     74  O         -6.1990   27.3790   -7.7780 O.2    67  VAL67      -0.2864
     75  CB        -7.2780   29.4010   -5.7060 C.3    67  VAL67       0.0276
     76  CG1       -5.9350   29.7200   -6.3680 C.3    67  VAL67       0.0022
     77  CG2       -8.3460   30.3320   -6.2150 C.3    67  VAL67       0.0022
     78  N         -5.1570   36.9300  -16.0050 N.3    80  ILE80      -0.1245
     79  CA        -5.1440   35.5820  -15.4220 C.3    80  ILE80       0.1561
     80  C         -6.4940   35.3970  -14.7340 C.2    80  ILE80       0.2260
     81  O         -6.8630   36.2140  -13.8880 O.2    80  ILE80      -0.2867
     82  CB        -3.9930   35.4360  -14.3880 C.3    80  ILE80       0.0252
     83  CG1       -2.6450   35.3900  -15.1100 C.3    80  ILE80       0.0019
     84  CG2       -4.1790   34.1980  -13.5000 C.3    80  ILE80       0.0019
     85  CD1       -1.4620   35.1390  -14.1920 C.3    80  ILE80       0.0001
     86  N         -9.1860   33.2210  -12.5270 N.3    82  THR82      -0.1218
     87  CA        -9.3870   32.1170  -11.5910 C.3    82  THR82       0.1862
     88  C        -10.8510   31.9550  -11.2100 C.2    82  THR82       0.2287
     89  O        -11.7200   32.7530  -11.6070 O.2    82  THR82      -0.2866
     90  CB        -8.5730   32.3120  -10.2980 C.3    82  THR82       0.1770
     91  OG1       -9.0720   33.4430   -9.5550 O.3    82  THR82      -0.2211
     92  CG2       -7.0880   32.4920  -10.6220 C.3    82  THR82       0.0375
     93  N         -0.0110   19.9320   -1.9800 N.3   121  VAL121     -0.1245
     94  CA         1.2720   20.5810   -2.1700 C.3   121  VAL121      0.1561
     95  C          2.4560   19.7350   -1.6840 C.2   121  VAL121      0.2260
     96  O          3.4210   19.5380   -2.4430 O.2   121  VAL121     -0.2867
     97  CB         1.2720   21.9740   -1.5850 C.3   121  VAL121      0.0252
     98  CG1        2.7100   22.5220   -1.4030 C.3   121  VAL121      0.0019
     99  CG2        0.4440   22.9020   -2.4870 C.3   121  VAL121      0.0019
    100  N          6.0920   20.4610   -3.7910 N.3   126  TYR126     -0.1241
    101  CA         6.1490   21.8810   -4.0080 C.3   126  TYR126      0.1605
    102  C          6.2230   22.5770   -2.6230 C.2   126  TYR126      0.2264
    103  O          6.0760   21.9290   -1.5760 O.2   126  TYR126     -0.2867
    104  CB         4.9150   22.2440   -4.8000 C.3   126  TYR126      0.0534
    105  CG         4.8610   23.6130   -5.4020 C.ar  126  TYR126     -0.0201
    106  CD1        5.3410   23.8430   -6.7010 C.ar  126  TYR126     -0.0009
    107  CD2        4.2290   24.6720   -4.7150 C.ar  126  TYR126     -0.0009
    108  CE1        5.2430   25.1180   -7.2840 C.ar  126  TYR126      0.0417
    109  CE2        4.1240   25.9450   -5.2810 C.ar  126  TYR126      0.0417
    110  CZ         4.6330   26.1620   -6.5670 C.ar  126  TYR126      0.1957
    111  OH         4.5290   27.4220   -7.1300 O.3   126  TYR126     -0.2866
    112  N          5.1500   26.3340   -0.5700 N.3   128  HIS128     -0.1241
    113  CA         4.3120   27.5090   -0.7730 C.3   128  HIS128      0.1621
    114  C          5.1550   28.7600   -0.5960 C.2   128  HIS128      0.2264
    115  O          5.1850   29.5980   -1.5110 O.2   128  HIS128     -0.2867
    116  CB         3.0830   27.5480    0.1530 C.3   128  HIS128      0.0745
    117  CG         2.1470   28.6770   -0.1550 C.ar  128  HIS128      0.0817
    118  ND1        2.3790   29.9720    0.2590 N.ar  128  HIS128     -0.2268
    119  CD2        0.9820   28.7090   -0.8410 C.ar  128  HIS128      0.1154
    120  CE1        1.4090   30.7530   -0.1700 C.ar  128  HIS128      0.1986
    121  NE2        0.5390   30.0050   -0.8200 N.ar  128  HIS128     -0.2212
    122  N         -8.1830   32.0220    0.6490 N.3   137  LEU137     -0.1245
    123  CA        -9.4820   32.4560    0.1380 C.3   137  LEU137      0.1561
    124  C        -10.6680   31.6520    0.7390 C.2   137  LEU137      0.2260
    125  O        -10.5990   30.4320    0.8800 O.2   137  LEU137     -0.2867
    126  CB        -9.5000   32.3070   -1.3900 C.3   137  LEU137      0.0270
    127  CG        -8.8270   33.3890   -2.2310 C.3   137  LEU137      0.0019
    128  CD1       -8.8940   33.0850   -3.7010 C.3   137  LEU137      0.0001
    129  CD2       -9.4560   34.7700   -1.9630 C.3   137  LEU137      0.0001
    130  N         -6.2900   27.3820   -0.6290 N.3   146  VAL146     -0.1231
    131  CA        -4.9140   27.9180   -0.6370 C.3   146  VAL146      0.1692
    132  C         -4.7450   28.7130   -1.9200 C.2   146  VAL146      0.2592
    133  O         -5.2310   28.3110   -2.9740 O.2   146  VAL146     -0.2718
    134  CB        -3.8300   26.7860   -0.4870 C.3   146  VAL146      0.0266
    135  CG1       -2.3850   27.3070   -0.6540 C.3   146  VAL146      0.0020
    136  CG2       -3.9460   26.1050    0.8680 C.3   146  VAL146      0.0020
    137  N         -4.1230   29.8870   -1.7980 N.am  147  ALA147     -0.1966
    138  CA        -3.9580   30.8320   -2.9080 C.3   147  ALA147      0.1728
    139  C         -2.6610   31.5670   -2.6670 C.2   147  ALA147      0.2616
    140  O         -1.9440   31.2780   -1.7020 O.2   147  ALA147     -0.2715
    141  CB        -5.1070   31.8280   -2.9550 C.3   147  ALA147      0.0334
    142  N         -2.3780   32.5340   -3.5330 N.am  148  ASP148     -0.1957
    143  CA        -1.2130   33.3580   -3.3760 C.3   148  ASP148      0.1840
    144  C         -1.4120   34.6760   -4.1260 C.2   148  ASP148      0.2622
    145  O         -1.5040   34.6770   -5.3440 O.2   148  ASP148     -0.2715
    146  CB        -0.0100   32.5800   -3.8980 C.3   148  ASP148      0.1450
    147  CG         1.3110   33.1850   -3.4880 C.2   148  ASP148      0.3671
    148  OD1        1.3570   34.4310   -3.2860 O.co2 148  ASP148     -0.2456
    149  OD2        2.3050   32.4010   -3.3880 O.co2 148  ASP148     -0.2456
    150  N         -1.4900   35.7890   -3.3870 N.am  149  PHE149     -0.1960
    151  CA        -1.5920   37.1340   -3.9930 C.3   149  PHE149      0.1771
    152  C         -0.2800   37.7000   -4.5470 C.2   149  PHE149      0.2620
    153  O         -0.3030   38.6490   -5.3410 O.2   149  PHE149     -0.2715
    154  CB        -2.2210   38.1450   -3.0310 C.3   149  PHE149      0.0574
    155  CG        -3.6380   37.8310   -2.6930 C.ar  149  PHE149     -0.0200
    156  CD1       -4.6720   38.1910   -3.5700 C.ar  149  PHE149     -0.0042
    157  CD2       -3.9490   37.1530   -1.5090 C.ar  149  PHE149     -0.0042
    158  CE1       -5.9920   37.8840   -3.2600 C.ar  149  PHE149     -0.0003
    159  CE2       -5.2680   36.8260   -1.1910 C.ar  149  PHE149     -0.0003
    160  CZ        -6.2930   37.1920   -2.0650 C.ar  149  PHE149     -0.0000
    161  N          0.8440   37.1120   -4.1400 N.am  150  GLY150     -0.1954
    162  CA         2.1570   37.5180   -4.6240 C.3   150  GLY150      0.1869
    163  C          2.6510   38.7510   -3.8990 C.2   150  GLY150      0.2309
    164  O          2.4650   39.8590   -4.3810 O.2   150  GLY150     -0.2863
@<TRIPOS>BOND
     1    30    28   am
     2    78    79    1
     3    28    29    2
     4    28    27    1
     5    79    80    1
     6    79    82    1
     7    22    23    1
     8    83    82    1
     9    83    85    1
    10    27    26    1
    11    80    81    2
    12    16    15    2
    13    23    26    1
    14    23    24    1
    15    82    84    1
    16    24    31   am
    17    24    25    2
    18    15    14    1
    19    40    41    1
    20    31    32    1
    21    33    32    1
    22    33    34    2
    23    13    14    1
    24    86    87    1
    25    49    50    2
    26    49    48    1
    27    14    17    1
    28    32    35    1
    29    11    10    2
    30    41    42    1
    31    41    44    1
    32    17    18    1
    33    35    36    1
    34    47    42   am
    35    47    48    1
    36    89    88    2
    37    87    88    1
    38    87    90    1
    39    10     9    1
    40    42    43    2
    41    18    19    1
    42    48    51    1
    43    46    44    1
    44    51    52    1
    45    39    37   ar
    46    55    56    1
    47    44    45    1
    48    36    37    1
    49     8     9    1
    50    92    90    1
    51     9    12    1
    52    37    38   ar
    53    19    20    1
    54    90    91    1
    55    53    52    1
    56    53    54    1
    57    20    21    1
    58    56    57    1
    59    56    59    1
    60    57    58    2
    61     3     2    1
    62     3     4    2
    63     2     1    1
    64     2     5    1
    65    59    60    1
    66     6     5    1
    67    60    62    1
    68    60    61    1
    69     7     5    1
    70    74    73    2
    71    73    72    1
    72   108   106   ar
    73   108   110   ar
    74   111   110    1
    75   106   105   ar
    76   110   109   ar
    77    76    75    1
    78    77    75    1
    79    72    75    1
    80    72    71    1
    81    66    65    2
    82   105   104    1
    83   105   107   ar
    84   145   144    2
    85   153   152    2
    86   109   107   ar
    87    69    68    1
    88    65    71   am
    89    65    64    1
    90    67    68    1
    91    67    64    1
    92   104   101    1
    93   162   161    1
    94   162   163    1
    95   152   161   am
    96   152   151    1
    97   164   163    2
    98    68    70    1
    99   144   150   am
   100   144   143    1
   101    64    63    1
   102   101   100    1
   103   101   102    1
   104   151   150    1
   105   151   154    1
   106   146   147    1
   107   146   143    1
   108   128   127    1
   109   156   158   ar
   110   156   155   ar
   111   142   143    1
   112   142   139   am
   113   147   149   ar
   114   147   148   ar
   115   158   160   ar
   116   154   155    1
   117   133   132    2
   118   141   138    1
   119   138   139    1
   120   138   137    1
   121   155   157   ar
   122   139   140    2
   123   102   103    2
   124    99    97    1
   125    96    95    2
   126   127   129    1
   127   127   126    1
   128    94    93    1
   129    94    95    1
   130    94    97    1
   131   160   159   ar
   132   132   137   am
   133   132   131    1
   134    97    98    1
   135   115   114    2
   136   157   159   ar
   137   126   123    1
   138   119   121   ar
   139   119   117   ar
   140   121   120   ar
   141   113   114    1
   142   113   112    1
   143   113   116    1
   144   135   134    1
   145   131   130    1
   146   131   134    1
   147   134   136    1
   148   120   118   ar
   149   117   116    1
   150   117   118   ar
   151   123   122    1
   152   123   124    1
   153   124   125    2
