@<TRIPOS>MOLECULE
tmp/3f3uA01.pdb
 149 141 0 0 0
SMALL
GASTEIGER

@<TRIPOS>ATOM
      1  N        -11.3790   44.5460   -6.5810 N.3    17  LEU17      -0.1231
      2  CA       -11.1770   43.8620   -5.3180 C.3    17  LEU17       0.1693
      3  C         -9.8650   44.2600   -4.6510 C.2    17  LEU17       0.2593
      4  O         -9.7600   44.2680   -3.4200 O.2    17  LEU17      -0.2718
      5  CB       -11.2140   42.3480   -5.5370 C.3    17  LEU17       0.0284
      6  CG       -12.3870   41.6980   -6.2900 C.3    17  LEU17       0.0019
      7  CD1      -12.1390   40.2170   -6.4330 C.3    17  LEU17       0.0001
      8  CD2      -13.7480   41.9400   -5.6320 C.3    17  LEU17       0.0001
      9  N         -8.8650   44.5780   -5.4720 N.am   18  GLY18      -0.1942
     10  CA        -7.5730   45.0570   -4.9750 C.3    18  GLY18       0.2014
     11  C         -6.7460   45.7410   -6.0470 C.2    18  GLY18       0.2639
     12  O         -6.9480   45.5130   -7.2370 O.2    18  GLY18      -0.2714
     13  N         -5.8320   46.6080   -5.6060 N.am   19  GLN19      -0.1963
     14  CA        -4.8200   47.2280   -6.4860 C.3    19  GLN19       0.1733
     15  C         -3.4230   47.2060   -5.8560 C.2    19  GLN19       0.2616
     16  O         -3.2490   47.5370   -4.6790 O.2    19  GLN19      -0.2715
     17  CB        -5.1950   48.6570   -6.9160 C.3    19  GLN19       0.0408
     18  CG        -5.7760   49.5560   -5.8100 C.3    19  GLN19       0.0908
     19  CD        -6.2230   50.9240   -6.3360 C.2    19  GLN19       0.2608
     20  OE1       -5.9290   51.2870   -7.4780 O.2    19  GLN19      -0.2717
     21  NE2       -6.9410   51.6790   -5.5070 N.am   19  GLN19      -0.0878
     22  N         -2.4460   46.7860   -6.6580 N.am   20  GLY20      -0.1955
     23  CA        -1.0450   46.7660   -6.2550 C.3    20  GLY20       0.1869
     24  C         -0.2300   47.7190   -7.1120 C.2    20  GLY20       0.2309
     25  O         -0.7650   48.6820   -7.6750 O.2    20  GLY20      -0.2863
     26  N         -0.6060   45.5780  -10.8310 N.3    23  GLY23      -0.1210
     27  CA        -1.9100   45.4090  -11.4400 C.3    23  GLY23       0.1956
     28  C         -3.0060   45.2500  -10.4190 C.2    23  GLY23       0.2612
     29  O         -2.8300   45.5680   -9.2390 O.2    23  GLY23      -0.2717
     30  N         -4.1410   44.7410  -10.8790 N.am   24  GLU24      -0.1965
     31  CA        -5.3700   44.7510  -10.0860 C.3    24  GLU24       0.1733
     32  C         -6.0890   43.4110  -10.1470 C.2    24  GLU24       0.2616
     33  O         -5.9350   42.6480  -11.1130 O.2    24  GLU24      -0.2715
     34  CB        -6.3220   45.8380  -10.6030 C.3    24  GLU24       0.0429
     35  CG        -5.7210   47.2400  -10.6810 C.3    24  GLU24       0.1163
     36  CD        -6.4570   48.1440  -11.6560 C.2    24  GLU24       0.3649
     37  OE1       -7.3770   47.6690  -12.3680 O.co2  24  GLU24      -0.2457
     38  OE2       -6.1020   49.3400  -11.7190 O.co2  24  GLU24      -0.2457
     39  N         -6.8920   43.1240   -9.1290 N.am   25  VAL25      -0.1977
     40  CA        -7.8210   42.0230   -9.2750 C.3    25  VAL25       0.1596
     41  C         -9.2610   42.5070   -9.2780 C.2    25  VAL25       0.2287
     42  O         -9.6710   43.2780   -8.4260 O.2    25  VAL25      -0.2864
     43  CB        -7.5780   40.9110   -8.2700 C.3    25  VAL25       0.0276
     44  CG1       -8.4710   39.7280   -8.6040 C.3    25  VAL25       0.0022
     45  CG2       -6.1220   40.4870   -8.3310 C.3    25  VAL25       0.0022
     46  N        -12.5280   35.6150  -10.8840 N.3    37  ALA37      -0.1245
     47  CA       -11.5180   36.5560  -10.4080 C.3    37  ALA37       0.1562
     48  C        -10.5320   36.8280  -11.5390 C.2    37  ALA37       0.2260
     49  O        -10.0330   35.8970  -12.1890 O.2    37  ALA37      -0.2867
     50  CB       -10.7980   36.0100   -9.2060 C.3    37  ALA37       0.0290
     51  N         -7.0640   38.6450  -12.5630 N.3    39  LYS39      -0.1245
     52  CA        -5.7930   39.3200  -12.3120 C.3    39  LYS39       0.1561
     53  C         -5.3430   40.1060  -13.5430 C.2    39  LYS39       0.2260
     54  O         -5.5250   39.6630  -14.6910 O.2    39  LYS39      -0.2867
     55  CB        -4.7180   38.3230  -11.8940 C.3    39  LYS39       0.0271
     56  CG        -3.4370   38.9630  -11.4110 C.3    39  LYS39       0.0035
     57  CD        -2.7230   38.1220  -10.3620 C.3    39  LYS39       0.0206
     58  CE        -1.2970   38.6340  -10.1830 C.3    39  LYS39       0.1093
     59  NZ        -0.6550   38.2290   -8.9000 N.3    39  LYS39      -0.1314
     60  N         -9.1860   33.2210  -12.5270 N.3    82  THR82      -0.1203
     61  CA        -9.3870   32.1170  -11.5910 C.3    82  THR82       0.1994
     62  C        -10.8510   31.9550  -11.2100 C.2    82  THR82       0.2618
     63  O        -11.7200   32.7530  -11.6070 O.2    82  THR82      -0.2717
     64  CB        -8.5730   32.3120  -10.2980 C.3    82  THR82       0.1784
     65  OG1       -9.0720   33.4430   -9.5550 O.3    82  THR82      -0.2211
     66  CG2       -7.0880   32.4920  -10.6220 C.3    82  THR82       0.0376
     67  N        -11.1270   30.9180  -10.4290 N.am   83  GLU83      -0.1965
     68  CA       -12.4540   30.7870   -9.8460 C.3    83  GLU83       0.1733
     69  C        -12.7080   31.9330   -8.8710 C.2    83  GLU83       0.2616
     70  O        -11.7560   32.5330   -8.3480 O.2    83  GLU83      -0.2715
     71  CB       -12.6140   29.4380   -9.1690 C.3    83  GLU83       0.0429
     72  CG       -11.7470   29.2070   -7.9490 C.3    83  GLU83       0.1163
     73  CD       -12.0730   27.8780   -7.3360 C.2    83  GLU83       0.3649
     74  OE1      -11.2010   26.9850   -7.3430 O.co2  83  GLU83      -0.2457
     75  OE2      -13.2270   27.7140   -6.8970 O.co2  83  GLU83      -0.2457
     76  N        -13.9770   32.2550   -8.6400 N.am   84  TYR84      -0.1960
     77  CA       -14.2990   33.3530   -7.7260 C.3    84  TYR84       0.1771
     78  C        -14.5680   32.8920   -6.2710 C.2    84  TYR84       0.2619
     79  O        -15.2900   31.9380   -6.0380 O.2    84  TYR84      -0.2715
     80  CB       -15.4330   34.2170   -8.2860 C.3    84  TYR84       0.0574
     81  CG       -15.7480   35.4010   -7.4190 C.ar   84  TYR84      -0.0198
     82  CD1      -14.7550   36.3580   -7.1090 C.ar   84  TYR84      -0.0009
     83  CD2      -17.0240   35.5630   -6.8720 C.ar   84  TYR84      -0.0009
     84  CE1      -15.0350   37.4350   -6.2690 C.ar   84  TYR84       0.0417
     85  CE2      -17.3210   36.6470   -6.0460 C.ar   84  TYR84       0.0417
     86  CZ       -16.3270   37.5760   -5.7440 C.ar   84  TYR84       0.1957
     87  OH       -16.6340   38.6490   -4.9310 O.3    84  TYR84      -0.2866
     88  N        -13.9660   33.5480   -5.2970 N.am   85  MET85      -0.1977
     89  CA       -14.2360   33.1770   -3.8950 C.3    85  MET85       0.1605
     90  C        -15.0100   34.2770   -3.1820 C.2    85  MET85       0.2287
     91  O        -14.4680   35.3390   -2.8140 O.2    85  MET85      -0.2864
     92  CB       -12.9690   32.7570   -3.1620 C.3    85  MET85       0.0413
     93  CG       -12.3300   31.5310   -3.8150 C.3    85  MET85       0.0598
     94  SD       -13.3480   30.0290   -3.6920 S.3    85  MET85      -0.1393
     95  CE       -12.8540   29.4150   -2.0730 C.3    85  MET85       0.0692
     96  N        -13.6430   36.4710   -0.0550 N.3    88  GLY88      -0.1210
     97  CA       -12.2890   37.0430    0.0270 C.3    88  GLY88       0.1956
     98  C        -11.2860   36.3790    0.9780 C.2    88  GLY88       0.2612
     99  O        -11.3860   35.1910    1.2740 O.2    88  GLY88      -0.2717
    100  N        -10.2810   37.1520    1.3790 N.am   89  CYS89      -0.1970
    101  CA        -9.2520   36.8180    2.3550 C.3    89  CYS89       0.1712
    102  C         -9.8220   36.0900    3.5930 C.2    89  CYS89       0.2296
    103  O        -10.7140   36.6080    4.2480 O.2    89  CYS89      -0.2864
    104  CB        -8.6580   38.1650    2.8660 C.3    89  CYS89       0.0983
    105  SG        -6.9880   38.5900    2.4600 S.3    89  CYS89      -0.0798
    106  N         -8.1070   36.0920    6.3270 N.3    91  LEU91      -0.1231
    107  CA        -7.7910   37.1950    7.2610 C.3    91  LEU91       0.1693
    108  C         -8.9050   38.2410    7.5070 C.2    91  LEU91       0.2592
    109  O         -9.1360   38.6450    8.6470 O.2    91  LEU91      -0.2718
    110  CB        -6.5650   37.9310    6.7390 C.3    91  LEU91       0.0284
    111  CG        -5.9210   38.9890    7.6220 C.3    91  LEU91       0.0019
    112  CD1       -5.6620   38.4470    9.0780 C.3    91  LEU91       0.0001
    113  CD2       -4.6370   39.4820    6.9100 C.3    91  LEU91       0.0001
    114  N         -9.5360   38.7240    6.4410 N.am   92  ASP92      -0.1974
    115  CA       -10.5650   39.7670    6.5200 C.3    92  ASP92       0.1709
    116  C        -11.8690   39.1610    7.0150 C.2    92  ASP92       0.2293
    117  O        -12.7120   39.8450    7.6060 O.2    92  ASP92      -0.2864
    118  CB       -10.8290   40.3810    5.1200 C.3    92  ASP92       0.1436
    119  CG        -9.7380   41.3220    4.6720 C.2    92  ASP92       0.3671
    120  OD1       -8.7670   41.6220    5.4360 O.co2  92  ASP92      -0.2456
    121  OD2       -9.8460   41.7790    3.5270 O.co2  92  ASP92      -0.2456
    122  N         -3.7470   35.5850    5.1320 N.3   134  ALA134     -0.1245
    123  CA        -3.9610   36.5630    4.0350 C.3   134  ALA134      0.1562
    124  C         -4.0100   35.8930    2.6530 C.2   134  ALA134      0.2260
    125  O         -4.4840   36.4700    1.6890 O.2   134  ALA134     -0.2867
    126  CB        -2.8700   37.6700    4.0340 C.3   134  ALA134      0.0290
    127  N         -8.1830   32.0220    0.6490 N.3   137  LEU137     -0.1245
    128  CA        -9.4820   32.4560    0.1380 C.3   137  LEU137      0.1561
    129  C        -10.6680   31.6520    0.7390 C.2   137  LEU137      0.2260
    130  O        -10.5990   30.4320    0.8800 O.2   137  LEU137     -0.2867
    131  CB        -9.5000   32.3070   -1.3900 C.3   137  LEU137      0.0270
    132  CG        -8.8270   33.3890   -2.2310 C.3   137  LEU137      0.0019
    133  CD1       -8.8940   33.0850   -3.7010 C.3   137  LEU137      0.0001
    134  CD2       -9.4560   34.7700   -1.9630 C.3   137  LEU137      0.0001
    135  N         -1.4900   35.7890   -3.3870 N.3   149  PHE149     -0.1227
    136  CA        -1.5920   37.1340   -3.9930 C.3   149  PHE149      0.1736
    137  C         -0.2800   37.7000   -4.5470 C.2   149  PHE149      0.2596
    138  O         -0.3030   38.6490   -5.3410 O.2   149  PHE149     -0.2718
    139  CB        -2.2210   38.1450   -3.0310 C.3   149  PHE149      0.0547
    140  CG        -3.6380   37.8310   -2.6930 C.ar  149  PHE149     -0.0202
    141  CD1       -4.6720   38.1910   -3.5700 C.ar  149  PHE149     -0.0042
    142  CD2       -3.9490   37.1530   -1.5090 C.ar  149  PHE149     -0.0042
    143  CE1       -5.9920   37.8840   -3.2600 C.ar  149  PHE149     -0.0003
    144  CE2       -5.2680   36.8260   -1.1910 C.ar  149  PHE149     -0.0003
    145  CZ        -6.2930   37.1920   -2.0650 C.ar  149  PHE149     -0.0000
    146  N          0.8440   37.1120   -4.1400 N.am  150  GLY150     -0.1957
    147  CA         2.1570   37.5180   -4.6240 C.3   150  GLY150      0.1869
    148  C          2.6510   38.7510   -3.8990 C.2   150  GLY150      0.2309
    149  O          2.4650   39.8590   -4.3810 O.2   150  GLY150     -0.2863
@<TRIPOS>BOND
     1    54    53    2
     2    53    52    1
     3    51    52    1
     4    60    61    1
     5    37    36   ar
     6    52    55    1
     7    49    48    2
     8    55    56    1
     9    38    36   ar
    10    36    35    1
    11    63    62    2
    12    61    62    1
    13    61    64    1
    14    48    47    1
    15    27    26    1
    16    27    28    1
    17    56    57    1
    18    62    67   am
    19    33    32    2
    20    46    47    1
    21    30    28   am
    22    30    31    1
    23    35    34    1
    24    66    64    1
    25    34    31    1
    26    67    68    1
    27    28    29    2
    28    47    50    1
    29    57    58    1
    30    64    65    1
    31    58    59    1
    32    32    31    1
    33    32    39   am
    34    68    71    1
    35    68    69    1
    36    41    40    1
    37    41    42    2
    38    40    39    1
    39    40    43    1
    40    71    72    1
    41    69    76   am
    42    69    70    2
    43    76    77    1
    44    44    43    1
    45    45    43    1
    46    80    77    1
    47    80    81    1
    48    72    73    1
    49    77    78    1
    50    25    24    2
    51    20    19    2
    52    81    82   ar
    53    81    83   ar
    54    74    73   ar
    55    73    75   ar
    56    12    11    2
    57    24    23    1
    58    82    84   ar
    59    17    14    1
    60    17    18    1
    61    83    85   ar
    62    22    23    1
    63    22    15   am
    64     1     2    1
    65    14    15    1
    66    14    13    1
    67     7     6    1
    68    19    18    1
    69    19    21   am
    70     6     8    1
    71     6     5    1
    72    78    79    2
    73    78    88   am
    74    84    86   ar
    75    11    13   am
    76    11    10    1
    77    85    86   ar
    78    15    16    2
    79    86    87    1
    80     5     2    1
    81     9    10    1
    82     9     3   am
    83   138   137    2
    84     2     3    1
    85    88    89    1
    86     3     4    2
    87   147   146    1
    88   147   148    1
    89   137   146   am
    90   137   136    1
    91   149   148    2
    92   136   135    1
    93   136   139    1
    94    89    90    1
    95    89    92    1
    96    93    94    1
    97    93    92    1
    98   133   132    1
    99    94    95    1
   100   141   143   ar
   101   141   140   ar
   102   143   145   ar
   103    90    91    2
   104   139   140    1
   105   140   142   ar
   106   132   134    1
   107   132   131    1
   108   145   144   ar
   109   142   144   ar
   110   131   128    1
   111    96    97    1
   112    97    98    1
   113   128   127    1
   114   128   129    1
   115   129   130    2
   116    98    99    2
   117    98   100   am
   118   100   101    1
   119   125   124    2
   120   101   104    1
   121   101   102    1
   122   105   104    1
   123   124   123    1
   124   121   119   ar
   125   102   103    2
   126   126   123    1
   127   123   122    1
   128   119   118    1
   129   119   120   ar
   130   118   115    1
   131   106   107    1
   132   114   115    1
   133   114   108   am
   134   115   116    1
   135   110   107    1
   136   110   111    1
   137   113   111    1
   138   116   117    2
   139   107   108    1
   140   108   109    2
   141   111   112    1
