@<TRIPOS>MOLECULE
tmp/3f3vA00.pdb
 211 199 0 0 0
SMALL
GASTEIGER

@<TRIPOS>ATOM
      1  N        -11.2820   45.1440   -9.0010 N.3    17  LEU17      -0.1245
      2  CA       -11.0880   44.4370   -7.7630 C.3    17  LEU17       0.1561
      3  C         -9.7520   44.7910   -7.1470 C.2    17  LEU17       0.2260
      4  O         -9.3980   44.2850   -6.0950 O.2    17  LEU17      -0.2867
      5  CB       -11.2030   42.9430   -7.9880 C.3    17  LEU17       0.0270
      6  CG       -12.1440   42.2300   -7.0410 C.3    17  LEU17       0.0019
      7  CD1      -13.2160   43.1640   -6.4870 C.3    17  LEU17       0.0001
      8  CD2      -12.7590   41.0960   -7.8150 C.3    17  LEU17       0.0001
      9  N         -6.7970   43.9400  -11.4900 N.3    25  VAL25      -0.1245
     10  CA        -7.5070   42.6660  -11.3360 C.3    25  VAL25       0.1561
     11  C         -8.9790   43.0190  -11.3350 C.2    25  VAL25       0.2260
     12  O         -9.3830   43.9390  -10.6380 O.2    25  VAL25      -0.2867
     13  CB        -7.1610   41.9180   -9.9990 C.3    25  VAL25       0.0252
     14  CG1       -7.7320   40.4900   -9.9980 C.3    25  VAL25       0.0019
     15  CG2       -5.6540   41.8780   -9.7470 C.3    25  VAL25       0.0019
     16  N        -12.6110   36.0430  -12.7150 N.3    37  ALA37      -0.1245
     17  CA       -11.5670   36.9400  -12.2040 C.3    37  ALA37       0.1562
     18  C        -10.5860   37.1680  -13.3260 C.2    37  ALA37       0.2260
     19  O        -10.2090   36.2350  -14.0170 O.2    37  ALA37      -0.2867
     20  CB       -10.8870   36.3560  -11.0410 C.3    37  ALA37       0.0290
     21  N         -7.1200   39.0590  -14.9170 N.3    39  LYS39      -0.1245
     22  CA        -5.8640   39.7110  -14.5650 C.3    39  LYS39       0.1561
     23  C         -5.2740   40.4370  -15.7650 C.2    39  LYS39       0.2260
     24  O         -5.0590   39.8450  -16.8140 O.2    39  LYS39      -0.2867
     25  CB        -4.8760   38.7290  -13.9200 C.3    39  LYS39       0.0271
     26  CG        -3.7630   39.3910  -13.1680 C.3    39  LYS39       0.0035
     27  CD        -3.4420   38.6550  -11.8590 C.3    39  LYS39       0.0206
     28  CE        -2.2960   39.3330  -11.1430 C.3    39  LYS39       0.1093
     29  NZ        -0.9720   38.7370  -11.5020 N.3    39  LYS39      -0.1314
     30  N          4.0480   33.4780  -17.1820 N.3    53  GLN53      -0.1231
     31  CA         4.5590   32.3130  -16.4620 C.3    53  GLN53       0.1698
     32  C          3.5800   31.9400  -15.3430 C.2    53  GLN53       0.2592
     33  O          3.3910   30.7630  -15.0210 O.2    53  GLN53      -0.2718
     34  CB         5.9990   32.5330  -15.9800 C.3    53  GLN53       0.0381
     35  CG         7.0260   32.3640  -17.1380 C.3    53  GLN53       0.0905
     36  CD         8.3770   33.0840  -16.9000 C.2    53  GLN53       0.2608
     37  OE1        9.0000   32.9360  -15.8320 O.2    53  GLN53      -0.2717
     38  NE2        8.8300   33.8630  -17.9010 N.am   53  GLN53      -0.0878
     39  N          2.9120   32.9550  -14.8100 N.am   54  GLU54      -0.1979
     40  CA         1.8270   32.7330  -13.8850 C.3    54  GLU54       0.1602
     41  C          0.7820   31.7760  -14.4610 C.2    54  GLU54       0.2287
     42  O          0.4330   30.8050  -13.8060 O.2    54  GLU54      -0.2864
     43  CB         1.1860   34.0520  -13.4400 C.3    54  GLU54       0.0415
     44  CG        -0.1810   33.8690  -12.7550 C.3    54  GLU54       0.1163
     45  CD        -0.6130   35.0600  -11.9320 C.2    54  GLU54       0.3649
     46  OE1       -0.4270   36.2110  -12.3780 O.co2  54  GLU54      -0.2457
     47  OE2       -1.1610   34.8430  -10.8270 O.co2  54  GLU54      -0.2457
     48  N          2.2260   28.1120  -14.8080 N.3    57  VAL57      -0.1231
     49  CA         2.2720   27.3450  -13.5360 C.3    57  VAL57       0.1692
     50  C          0.8870   26.8200  -13.1830 C.2    57  VAL57       0.2591
     51  O          0.7410   25.6630  -12.7910 O.2    57  VAL57      -0.2718
     52  CB         2.8780   28.1510  -12.3350 C.3    57  VAL57       0.0266
     53  CG1        2.8460   27.3300  -11.0300 C.3    57  VAL57       0.0020
     54  CG2        4.3200   28.5950  -12.6250 C.3    57  VAL57       0.0020
     55  N         -0.1330   27.6490  -13.3580 N.am   58  MET58      -0.1979
     56  CA        -1.5040   27.2330  -13.0520 C.3    58  MET58       0.1605
     57  C         -2.0950   26.1840  -14.0290 C.2    58  MET58       0.2287
     58  O         -3.1500   25.5850  -13.7450 O.2    58  MET58      -0.2864
     59  CB        -2.4110   28.4560  -12.9300 C.3    58  MET58       0.0413
     60  CG        -2.0320   29.3960  -11.7970 C.3    58  MET58       0.0598
     61  SD        -2.9610   30.9410  -11.8520 S.3    58  MET58      -0.1393
     62  CE        -4.6220   30.3610  -12.0690 C.3    58  MET58       0.0692
     63  N         -0.4150   22.8280  -12.3000 N.3    61  LEU61      -0.1245
     64  CA        -0.9860   22.5950  -10.9730 C.3    61  LEU61       0.1561
     65  C         -2.5210   22.7070  -10.9460 C.2    61  LEU61       0.2260
     66  O         -3.0450   23.8100  -10.8290 O.2    61  LEU61      -0.2867
     67  CB        -0.3730   23.5950   -9.9990 C.3    61  LEU61       0.0270
     68  CG         1.1140   23.3730   -9.7240 C.3    61  LEU61       0.0019
     69  CD1        1.5520   24.2970   -8.6210 C.3    61  LEU61       0.0001
     70  CD2        1.4200   21.9270   -9.3190 C.3    61  LEU61       0.0001
     71  N         -6.9400   24.2650   -5.4250 N.3    66  LEU66      -0.1231
     72  CA        -6.0830   25.2950   -5.8790 C.3    66  LEU66       0.1693
     73  C         -6.9630   26.2100   -6.6540 C.2    66  LEU66       0.2591
     74  O         -7.9360   25.7910   -7.2110 O.2    66  LEU66      -0.2718
     75  CB        -5.0240   24.7610   -6.7990 C.3    66  LEU66       0.0284
     76  CG        -3.7770   24.0650   -6.2800 C.3    66  LEU66       0.0019
     77  CD1       -2.5540   24.4260   -7.0200 C.3    66  LEU66       0.0001
     78  CD2       -3.5660   24.1500   -4.8450 C.3    66  LEU66       0.0001
     79  N         -6.6190   27.4780   -6.6910 N.am   67  VAL67      -0.1980
     80  CA        -7.2130   28.4260   -7.6180 C.3    67  VAL67       0.1595
     81  C         -7.0210   27.8980   -8.9880 C.2    67  VAL67       0.2287
     82  O         -5.9990   27.3800   -9.2750 O.2    67  VAL67      -0.2864
     83  CB        -6.5040   29.7640   -7.5370 C.3    67  VAL67       0.0276
     84  CG1       -6.2850   30.3200   -8.8520 C.3    67  VAL67       0.0022
     85  CG2       -7.2560   30.6980   -6.7000 C.3    67  VAL67       0.0022
     86  N         -5.4780   37.2770  -17.9560 N.3    80  ILE80      -0.1245
     87  CA        -5.3970   35.9420  -17.3740 C.3    80  ILE80       0.1561
     88  C         -6.6740   35.7770  -16.5680 C.2    80  ILE80       0.2260
     89  O         -7.0480   36.6720  -15.8290 O.2    80  ILE80      -0.2867
     90  CB        -4.1340   35.8060  -16.5340 C.3    80  ILE80       0.0252
     91  CG1       -2.9210   35.7490  -17.4790 C.3    80  ILE80       0.0019
     92  CG2       -4.2200   34.6180  -15.5390 C.3    80  ILE80       0.0019
     93  CD1       -1.5660   35.4930  -16.7890 C.3    80  ILE80       0.0001
     94  N         -9.3560   33.3960  -14.3210 N.3    82  THR82      -0.1203
     95  CA        -9.3690   32.3340  -13.3370 C.3    82  THR82       0.1994
     96  C        -10.7170   32.3970  -12.6560 C.2    82  THR82       0.2618
     97  O        -11.4460   33.3560  -12.8620 O.2    82  THR82      -0.2717
     98  CB        -8.3090   32.6040  -12.2630 C.3    82  THR82       0.1784
     99  OG1       -8.6650   33.8070  -11.5380 O.3    82  THR82      -0.2211
    100  CG2       -6.9250   32.7280  -12.8930 C.3    82  THR82       0.0376
    101  N        -11.0410   31.4190  -11.8080 N.am   83  GLU83      -0.1965
    102  CA       -12.3670   31.4140  -11.1570 C.3    83  GLU83       0.1733
    103  C        -12.6180   32.5250  -10.1380 C.2    83  GLU83       0.2616
    104  O        -11.7690   32.8130   -9.2550 O.2    83  GLU83      -0.2715
    105  CB       -12.6930   30.0560  -10.5180 C.3    83  GLU83       0.0429
    106  CG       -11.7480   29.5380   -9.3970 C.3    83  GLU83       0.1163
    107  CD       -12.3290   28.2890   -8.7550 C.2    83  GLU83       0.3649
    108  OE1      -11.5710   27.3560   -8.4110 O.co2  83  GLU83      -0.2457
    109  OE2      -13.5820   28.2420   -8.6370 O.co2  83  GLU83      -0.2457
    110  N        -13.7980   33.1420  -10.2490 N.am   84  TYR84      -0.1960
    111  CA       -14.2370   34.0710   -9.2010 C.3    84  TYR84       0.1771
    112  C        -14.5100   33.4140   -7.8450 C.2    84  TYR84       0.2619
    113  O        -15.0660   32.3390   -7.7670 O.2    84  TYR84      -0.2715
    114  CB       -15.4420   34.8930   -9.6380 C.3    84  TYR84       0.0574
    115  CG       -15.6510   36.0740   -8.7330 C.ar   84  TYR84      -0.0198
    116  CD1      -14.6200   36.9940   -8.5220 C.ar   84  TYR84      -0.0009
    117  CD2      -16.8540   36.2620   -8.0740 C.ar   84  TYR84      -0.0009
    118  CE1      -14.7820   38.0810   -7.6990 C.ar   84  TYR84       0.0417
    119  CE2      -17.0410   37.3550   -7.2420 C.ar   84  TYR84       0.0417
    120  CZ       -15.9980   38.2700   -7.0520 C.ar   84  TYR84       0.1957
    121  OH       -16.1600   39.3610   -6.1980 O.3    84  TYR84      -0.2866
    122  N        -14.1050   34.0700   -6.7730 N.am   85  MET85      -0.1977
    123  CA       -14.3180   33.5460   -5.4140 C.3    85  MET85       0.1605
    124  C        -15.0580   34.6270   -4.6640 C.2    85  MET85       0.2287
    125  O        -14.4510   35.6180   -4.2400 O.2    85  MET85      -0.2864
    126  CB       -12.9920   33.2120   -4.7110 C.3    85  MET85       0.0413
    127  CG       -12.1720   32.1940   -5.4420 C.3    85  MET85       0.0598
    128  SD       -12.9040   30.5310   -5.4460 S.3    85  MET85      -0.1393
    129  CE       -12.6100   29.9190   -3.7740 C.3    85  MET85       0.0692
    130  N        -13.6280   36.5090   -1.6550 N.3    88  GLY88      -0.1210
    131  CA       -12.2540   37.0590   -1.6950 C.3    88  GLY88       0.1956
    132  C        -11.2200   36.4520   -0.6990 C.2    88  GLY88       0.2612
    133  O        -11.2390   35.2510   -0.3450 O.2    88  GLY88      -0.2717
    134  N        -10.3090   37.3020   -0.2670 N.am   89  CYS89      -0.1970
    135  CA        -9.1930   36.9600    0.5610 C.3    89  CYS89       0.1712
    136  C         -9.6390   36.3510    1.9040 C.2    89  CYS89       0.2296
    137  O        -10.5410   36.8960    2.5390 O.2    89  CYS89      -0.2864
    138  CB        -8.4820   38.2830    0.8430 C.3    89  CYS89       0.0983
    139  SG        -6.8120   38.0980    1.3630 S.3    89  CYS89      -0.0798
    140  N          0.2520   20.2210   -3.8840 N.3   121  VAL121     -0.1245
    141  CA         1.5850   20.8320   -3.9700 C.3   121  VAL121      0.1561
    142  C          2.7410   19.9510   -3.4500 C.2   121  VAL121      0.2260
    143  O          3.7950   19.9120   -4.0590 O.2   121  VAL121     -0.2867
    144  CB         1.5750   22.2020   -3.2800 C.3   121  VAL121      0.0252
    145  CG1        2.9430   22.8700   -3.3350 C.3   121  VAL121      0.0019
    146  CG2        0.5720   23.1030   -3.9740 C.3   121  VAL121      0.0019
    147  N          6.2500   20.7830   -5.8760 N.3   126  TYR126     -0.1241
    148  CA         6.2370   22.2110   -5.9820 C.3   126  TYR126      0.1605
    149  C          6.4190   22.7600   -4.5830 C.2   126  TYR126      0.2264
    150  O          6.4930   21.9950   -3.6420 O.2   126  TYR126     -0.2867
    151  CB         4.9240   22.6450   -6.5520 C.3   126  TYR126      0.0534
    152  CG         4.9930   23.9980   -7.1290 C.ar  126  TYR126     -0.0201
    153  CD1        5.7950   24.2520   -8.2350 C.ar  126  TYR126     -0.0009
    154  CD2        4.2630   25.0420   -6.5620 C.ar  126  TYR126     -0.0009
    155  CE1        5.8630   25.5100   -8.7690 C.ar  126  TYR126      0.0417
    156  CE2        4.3150   26.3060   -7.0860 C.ar  126  TYR126      0.0417
    157  CZ         5.1140   26.5420   -8.1920 C.ar  126  TYR126      0.1957
    158  OH         5.1650   27.8040   -8.7160 O.3   126  TYR126     -0.2866
    159  N          5.3750   26.4520   -2.2740 N.3   128  HIS128     -0.1241
    160  CA         4.5460   27.6410   -2.4400 C.3   128  HIS128      0.1621
    161  C          5.3390   28.9240   -2.2790 C.2   128  HIS128      0.2264
    162  O          5.4750   29.6610   -3.2430 O.2   128  HIS128     -0.2867
    163  CB         3.3060   27.6250   -1.5730 C.3   128  HIS128      0.0745
    164  CG         2.3030   28.6520   -1.9780 C.ar  128  HIS128      0.0817
    165  ND1        2.4610   29.9950   -1.7000 N.ar  128  HIS128     -0.2268
    166  CD2        1.1160   28.5340   -2.6190 C.ar  128  HIS128      0.1154
    167  CE1        1.4130   30.6590   -2.1510 C.ar  128  HIS128      0.1986
    168  NE2        0.5840   29.7970   -2.7130 N.ar  128  HIS128     -0.2212
    169  N         -7.9950   32.1510   -1.4110 N.3   137  LEU137     -0.1245
    170  CA        -9.3310   32.6000   -1.7020 C.3   137  LEU137      0.1561
    171  C        -10.4440   31.8290   -0.8990 C.2   137  LEU137      0.2260
    172  O        -10.3360   30.6360   -0.6370 O.2   137  LEU137     -0.2867
    173  CB        -9.5110   32.5940   -3.2140 C.3   137  LEU137      0.0270
    174  CG        -8.7010   33.7890   -3.7670 C.3   137  LEU137      0.0019
    175  CD1       -8.2960   33.5970   -5.1830 C.3   137  LEU137      0.0001
    176  CD2       -9.4240   35.1400   -3.5810 C.3   137  LEU137      0.0001
    177  N         -6.1090   27.4070   -2.4270 N.3   146  VAL146     -0.1231
    178  CA        -4.7690   28.0220   -2.4140 C.3   146  VAL146      0.1692
    179  C         -4.4880   28.8220   -3.6960 C.2   146  VAL146      0.2592
    180  O         -4.8470   28.4130   -4.8100 O.2   146  VAL146     -0.2718
    181  CB        -3.6550   26.9590   -2.2720 C.3   146  VAL146      0.0266
    182  CG1       -2.2970   27.5630   -2.4590 C.3   146  VAL146      0.0020
    183  CG2       -3.6860   26.2640   -0.8800 C.3   146  VAL146      0.0020
    184  N         -3.8350   29.9700   -3.5320 N.am  147  ALA147     -0.1966
    185  CA        -3.7740   31.0050   -4.5490 C.3   147  ALA147      0.1728
    186  C         -2.4500   31.7360   -4.3390 C.2   147  ALA147      0.2616
    187  O         -1.7620   31.4370   -3.3940 O.2   147  ALA147     -0.2715
    188  CB        -4.9730   31.9590   -4.3640 C.3   147  ALA147      0.0334
    189  N         -2.0880   32.6710   -5.2080 N.am  148  ASP148     -0.1957
    190  CA        -0.9510   33.5640   -4.9280 C.3   148  ASP148      0.1840
    191  C         -1.2010   34.9130   -5.6030 C.2   148  ASP148      0.2622
    192  O         -1.3160   34.9610   -6.8010 O.2   148  ASP148     -0.2715
    193  CB         0.3790   32.9360   -5.4050 C.3   148  ASP148      0.1450
    194  CG         1.6380   33.7260   -4.9490 C.2   148  ASP148      0.3671
    195  OD1        1.5510   34.9600   -4.7220 O.co2 148  ASP148     -0.2456
    196  OD2        2.7330   33.1060   -4.8260 O.co2 148  ASP148     -0.2456
    197  N         -1.3010   35.9960   -4.8440 N.am  149  PHE149     -0.1960
    198  CA        -1.5840   37.3160   -5.4220 C.3   149  PHE149      0.1771
    199  C         -0.3350   38.0130   -6.0150 C.2   149  PHE149      0.2620
    200  O         -0.4440   39.1140   -6.5580 O.2   149  PHE149     -0.2715
    201  CB        -2.2210   38.2420   -4.3950 C.3   149  PHE149      0.0574
    202  CG        -3.5960   37.8140   -3.9190 C.ar  149  PHE149     -0.0200
    203  CD1       -4.6660   38.7030   -3.9640 C.ar  149  PHE149     -0.0042
    204  CD2       -3.8280   36.5610   -3.3850 C.ar  149  PHE149     -0.0042
    205  CE1       -5.9320   38.3300   -3.5130 C.ar  149  PHE149     -0.0003
    206  CE2       -5.0980   36.1820   -2.9510 C.ar  149  PHE149     -0.0003
    207  CZ        -6.1270   37.0600   -3.0010 C.ar  149  PHE149     -0.0000
    208  N          0.8440   37.3850   -5.9460 N.am  150  GLY150     -0.1954
    209  CA         2.0810   38.0570   -6.3790 C.3   150  GLY150      0.1869
    210  C          2.5470   39.0780   -5.3420 C.2   150  GLY150      0.2309
    211  O          3.7460   39.2750   -5.1540 O.2   150  GLY150     -0.2863
@<TRIPOS>BOND
     1    86    87    1
     2    38    36   am
     3    91    93    1
     4    91    90    1
     5    87    88    1
     6    87    90    1
     7    30    31    1
     8    35    36    1
     9    35    34    1
    10    36    37    2
    11    24    23    2
    12    88    89    2
    13    90    92    1
    14    31    34    1
    15    31    32    1
    16    23    22    1
    17    32    33    2
    18    32    39   am
    19    21    22    1
    20    39    40    1
    21    48    49    1
    22    22    25    1
    23    41    40    1
    24    41    42    2
    25    94    95    1
    26    57    58    2
    27    57    56    1
    28    19    18    2
    29    25    26    1
    30    40    43    1
    31    49    50    1
    32    49    52    1
    33    43    44    1
    34    55    50   am
    35    55    56    1
    36    95    96    1
    37    95    98    1
    38    18    17    1
    39    50    51    2
    40    26    27    1
    41    56    59    1
    42    59    60    1
    43   100    98    1
    44    97    96    2
    45    44    45    1
    46    16    17    1
    47    96   101   am
    48    54    52    1
    49    46    45   ar
    50    52    53    1
    51    63    64    1
    52    98    99    1
    53    17    20    1
    54    62    61    1
    55    45    47   ar
    56    27    28    1
    57    61    60    1
    58   101   102    1
    59    29    28    1
    60     9    10    1
    61    10    11    1
    62    10    13    1
    63    11    12    2
    64   102   105    1
    65   102   103    1
    66    64    65    1
    67    64    67    1
    68    65    66    2
    69   105   106    1
    70   110   103   am
    71   110   111    1
    72   103   104    2
    73    67    68    1
    74    13    14    1
    75    13    15    1
    76    68    70    1
    77    68    69    1
    78   114   111    1
    79   114   115    1
    80   106   107    1
    81    82    81    2
    82   111   112    1
    83     1     2    1
    84    81    80    1
    85    84    83    1
    86   155   153   ar
    87   155   157   ar
    88   107   109   ar
    89   107   108   ar
    90   115   116   ar
    91   115   117   ar
    92   158   157    1
    93   116   118   ar
    94   153   152   ar
    95   157   156   ar
    96   117   119   ar
    97     5     2    1
    98     5     6    1
    99   112   113    2
   100   112   122   am
   101     8     6    1
   102     2     3    1
   103   118   120   ar
   104    80    83    1
   105    80    79    1
   106    83    85    1
   107   119   120   ar
   108    74    73    2
   109     3     4    2
   110   152   154   ar
   111   152   151    1
   112   156   154   ar
   113   120   121    1
   114     6     7    1
   115    77    76    1
   116   192   191    2
   117    75    76    1
   118    75    72    1
   119   122   123    1
   120    79    73   am
   121    73    72    1
   122   200   199    2
   123   151   148    1
   124   209   208    1
   125   209   210    1
   126    76    78    1
   127   199   208   am
   128   199   198    1
   129   148   147    1
   130   148   149    1
   131    72    71    1
   132   191   190    1
   133   191   197   am
   134   128   127    1
   135   128   129    1
   136   127   126    1
   137   198   197    1
   138   198   201    1
   139   123   126    1
   140   123   124    1
   141   193   194    1
   142   193   190    1
   143   210   211    2
   144   189   190    1
   145   189   186   am
   146   175   174    1
   147   194   196   ar
   148   194   195   ar
   149   180   179    2
   150   124   125    2
   151   149   150    2
   152   185   188    1
   153   185   186    1
   154   185   184    1
   155   201   202    1
   156   186   187    2
   157   143   142    2
   158   146   144    1
   159   141   140    1
   160   141   142    1
   161   141   144    1
   162   203   202   ar
   163   203   205   ar
   164   202   204   ar
   165   174   176    1
   166   174   173    1
   167   179   184   am
   168   179   178    1
   169   205   207   ar
   170   204   206   ar
   171   145   144    1
   172   162   161    2
   173   173   170    1
   174   207   206   ar
   175   168   166   ar
   176   168   167   ar
   177   166   164   ar
   178   182   181    1
   179   160   161    1
   180   160   159    1
   181   160   163    1
   182   177   178    1
   183   178   181    1
   184   181   183    1
   185   167   165   ar
   186   164   165   ar
   187   164   163    1
   188   170   169    1
   189   170   171    1
   190   131   130    1
   191   131   132    1
   192   171   172    2
   193   132   133    2
   194   132   134   am
   195   134   135    1
   196   135   138    1
   197   135   136    1
   198   138   139    1
   199   136   137    2
