@<TRIPOS>MOLECULE
tmp/3f3yA00.pdb
 226 225 0 0 0
SMALL
GASTEIGER

@<TRIPOS>ATOM
      1  N          5.6540   24.1160  -10.2460 N.3    11  PRO11      -0.2116
      2  CA         6.1630   24.3510  -11.6260 C.3    11  PRO11       0.1372
      3  C          5.2440   23.7920  -12.6980 C.2    11  PRO11       0.2244
      4  O          4.5270   22.8290  -12.4600 O.2    11  PRO11      -0.2868
      5  CB         7.5240   23.6390  -11.6550 C.3    11  PRO11       0.0268
      6  CG         7.9230   23.5040  -10.1400 C.3    11  PRO11       0.0207
      7  CD         6.6220   23.4340   -9.3700 C.3    11  PRO11       0.0892
      8  N          6.1900   22.3320  -15.3770 N.3    13  MET13      -0.1230
      9  CA         6.8260   21.1310  -15.9470 C.3    13  MET13       0.1702
     10  C          7.1060   20.1300  -14.8470 C.2    13  MET13       0.2593
     11  O          7.5920   20.5010  -13.7660 O.2    13  MET13      -0.2718
     12  CB         8.1470   21.4770  -16.6640 C.3    13  MET13       0.0401
     13  CG         7.9820   21.9150  -18.1230 C.3    13  MET13       0.0596
     14  SD         9.5050   22.5720  -18.8350 S.3    13  MET13      -0.1393
     15  CE         9.0790   22.5220  -20.5960 C.3    13  MET13       0.0692
     16  N          6.7580   18.8690  -15.1050 N.am   14  GLY14      -0.1942
     17  CA         7.1310   17.7750  -14.2300 C.3    14  GLY14       0.2014
     18  C          6.1380   17.5060  -13.1450 C.2    14  GLY14       0.2638
     19  O          6.3440   16.6170  -12.3490 O.2    14  GLY14      -0.2714
     20  N          5.0520   18.2780  -13.1080 N.am   15  PHE15      -0.1973
     21  CA         4.0340   18.1370  -12.0680 C.3    15  PHE15       0.1639
     22  C          2.6420   18.0360  -12.6890 C.2    15  PHE15       0.2290
     23  O          2.3900   18.6300  -13.7530 O.2    15  PHE15      -0.2864
     24  CB         4.1410   19.2830  -11.0170 C.3    15  PHE15       0.0560
     25  CG         5.4980   19.3400  -10.3170 C.ar   15  PHE15      -0.0200
     26  CD1        6.6530   19.7370  -11.0200 C.ar   15  PHE15      -0.0042
     27  CD2        5.6310   18.9650   -8.9820 C.ar   15  PHE15      -0.0042
     28  CE1        7.9170   19.7380  -10.4150 C.ar   15  PHE15      -0.0003
     29  CE2        6.8890   18.9730   -8.3630 C.ar   15  PHE15      -0.0003
     30  CZ         8.0350   19.3610   -9.0690 C.ar   15  PHE15      -0.0000
     31  N         11.9360   25.6910   -0.8300 N.3    40  PRO40      -0.2102
     32  CA        12.8950   25.7280   -1.9460 C.3    40  PRO40       0.1504
     33  C         13.9900   26.7690   -1.7890 C.2    40  PRO40       0.2575
     34  O         13.7170   27.9010   -1.4440 O.2    40  PRO40      -0.2718
     35  CB        12.0220   26.0760   -3.1610 C.3    40  PRO40       0.0282
     36  CG        10.6180   25.6760   -2.8140 C.3    40  PRO40       0.0208
     37  CD        10.5320   25.8330   -1.2360 C.3    40  PRO40       0.0893
     38  N         15.2380   26.3800   -2.0710 N.am   41  LYS41      -0.1980
     39  CA        16.3860   27.2640   -2.0130 C.3    41  LYS41       0.1596
     40  C         16.8960   27.3970   -0.5130 C.2    41  LYS41       0.2287
     41  O         17.6620   28.3000   -0.2150 O.2    41  LYS41      -0.2864
     42  CB        16.0860   28.6200   -2.6100 C.3    41  LYS41       0.0298
     43  CG        15.4490   28.5350   -4.1190 C.3    41  LYS41       0.0038
     44  CD        16.2080   27.5610   -4.9200 C.3    41  LYS41       0.0206
     45  CE        17.4430   28.1720   -5.1470 C.3    41  LYS41       0.1093
     46  NZ        18.3810   27.0390   -5.3900 N.3    41  LYS41      -0.1314
     47  N         18.6250   22.3040    0.0560 N.3    44  THR44      -0.1203
     48  CA        18.1530   20.9460   -0.1720 C.3    44  THR44       0.1994
     49  C         19.2240   20.0290   -0.7260 C.2    44  THR44       0.2617
     50  O         19.4390   18.9350   -0.1810 O.2    44  THR44      -0.2717
     51  CB        16.9600   20.9130   -1.1130 C.3    44  THR44       0.1784
     52  OG1       16.1350   22.0540   -0.8540 O.3    44  THR44      -0.2211
     53  CG2       16.1360   19.6110   -0.9150 C.3    44  THR44       0.0376
     54  N         19.8760   20.4750   -1.8300 N.am   45  ASN45      -0.1974
     55  CA        20.9290   19.7170   -2.4810 C.3    45  ASN45       0.1688
     56  C         22.1720   19.5680   -1.6720 C.2    45  ASN45       0.2292
     57  O         22.7730   18.5160   -1.6620 O.2    45  ASN45      -0.2864
     58  CB        21.3100   20.3330   -3.8790 C.3    45  ASN45       0.1181
     59  CG        20.1860   20.2730   -4.8390 C.2    45  ASN45       0.2629
     60  OD1       19.2980   21.1560   -4.8560 O.2    45  ASN45      -0.2716
     61  ND2       20.1810   19.2450   -5.6590 N.am   45  ASN45      -0.0877
     62  N         19.4000   14.3930   -8.5340 N.3    69  TRP69      -0.1227
     63  CA        17.9390   14.3320   -8.4800 C.3    69  TRP69       0.1737
     64  C         17.3780   12.9310   -8.7240 C.2    69  TRP69       0.2595
     65  O         16.1680   12.7540   -8.7630 O.2    69  TRP69      -0.2718
     66  CB        17.2920   15.3500   -9.4200 C.3    69  TRP69       0.0564
     67  CG        17.7180   15.1700  -10.8700 C.ar   69  TRP69       0.0003
     68  CD1       17.3430   14.1730  -11.7170 C.ar   69  TRP69       0.0946
     69  CD2       18.6340   15.9860  -11.5900 C.ar   69  TRP69       0.0152
     70  NE1       17.9470   14.3460  -12.9630 N.ar   69  TRP69      -0.2442
     71  CE2       18.7530   15.4460  -12.8930 C.ar   69  TRP69       0.0810
     72  CE3       19.3580   17.1340  -11.2700 C.ar   69  TRP69       0.0012
     73  CZ2       19.5700   15.9960  -13.8410 C.ar   69  TRP69       0.0191
     74  CZ3       20.1750   17.6760  -12.2170 C.ar   69  TRP69       0.0001
     75  CH2       20.2660   17.1200  -13.4970 C.ar   69  TRP69       0.0015
     76  N         18.2570   11.9470   -8.8980 N.am   70  GLU70      -0.1979
     77  CA        17.8580   10.5430   -8.9110 C.3    70  GLU70       0.1602
     78  C         18.2420    9.8810   -7.5890 C.2    70  GLU70       0.2287
     79  O         17.7420    8.8190   -7.2430 O.2    70  GLU70      -0.2864
     80  CB        18.5540    9.8130  -10.0420 C.3    70  GLU70       0.0415
     81  CG        18.1690   10.3100  -11.4290 C.3    70  GLU70       0.1163
     82  CD        18.7690    9.4750  -12.5440 C.2    70  GLU70       0.3649
     83  OE1       19.4490    8.4700  -12.2610 O.co2  70  GLU70      -0.2457
     84  OE2       18.5480    9.8220  -13.7230 O.co2  70  GLU70      -0.2457
     85  N         12.3300   14.1480   -6.0930 N.3    74  TRP74      -0.1241
     86  CA        11.2010   14.8850   -5.5130 C.3    74  TRP74       0.1605
     87  C         10.0210   14.0030   -5.6030 C.2    74  TRP74       0.2264
     88  O          9.5770   13.7000   -6.7090 O.2    74  TRP74      -0.2867
     89  CB        10.8890   16.1630   -6.2760 C.3    74  TRP74       0.0550
     90  CG        11.8300   17.2320   -6.0610 C.ar   74  TRP74       0.0003
     91  CD1       11.8550   18.0950   -5.0140 C.ar   74  TRP74       0.0946
     92  CD2       12.8920   17.6220   -6.9350 C.ar   74  TRP74       0.0152
     93  NE1       12.8900   18.9810   -5.1670 N.ar   74  TRP74      -0.2442
     94  CE2       13.5350   18.7140   -6.3430 C.ar   74  TRP74       0.0810
     95  CE3       13.3710   17.1380   -8.1670 C.ar   74  TRP74       0.0012
     96  CZ2       14.6280   19.3560   -6.9370 C.ar   74  TRP74       0.0191
     97  CZ3       14.4730   17.7670   -8.7510 C.ar   74  TRP74       0.0001
     98  CH2       15.0830   18.8610   -8.1380 C.ar   74  TRP74       0.0015
     99  N          7.0450   15.2620   -7.6370 N.3    77  SER77      -0.1217
    100  CA         7.1830   15.2410   -9.0760 C.3    77  SER77       0.1889
    101  C          6.7290   13.9080   -9.6600 C.2    77  SER77       0.2288
    102  O          6.7820   12.8580   -8.9940 O.2    77  SER77      -0.2866
    103  CB         8.6180   15.5490   -9.5020 C.3    77  SER77       0.2089
    104  OG         9.4810   14.4500   -9.2750 O.3    77  SER77      -0.2183
    105  N          8.1280   12.0670  -11.9700 N.3    79  ILE79      -0.1245
    106  CA         9.2190   11.1250  -12.1710 C.3    79  ILE79       0.1561
    107  C          9.6480   10.5540  -10.8360 C.2    79  ILE79       0.2260
    108  O          9.9410    9.3560  -10.7250 O.2    79  ILE79      -0.2867
    109  CB        10.4000   11.7790  -12.9480 C.3    79  ILE79       0.0252
    110  CG1       10.1090   11.7170  -14.4460 C.3    79  ILE79       0.0019
    111  CG2       11.6880   11.0260  -12.7350 C.3    79  ILE79       0.0019
    112  CD1       10.5980   12.8950  -15.2050 C.3    79  ILE79       0.0001
    113  N          9.3980   19.6160   -1.0710 N.3    96  HIS96      -0.1241
    114  CA         9.1450   21.0000   -0.6560 C.3    96  HIS96       0.1621
    115  C          7.6740   21.2070   -0.2800 C.2    96  HIS96       0.2264
    116  O          7.2470   22.3620   -0.0550 O.2    96  HIS96      -0.2867
    117  CB         9.4790   21.9790   -1.7930 C.3    96  HIS96       0.0745
    118  CG        10.8570   21.8430   -2.3390 C.ar   96  HIS96       0.0817
    119  ND1       11.9900   22.0330   -1.5680 N.ar   96  HIS96      -0.2268
    120  CD2       11.2940   21.6350   -3.6020 C.ar   96  HIS96       0.1154
    121  CE1       13.0600   21.8910   -2.3320 C.ar   96  HIS96       0.1986
    122  NE2       12.6670   21.6260   -3.5560 N.ar   96  HIS96      -0.2212
    123  N         18.2750   32.3050   -8.9260 N.3   130  PHE130     -0.1227
    124  CA        18.1330   30.9720   -9.5200 C.3   130  PHE130      0.1736
    125  C         17.1160   30.8750  -10.6390 C.2   130  PHE130      0.2595
    126  O         17.3990   30.2590  -11.6930 O.2   130  PHE130     -0.2718
    127  CB        17.8150   29.9200   -8.4610 C.3   130  PHE130      0.0547
    128  CG        17.7870   28.5010   -9.0040 C.ar  130  PHE130     -0.0202
    129  CD1       18.9390   27.9070   -9.4960 C.ar  130  PHE130     -0.0042
    130  CD2       16.6040   27.7550   -8.9970 C.ar  130  PHE130     -0.0042
    131  CE1       18.9140   26.5780   -9.9330 C.ar  130  PHE130     -0.0003
    132  CE2       16.5820   26.4430   -9.4610 C.ar  130  PHE130     -0.0003
    133  CZ        17.7420   25.8670   -9.9200 C.ar  130  PHE130     -0.0000
    134  N         15.9250   31.4480  -10.4190 N.am  131  TRP131     -0.1976
    135  CA        14.8030   31.2450  -11.3430 C.3   131  TRP131      0.1640
    136  C         15.0570   31.7980  -12.7480 C.2   131  TRP131      0.2290
    137  O         14.3280   31.4710  -13.6790 O.2   131  TRP131     -0.2864
    138  CB        13.5070   31.8210  -10.7810 C.3   131  TRP131      0.0576
    139  CG        13.1580   31.3790   -9.3910 C.ar  131  TRP131      0.0006
    140  CD1       12.8460   32.1890   -8.3370 C.ar  131  TRP131      0.0946
    141  CD2       13.0520   30.0350   -8.9000 C.ar  131  TRP131      0.0152
    142  NE1       12.5490   31.4450   -7.2300 N.ar  131  TRP131     -0.2442
    143  CE2       12.6760   30.1180   -7.5410 C.ar  131  TRP131      0.0810
    144  CE3       13.2320   28.7740   -9.4750 C.ar  131  TRP131      0.0012
    145  CZ2       12.4950   28.9860   -6.7430 C.ar  131  TRP131      0.0191
    146  CZ3       13.0360   27.6510   -8.6930 C.ar  131  TRP131      0.0001
    147  CH2       12.6650   27.7630   -7.3360 C.ar  131  TRP131      0.0015
    148  N         15.6660   29.4500  -15.7170 N.3   134  MET134     -0.1245
    149  CA        14.6530   28.4140  -15.8180 C.3   134  MET134      0.1570
    150  C         13.5750   28.8550  -16.7720 C.2   134  MET134      0.2261
    151  O         12.9010   29.8760  -16.5510 O.2   134  MET134     -0.2867
    152  CB        14.0650   28.0730  -14.4410 C.3   134  MET134      0.0387
    153  CG        15.0810   27.6590  -13.3870 C.3   134  MET134      0.0595
    154  SD        16.0860   26.2070  -13.7860 S.3   134  MET134     -0.1393
    155  CE        14.8920   24.9350  -14.0960 C.3   134  MET134      0.0692
    156  N         10.7190   27.7770  -17.5760 N.3   136  PHE136     -0.1227
    157  CA         9.3210   27.4370  -17.3700 C.3   136  PHE136      0.1736
    158  C          8.7540   28.0340  -16.1120 C.2   136  PHE136      0.2595
    159  O          7.6580   27.6590  -15.6920 O.2   136  PHE136     -0.2718
    160  CB         9.1340   25.9250  -17.3570 C.3   136  PHE136      0.0547
    161  CG        10.0220   25.2180  -16.3820 C.ar  136  PHE136     -0.0202
    162  CD1       11.2480   24.7250  -16.7750 C.ar  136  PHE136     -0.0042
    163  CD2        9.6300   25.0490  -15.0620 C.ar  136  PHE136     -0.0042
    164  CE1       12.0780   24.0800  -15.8660 C.ar  136  PHE136     -0.0003
    165  CE2       10.4530   24.3980  -14.1560 C.ar  136  PHE136     -0.0003
    166  CZ        11.6770   23.9220  -14.5610 C.ar  136  PHE136     -0.0000
    167  N          9.5080   28.9450  -15.4980 N.am  137  ILE137     -0.1980
    168  CA         9.0480   29.6860  -14.3210 C.3   137  ILE137      0.1595
    169  C          8.6940   31.1170  -14.7110 C.2   137  ILE137      0.2287
    170  O          9.3660   31.7220  -15.5470 O.2   137  ILE137     -0.2864
    171  CB        10.1310   29.6910  -13.1730 C.3   137  ILE137      0.0276
    172  CG1       10.1590   28.3500  -12.4720 C.3   137  ILE137      0.0022
    173  CG2        9.8850   30.8120  -12.1580 C.3   137  ILE137      0.0022
    174  CD1       11.3410   27.5260  -12.8050 C.3   137  ILE137      0.0001
    175  N          6.3450   29.7230   -6.1920 N.3   156  LEU156     -0.1231
    176  CA         6.4780   28.2480   -6.1270 C.3   156  LEU156      0.1693
    177  C          6.5200   27.7760   -4.6650 C.2   156  LEU156      0.2592
    178  O          7.3500   28.2580   -3.8960 O.2   156  LEU156     -0.2718
    179  CB         7.7400   27.7920   -6.8200 C.3   156  LEU156      0.0284
    180  CG         7.7560   27.9230   -8.3350 C.3   156  LEU156      0.0019
    181  CD1        8.9860   27.2730   -8.8700 C.3   156  LEU156      0.0001
    182  CD2        6.5190   27.2670   -8.9430 C.3   156  LEU156      0.0001
    183  N          5.5820   26.8730   -4.3060 N.am  157  TYR157     -0.1976
    184  CA         5.4930   26.2280   -2.9660 C.3   157  TYR157      0.1639
    185  C          4.9540   27.0550   -1.8540 C.2   157  TYR157      0.2290
    186  O          4.9990   26.6440   -0.6790 O.2   157  TYR157     -0.2864
    187  CB         6.8100   25.5620   -2.5590 C.3   157  TYR157      0.0560
    188  CG         7.1120   24.3690   -3.4040 C.ar  157  TYR157     -0.0198
    189  CD1        7.9100   24.4800   -4.5440 C.ar  157  TYR157     -0.0009
    190  CD2        6.5560   23.1330   -3.1010 C.ar  157  TYR157     -0.0009
    191  CE1        8.1900   23.3730   -5.3220 C.ar  157  TYR157      0.0417
    192  CE2        6.8060   22.0250   -3.8950 C.ar  157  TYR157      0.0417
    193  CZ         7.6170   22.1570   -5.0000 C.ar  157  TYR157      0.1957
    194  OH         7.9030   21.0420   -5.7410 O.3   157  TYR157     -0.2866
    195  N         23.7960   20.6790  -11.3850 N.3   228  TYR228     -0.1241
    196  CA        22.6620   20.9590  -12.2690 C.3   228  TYR228      0.1605
    197  C         23.0730   21.1690  -13.7420 C.2   228  TYR228      0.2264
    198  O         22.2510   21.4950  -14.5890 O.2   228  TYR228     -0.2867
    199  CB        21.7850   22.1010  -11.7440 C.3   228  TYR228      0.0534
    200  CG        20.7360   21.6680  -10.7360 C.ar  228  TYR228     -0.0201
    201  CD1       20.9870   20.6170   -9.8380 C.ar  228  TYR228     -0.0009
    202  CD2       19.5120   22.3390  -10.6380 C.ar  228  TYR228     -0.0009
    203  CE1       20.0390   20.2130   -8.9260 C.ar  228  TYR228      0.0417
    204  CE2       18.5600   21.9520   -9.7010 C.ar  228  TYR228      0.0417
    205  CZ        18.8230   20.8880   -8.8530 C.ar  228  TYR228      0.1957
    206  OH        17.8950   20.5020   -7.8970 O.3   228  TYR228     -0.2866
    207  N         20.9590   19.3160  -16.5670 N.3   231  LEU231     -0.1245
    208  CA        19.5670   19.6130  -16.9110 C.3   231  LEU231      0.1561
    209  C         19.4370   19.7410  -18.4170 C.2   231  LEU231      0.2260
    210  O         20.3450   20.2260  -19.0800 O.2   231  LEU231     -0.2867
    211  CB        19.0860   20.8970  -16.2310 C.3   231  LEU231      0.0270
    212  CG        18.7950   20.8050  -14.7310 C.3   231  LEU231      0.0019
    213  CD1       18.2030   22.1150  -14.2060 C.3   231  LEU231      0.0001
    214  CD2       17.8730   19.6460  -14.4510 C.3   231  LEU231      0.0001
    215  N         14.4990   22.5860  -20.0670 N.3   235  TYR235     -0.1241
    216  CA        14.1720   23.0340  -18.7260 C.3   235  TYR235      0.1605
    217  C         14.7750   24.4140  -18.4580 C.2   235  TYR235      0.2264
    218  O         14.2250   25.1910  -17.6960 O.2   235  TYR235     -0.2867
    219  CB        14.6850   22.0180  -17.6730 C.3   235  TYR235      0.0534
    220  CG        13.8640   20.7310  -17.5250 C.ar  235  TYR235     -0.0201
    221  CD1       14.2910   19.5180  -18.1030 C.ar  235  TYR235     -0.0009
    222  CD2       12.6900   20.7160  -16.7760 C.ar  235  TYR235     -0.0009
    223  CE1       13.5330   18.3230  -17.9560 C.ar  235  TYR235      0.0417
    224  CE2       11.9320   19.5280  -16.6250 C.ar  235  TYR235      0.0417
    225  CZ        12.3590   18.3480  -17.2130 C.ar  235  TYR235      0.1957
    226  OH        11.6020   17.2090  -17.0430 O.3   235  TYR235     -0.2866
@<TRIPOS>BOND
     1    15    14    1
     2   215   216    1
     3   210   209    2
     4    14    13    1
     5   216   217    1
     6   216   219    1
     7   217   218    2
     8   209   208    1
     9    13    12    1
    10   221   223   ar
    11   221   220   ar
    12   223   225   ar
    13   219   220    1
    14   156   157    1
    15   220   222   ar
    16   157   160    1
    17   157   158    1
    18   160   161    1
    19   225   226    1
    20   225   224   ar
    21   208   207    1
    22   208   211    1
    23   222   224   ar
    24   162   161   ar
    25   162   164   ar
    26   150   151    2
    27   150   149    1
    28    12     9    1
    29   161   163   ar
    30   211   212    1
    31   158   159    2
    32   158   167   am
    33     9     8    1
    34     9    10    1
    35   164   166   ar
    36   149   148    1
    37   149   152    1
    38   170   169    2
    39   167   168    1
    40   112   110    1
    41    16    10   am
    42    16    17    1
    43   163   165   ar
    44    10    11    2
    45   212   214    1
    46   212   213    1
    47   169   168    1
    48   198   197    2
    49   166   165   ar
    50   110   109    1
    51   152   153    1
    52   168   171    1
    53    17    18    1
    54   155   154    1
    55    73    75   ar
    56    73    71   ar
    57   154   153    1
    58    23    22    2
    59   197   196    1
    60    84    82   ar
    61   137   136    2
    62    75    74   ar
    63   171   172    1
    64   171   173    1
    65    18    20   am
    66    18    19    2
    67    20    21    1
    68    70    71   ar
    69    70    68   ar
    70   109   111    1
    71   109   106    1
    72    71    69   ar
    73   174   172    1
    74   136   135    1
    75     3     4    2
    76     3     2    1
    77    22    21    1
    78    82    83   ar
    79    82    81    1
    80   196   199    1
    81   196   195    1
    82    74    72   ar
    83   106   105    1
    84   106   107    1
    85    21    24    1
    86   199   200    1
    87    68    67   ar
    88   126   125    2
    89     5     2    1
    90     5     6    1
    91     2     1    1
    92    69    72   ar
    93    69    67   ar
    94    81    80    1
    95   135   138    1
    96   135   134    1
    97    26    28   ar
    98    26    25   ar
    99    24    25    1
   100    67    66    1
   101   107   108    2
   102   138   139    1
   103   200   202   ar
   104   200   201   ar
   105   125   134   am
   106   125   124    1
   107   202   204   ar
   108    28    30   ar
   109    25    27   ar
   110     1     7    1
   111     6     7    1
   112    80    77    1
   113   131   133   ar
   114   131   129   ar
   115   133   132   ar
   116   201   203   ar
   117   204   205   ar
   118   101   100    1
   119   101   102    2
   120   124   123    1
   121   124   127    1
   122   103   104    1
   123   103   100    1
   124   129   128   ar
   125   144   141   ar
   126   144   146   ar
   127   132   130   ar
   128    66    63    1
   129   139   141   ar
   130   139   140   ar
   131   100    99    1
   132    30    29   ar
   133   128   130   ar
   134   128   127    1
   135    27    29   ar
   136   182   180    1
   137   203   205   ar
   138    77    76    1
   139    77    78    1
   140   141   143   ar
   141    76    64   am
   142   181   180    1
   143   205   206    1
   144    65    64    2
   145    97    95   ar
   146    97    98   ar
   147    64    63    1
   148   146   147   ar
   149    62    63    1
   150   140   142   ar
   151   180   179    1
   152    95    92   ar
   153    98    96   ar
   154    78    79    2
   155   143   142   ar
   156   143   145   ar
   157   147   145   ar
   158    96    94   ar
   159    92    94   ar
   160    92    90   ar
   161   179   176    1
   162    88    87    2
   163    94    93   ar
   164    89    90    1
   165    89    86    1
   166   175   176    1
   167   176   177    1
   168    85    86    1
   169    90    91   ar
   170   194   193    1
   171    61    59   am
   172    87    86    1
   173    46    45    1
   174   191   193   ar
   175   191   189   ar
   176    93    91   ar
   177    45    44    1
   178   193   192   ar
   179    44    43    1
   180    60    59    2
   181    59    58    1
   182   177   183   am
   183   177   178    2
   184   189   188   ar
   185   183   184    1
   186    43    42    1
   187   192   190   ar
   188    58    55    1
   189   120   122   ar
   190   120   118   ar
   191   122   121   ar
   192   188   190   ar
   193   188   187    1
   194    35    36    1
   195    35    32    1
   196   184   187    1
   197   184   185    1
   198    36    37    1
   199    42    39    1
   200    55    54    1
   201    55    56    1
   202   118   117    1
   203   118   119   ar
   204   121   119   ar
   205    38    39    1
   206    38    33   am
   207    39    40    1
   208    32    33    1
   209    32    31    1
   210   185   186    2
   211    54    49   am
   212   117   114    1
   213    33    34    2
   214    56    57    2
   215    37    31    1
   216    51    53    1
   217    51    52    1
   218    51    48    1
   219   113   114    1
   220    49    50    2
   221    49    48    1
   222   114   115    1
   223    40    41    2
   224   115   116    2
   225    48    47    1
