@<TRIPOS>MOLECULE
tmp/3f3yA01.pdb
 190 184 0 0 0
SMALL
GASTEIGER

@<TRIPOS>ATOM
      1  N         15.2380   26.3800   -2.0710 N.3    41  LYS41      -0.1231
      2  CA        16.3860   27.2640   -2.0130 C.3    41  LYS41       0.1693
      3  C         16.8960   27.3970   -0.5130 C.2    41  LYS41       0.2593
      4  O         17.6620   28.3000   -0.2150 O.2    41  LYS41      -0.2718
      5  CB        16.0860   28.6200   -2.6100 C.3    41  LYS41       0.0285
      6  CG        15.4490   28.5350   -4.1190 C.3    41  LYS41       0.0035
      7  CD        16.2080   27.5610   -4.9200 C.3    41  LYS41       0.0206
      8  CE        17.4430   28.1720   -5.1470 C.3    41  LYS41       0.1093
      9  NZ        18.3810   27.0390   -5.3900 N.3    41  LYS41      -0.1314
     10  N         16.6190   26.4080    0.2990 N.am   42  SER42      -0.1938
     11  CA        17.1780   26.4160    1.7890 C.3    42  SER42       0.2055
     12  C         18.4070   25.5320    2.0500 C.2    42  SER42       0.2644
     13  O         18.7940   25.3500    3.2110 O.2    42  SER42      -0.2714
     14  CB        16.1260   25.9150    2.6700 C.3    42  SER42       0.2130
     15  OG        15.0080   26.7310    2.5340 O.3    42  SER42      -0.2179
     16  N         18.9680   24.9470    0.9850 N.am   43  GLY43      -0.1939
     17  CA        20.1000   24.0040    1.0600 C.3    43  GLY43       0.2014
     18  C         19.7420   22.5500    0.7360 C.2    43  GLY43       0.2640
     19  O         20.4660   21.6740    1.0750 O.2    43  GLY43      -0.2714
     20  N         18.6250   22.3040    0.0560 N.am   44  THR44      -0.1936
     21  CA        18.1530   20.9460   -0.1720 C.3    44  THR44       0.2028
     22  C         19.2240   20.0290   -0.7260 C.2    44  THR44       0.2642
     23  O         19.4390   18.9350   -0.1810 O.2    44  THR44      -0.2714
     24  CB        16.9600   20.9130   -1.1130 C.3    44  THR44       0.1808
     25  OG1       16.1350   22.0540   -0.8540 O.3    44  THR44      -0.2208
     26  CG2       16.1360   19.6110   -0.9150 C.3    44  THR44       0.0379
     27  N         19.8760   20.4750   -1.8300 N.am   45  ASN45      -0.1957
     28  CA        20.9290   19.7170   -2.4810 C.3    45  ASN45       0.1819
     29  C         22.1720   19.5680   -1.6720 C.2    45  ASN45       0.2621
     30  O         22.7730   18.5160   -1.6620 O.2    45  ASN45      -0.2715
     31  CB        21.3100   20.3330   -3.8790 C.3    45  ASN45       0.1195
     32  CG        20.1860   20.2730   -4.8390 C.2    45  ASN45       0.2630
     33  OD1       19.2980   21.1560   -4.8560 O.2    45  ASN45      -0.2716
     34  ND2       20.1810   19.2450   -5.6590 N.am   45  ASN45      -0.0877
     35  N         22.6520   20.6200   -1.0910 N.am   46  TRP46      -0.1974
     36  CA        23.6920   20.3970   -0.0260 C.3    46  TRP46       0.1640
     37  C         23.4030   19.2190    0.8720 C.2    46  TRP46       0.2290
     38  O         24.2070   18.3230    1.0070 O.2    46  TRP46      -0.2864
     39  CB        23.9000   21.6180    0.8220 C.3    46  TRP46       0.0576
     40  CG        25.2110   21.6280    1.5210 C.ar   46  TRP46       0.0006
     41  CD1       26.2730   20.7650    1.3410 C.ar   46  TRP46       0.0946
     42  CD2       25.6110   22.5480    2.5240 C.ar   46  TRP46       0.0152
     43  NE1       27.3140   21.0930    2.1890 N.ar   46  TRP46      -0.2442
     44  CE2       26.9230   22.1790    2.9420 C.ar   46  TRP46       0.0810
     45  CE3       24.9850   23.6490    3.1360 C.ar   46  TRP46       0.0012
     46  CZ2       27.6010   22.8640    3.9400 C.ar   46  TRP46       0.0191
     47  CZ3       25.6900   24.3520    4.0930 C.ar   46  TRP46       0.0001
     48  CH2       26.9930   23.9610    4.4690 C.ar   46  TRP46       0.0015
     49  N          9.3980   19.6160   -1.0710 N.3    96  HIS96      -0.1241
     50  CA         9.1450   21.0000   -0.6560 C.3    96  HIS96       0.1621
     51  C          7.6740   21.2070   -0.2800 C.2    96  HIS96       0.2264
     52  O          7.2470   22.3620   -0.0550 O.2    96  HIS96      -0.2867
     53  CB         9.4790   21.9790   -1.7930 C.3    96  HIS96       0.0745
     54  CG        10.8570   21.8430   -2.3390 C.ar   96  HIS96       0.0817
     55  ND1       11.9900   22.0330   -1.5680 N.ar   96  HIS96      -0.2268
     56  CD2       11.2940   21.6350   -3.6020 C.ar   96  HIS96       0.1154
     57  CE1       13.0600   21.8910   -2.3320 C.ar   96  HIS96       0.1986
     58  NE2       12.6670   21.6260   -3.5560 N.ar   96  HIS96      -0.2212
     59  N         16.1420   28.0110    6.6930 N.3   118  ARG118     -0.1245
     60  CA        17.1860   28.9130    6.3220 C.3   118  ARG118      0.1563
     61  C         16.6120   30.3090    6.5220 C.2   118  ARG118      0.2260
     62  O         15.4330   30.5010    6.4020 O.2   118  ARG118     -0.2867
     63  CB        17.5590   28.7090    4.7960 C.3   118  ARG118      0.0307
     64  CG        18.7570   29.5250    4.3920 C.3   118  ARG118      0.0489
     65  CD        19.1680   29.3940    2.9540 C.3   118  ARG118      0.2205
     66  NE        20.4570   30.0560    2.7130 N.pl3 118  ARG118     -0.0865
     67  CZ        21.0020   30.1410    1.4870 C.cat 118  ARG118      0.5346
     68  NH1       20.3390   29.6490    0.4260 N.pl3 118  ARG118      0.1354
     69  NH2       22.1770   30.7230    1.3170 N.pl3 118  ARG118      0.1354
     70  N         17.8080   35.2460    2.9800 N.3   122  ASP122     -0.1239
     71  CA        18.6970   34.4650    2.1200 C.3   122  ASP122      0.1674
     72  C         18.0380   33.5610    1.0950 C.2   122  ASP122      0.2266
     73  O         18.5680   33.4110    0.0150 O.2   122  ASP122     -0.2867
     74  CB        19.6950   33.6850    2.9330 C.3   122  ASP122      0.1410
     75  CG        20.6760   34.5830    3.6520 C.2   122  ASP122      0.3668
     76  OD1       20.9860   35.6530    3.0920 O.co2 122  ASP122     -0.2456
     77  OD2       21.1770   34.1970    4.7310 O.co2 122  ASP122     -0.2456
     78  N         18.4490   33.8000   -2.8330 N.3   126  SER126     -0.1217
     79  CA        18.8580   32.6030   -3.5320 C.3   126  SER126      0.1889
     80  C         17.9140   32.2650   -4.6490 C.2   126  SER126      0.2288
     81  O         18.3250   32.0020   -5.7430 O.2   126  SER126     -0.2866
     82  CB        18.9370   31.4400   -2.5350 C.3   126  SER126      0.2089
     83  OG        19.3130   30.2350   -3.1530 O.3   126  SER126     -0.2183
     84  N         20.3010   25.8030    7.8410 N.3   181  TYR181     -0.1241
     85  CA        21.4290   26.0220    6.9230 C.3   181  TYR181      0.1605
     86  C         22.5430   26.8130    7.6100 C.2   181  TYR181      0.2264
     87  O         23.7400   26.6660    7.2870 O.2   181  TYR181     -0.2867
     88  CB        20.9530   26.8570    5.7750 C.3   181  TYR181      0.0534
     89  CG        22.0100   27.1880    4.7480 C.ar  181  TYR181     -0.0201
     90  CD1       22.0380   26.5300    3.5260 C.ar  181  TYR181     -0.0009
     91  CD2       22.9060   28.2340    4.9690 C.ar  181  TYR181     -0.0009
     92  CE1       23.0150   26.8660    2.5390 C.ar  181  TYR181      0.0417
     93  CE2       23.8640   28.5600    4.0760 C.ar  181  TYR181      0.0417
     94  CZ        23.8810   27.9120    2.8230 C.ar  181  TYR181      0.1957
     95  OH        24.8180   28.2590    1.9740 O.3   181  TYR181     -0.2866
     96  N         26.3020   25.4600    8.1280 N.3   185  LYS185     -0.1245
     97  CA        27.3990   26.1710    7.4300 C.3   185  LYS185      0.1561
     98  C         28.4550   26.5020    8.4470 C.2   185  LYS185      0.2260
     99  O         29.6240   26.3060    8.2080 O.2   185  LYS185     -0.2867
    100  CB        26.8750   27.4540    6.7720 C.3   185  LYS185      0.0271
    101  CG        27.9330   28.2770    6.0440 C.3   185  LYS185      0.0035
    102  CD        28.0960   27.8820    4.5590 C.3   185  LYS185      0.0206
    103  CE        29.4310   28.4040    4.0340 C.3   185  LYS185      0.1093
    104  NZ        29.9730   27.5700    2.9500 N.3   185  LYS185     -0.1314
    105  N         31.5800   17.0600    0.2060 N.3   215  SER215     -0.1202
    106  CA        30.3330   17.8210    0.1520 C.3   215  SER215      0.2020
    107  C         30.5910   19.3310    0.1540 C.2   215  SER215      0.2619
    108  O         29.6660   20.1260    0.3590 O.2   215  SER215     -0.2717
    109  CB        29.4530   17.4570    1.3490 C.3   215  SER215      0.2103
    110  OG        30.1680   17.6620    2.5500 O.3   215  SER215     -0.2182
    111  N         31.8520   19.7230   -0.0500 N.am  216  SER216     -0.1937
    112  CA        32.2250   21.1580   -0.0740 C.3   216  SER216      0.2055
    113  C         31.4990   21.8870   -1.2110 C.2   216  SER216      0.2643
    114  O         31.0800   21.2510   -2.1840 O.2   216  SER216     -0.2714
    115  CB        33.7380   21.3210   -0.2380 C.3   216  SER216      0.2130
    116  OG        34.1290   21.0660   -1.5770 O.3   216  SER216     -0.2179
    117  N         31.3650   23.2190   -1.0980 N.am  217  PHE217     -0.1973
    118  CA        30.7510   24.0130   -2.1370 C.3   217  PHE217      0.1639
    119  C         31.4700   23.7360   -3.4710 C.2   217  PHE217      0.2290
    120  O         30.8470   23.5160   -4.4850 O.2   217  PHE217     -0.2864
    121  CB        30.7780   25.5360   -1.7620 C.3   217  PHE217      0.0560
    122  CG        30.1790   26.4350   -2.8250 C.ar  217  PHE217     -0.0200
    123  CD1       28.8340   26.7670   -2.7940 C.ar  217  PHE217     -0.0042
    124  CD2       30.9680   26.9210   -3.8740 C.ar  217  PHE217     -0.0042
    125  CE1       28.2970   27.5800   -3.7430 C.ar  217  PHE217     -0.0003
    126  CE2       30.4240   27.7230   -4.8740 C.ar  217  PHE217     -0.0003
    127  CZ        29.1010   28.0470   -4.8200 C.ar  217  PHE217     -0.0000
    128  N         31.0200   20.1090   -4.9640 N.3   220  MET220     -0.1245
    129  CA        29.6890   20.0700   -5.5890 C.3   220  MET220      0.1570
    130  C         29.6320   20.9000   -6.8610 C.2   220  MET220      0.2261
    131  O         29.0820   20.4570   -7.8750 O.2   220  MET220     -0.2867
    132  CB        28.5980   20.4930   -4.6080 C.3   220  MET220      0.0387
    133  CG        28.2670   19.4280   -3.6270 C.3   220  MET220      0.0595
    134  SD        26.9680   19.8740   -2.5070 S.3   220  MET220     -0.1393
    135  CE        25.5870   19.9840   -3.6270 C.3   220  MET220      0.0692
    136  N         22.9600   26.4580   -9.6360 N.3   242  LEU242     -0.1231
    137  CA        22.5740   26.0370   -8.2870 C.3   242  LEU242      0.1693
    138  C         23.5370   26.5560   -7.2500 C.2   242  LEU242      0.2592
    139  O         23.1360   27.0800   -6.2160 O.2   242  LEU242     -0.2718
    140  CB        22.4980   24.4990   -8.1850 C.3   242  LEU242      0.0284
    141  CG        22.1730   23.9850   -6.7680 C.3   242  LEU242      0.0019
    142  CD1       20.7530   24.2900   -6.4920 C.3   242  LEU242      0.0001
    143  CD2       22.4050   22.5220   -6.6930 C.3   242  LEU242      0.0001
    144  N         24.8120   26.3590   -7.5470 N.am  243  LEU243     -0.1966
    145  CA        25.9100   26.7250   -6.7150 C.3   243  LEU243      0.1728
    146  C         26.3820   28.1340   -7.0450 C.2   243  LEU243      0.2616
    147  O         27.3160   28.3250   -7.7940 O.2   243  LEU243     -0.2715
    148  CB        27.0400   25.6830   -6.8820 C.3   243  LEU243      0.0311
    149  CG        26.4930   24.3390   -6.3340 C.3   243  LEU243      0.0022
    150  CD1       26.7360   23.1930   -7.2350 C.3   243  LEU243      0.0001
    151  CD2       26.9230   24.0510   -4.9060 C.3   243  LEU243      0.0001
    152  N         25.6970   29.1050   -6.4720 N.am  244  ARG244     -0.1963
    153  CA        25.9450   30.5310   -6.6550 C.3   244  ARG244      0.1729
    154  C         26.9850   31.0730   -5.6640 C.2   244  ARG244      0.2616
    155  O         28.0470   31.4580   -6.0620 O.2   244  ARG244     -0.2715
    156  CB        24.6130   31.2860   -6.4680 C.3   244  ARG244      0.0348
    157  CG        24.5850   32.7210   -6.9310 C.3   244  ARG244      0.0492
    158  CD        23.2530   33.4090   -6.5200 C.3   244  ARG244      0.2205
    159  NE        23.0970   33.4830   -5.0420 N.pl3 244  ARG244     -0.0865
    160  CZ        23.3740   34.5370   -4.2960 C.cat 244  ARG244      0.5346
    161  NH1       23.8320   35.6460   -4.8860 N.pl3 244  ARG244      0.1354
    162  NH2       23.2220   34.4750   -2.9100 N.pl3 244  ARG244      0.1354
    163  N         26.6740   31.1270   -4.3740 N.am  245  LYS245     -0.1963
    164  CA        27.6220   31.7490   -3.4390 C.3   245  LYS245      0.1728
    165  C         27.9270   30.9000   -2.1710 C.2   245  LYS245      0.2617
    166  O         29.0740   30.8090   -1.7130 O.2   245  LYS245     -0.2715
    167  CB        27.1560   33.1790   -3.0700 C.3   245  LYS245      0.0311
    168  CG        28.0700   33.8950   -2.0480 C.3   245  LYS245      0.0038
    169  CD        27.7820   35.4280   -1.9380 C.3   245  LYS245      0.0206
    170  CE        27.4250   36.0290   -3.3190 C.3   245  LYS245      0.1093
    171  NZ        28.6170   36.5140   -4.1300 N.3   245  LYS245     -0.1314
    172  N         26.9040   30.2510   -1.6400 N.am  246  GLY246     -0.1940
    173  CA        27.1370   29.2370   -0.6590 C.3   246  GLY246      0.2014
    174  C         27.4820   29.7570    0.7020 C.2   246  GLY246      0.2638
    175  O         28.2510   29.1100    1.4340 O.2   246  GLY246     -0.2714
    176  N         26.9330   30.9180    1.0600 N.am  247  VAL247     -0.1977
    177  CA        27.1420   31.4920    2.4270 C.3   247  VAL247      0.1596
    178  C         25.8290   31.9060    3.0440 C.2   247  VAL247      0.2287
    179  O         24.8270   32.0090    2.3710 O.2   247  VAL247     -0.2864
    180  CB        28.1340   32.7160    2.4430 C.3   247  VAL247      0.0276
    181  CG1       29.4980   32.3460    1.8510 C.3   247  VAL247      0.0022
    182  CG2       27.5440   33.8880    1.6750 C.3   247  VAL247      0.0022
    183  N         24.0450   36.7190    2.6710 N.3   250  ASP250     -0.1239
    184  CA        24.1210   37.4500    1.4260 C.3   250  ASP250      0.1674
    185  C         22.9690   38.4350    1.2560 C.2   250  ASP250      0.2266
    186  O         23.0930   39.4030    0.5170 O.2   250  ASP250     -0.2867
    187  CB        24.1820   36.5220    0.2090 C.3   250  ASP250      0.1410
    188  CG        24.6250   37.2280   -1.0090 C.2   250  ASP250      0.3668
    189  OD1       24.0550   36.9970   -2.1390 O.co2 250  ASP250     -0.2456
    190  OD2       25.5680   38.0200   -0.8460 O.co2 250  ASP250     -0.2456
@<TRIPOS>BOND
     1   136   137    1
     2   137   140    1
     3   137   138    1
     4   140   141    1
     5   131   130    2
     6   147   146    2
     7   144   138   am
     8   144   145    1
     9   138   139    2
    10   150   149    1
    11   146   145    1
    12   146   152   am
    13   157   158    1
    14   157   156    1
    15   148   145    1
    16   148   149    1
    17   130   129    1
    18   141   143    1
    19   141   142    1
    20   153   152    1
    21   153   156    1
    22   153   154    1
    23   158   159    1
    24   149   151    1
    25   155   154    2
    26    81    80    2
    27   154   163   am
    28    34    32   am
    29   129   128    1
    30   129   132    1
    31     9     8    1
    32     8     7    1
    33   159   160    2
    34     7     6    1
    35   161   160    1
    36   126   127   ar
    37   126   124   ar
    38    33    32    2
    39    32    31    1
    40   127   125   ar
    41    80    79    1
    42   132   133    1
    43   120   119    2
    44   163   164    1
    45   160   162    1
    46   171   170    1
    47     6     5    1
    48    31    28    1
    49   124   122   ar
    50   125   123   ar
    51   135   134    1
    52   133   134    1
    53    56    58   ar
    54    56    54   ar
    55    58    57   ar
    56    79    78    1
    57    79    82    1
    58   119   118    1
    59   164   167    1
    60   164   165    1
    61   170   169    1
    62    83    82    1
    63   167   168    1
    64   122   123   ar
    65   122   121    1
    66     5     2    1
    67    28    27    1
    68    28    29    1
    69    54    53    1
    70    54    55   ar
    71    57    55   ar
    72   114   113    2
    73   165   166    2
    74   165   172   am
    75   189   188   ar
    76   118   121    1
    77   118   117    1
    78     1     2    1
    79   168   169    1
    80     2     3    1
    81    27    22   am
    82    53    50    1
    83    29    30    2
    84    29    35   am
    85   172   173    1
    86   116   115    1
    87   113   117   am
    88   113   112    1
    89    24    26    1
    90    24    25    1
    91    24    21    1
    92    35    36    1
    93    49    50    1
    94   188   190   ar
    95   188   187    1
    96    22    23    2
    97    22    21    1
    98   173   174    1
    99    50    51    1
   100     3     4    2
   101     3    10   am
   102    51    52    2
   103   115   112    1
   104    21    20    1
   105   112   111    1
   106   111   107   am
   107    36    39    1
   108    36    37    1
   109    73    72    2
   110    20    18   am
   111   106   107    1
   112   106   105    1
   113   106   109    1
   114   107   108    2
   115   187   184    1
   116    10    11    1
   117    68    67    1
   118   186   185    2
   119   174   176   am
   120   174   175    2
   121    18    17    1
   122    18    19    2
   123    39    40    1
   124    37    38    2
   125    16    17    1
   126    16    12   am
   127   176   177    1
   128    72    71    1
   129   185   184    1
   130    69    67    1
   131    41    40   ar
   132    41    43   ar
   133   109   110    1
   134   184   183    1
   135    67    66    2
   136    40    42   ar
   137   182   180    1
   138    11    12    1
   139    11    14    1
   140   181   180    1
   141    95    94    1
   142    12    13    2
   143    71    74    1
   144    71    70    1
   145    43    44   ar
   146   179   178    2
   147   177   180    1
   148   177   178    1
   149    42    44   ar
   150    42    45   ar
   151    15    14    1
   152    92    94   ar
   153    92    90   ar
   154    66    65    1
   155    94    93   ar
   156    74    75    1
   157    44    46   ar
   158   104   103    1
   159    65    64    1
   160    76    75   ar
   161    45    47   ar
   162    90    89   ar
   163    75    77   ar
   164    46    48   ar
   165   103   102    1
   166    93    91   ar
   167    47    48   ar
   168    64    63    1
   169   102   101    1
   170    89    91   ar
   171    89    88    1
   172    63    60    1
   173    88    85    1
   174   101   100    1
   175    60    61    1
   176    60    59    1
   177    62    61    2
   178   100    97    1
   179    85    86    1
   180    85    84    1
   181    87    86    2
   182    97    96    1
   183    97    98    1
   184    99    98    2
