@<TRIPOS>MOLECULE
tmp/3f4bD01.pdb
 153 145 0 0 0
SMALL
GASTEIGER

@<TRIPOS>ATOM
      1  N         18.3380    9.7060   13.8390 N.3   121  SER121     -0.1202
      2  CA        19.5470    8.9700   14.1960 C.3   121  SER121      0.2020
      3  C         20.1910    9.5710   15.4290 C.2   121  SER121      0.2619
      4  O         21.4030    9.7850   15.4850 O.2   121  SER121     -0.2717
      5  CB        20.5420    8.8990   13.0290 C.3   121  SER121      0.2103
      6  OG        21.5190    9.9200   13.0870 O.3   121  SER121     -0.2182
      7  N         19.3680    9.8280   16.4320 N.am  122  LEU122     -0.1965
      8  CA        19.8680   10.4080   17.6640 C.3   122  LEU122      0.1728
      9  C         19.5010    9.5860   18.9020 C.2   122  LEU122      0.2616
     10  O         18.5900    8.7580   18.8860 O.2   122  LEU122     -0.2715
     11  CB        19.3730   11.8460   17.7910 C.3   122  LEU122      0.0311
     12  CG        17.8620   12.0270   17.8270 C.3   122  LEU122      0.0022
     13  CD1       17.3390   11.7590   19.2290 C.3   122  LEU122      0.0001
     14  CD2       17.4940   13.4370   17.3690 C.3   122  LEU122      0.0001
     15  N         20.2180    9.8190   19.9880 N.am  123  ALA123     -0.1963
     16  CA        19.8680    9.1730   21.2400 C.3   123  ALA123      0.1728
     17  C         20.7470    9.6980   22.3560 C.2   123  ALA123      0.2616
     18  O         21.8620   10.1690   22.1150 O.2   123  ALA123     -0.2715
     19  CB        20.0010    7.6570   21.1140 C.3   123  ALA123      0.0334
     20  N         20.2430    9.6130   23.5790 N.am  124  ASN124     -0.1958
     21  CA        21.0390    9.9970   24.7290 C.3   124  ASN124      0.1819
     22  C         20.5310    9.4180   26.0450 C.2   124  ASN124      0.2621
     23  O         19.3450    9.4590   26.3480 O.2   124  ASN124     -0.2715
     24  CB        21.1690   11.5210   24.8150 C.3   124  ASN124      0.1195
     25  CG        22.5910   11.9660   25.1100 C.2   124  ASN124      0.2630
     26  OD1       23.3000   11.3440   25.9120 O.2   124  ASN124     -0.2716
     27  ND2       23.0220   13.0420   24.4520 N.am  124  ASN124     -0.0877
     28  N         21.4590    8.8670   26.8140 N.am  125  GLY125     -0.1954
     29  CA        21.1700    8.3410   28.1270 C.3   125  GLY125      0.1869
     30  C         22.1340    8.9590   29.1140 C.2   125  GLY125      0.2309
     31  O         23.3450    8.9680   28.8940 O.2   125  GLY125     -0.2863
     32  N         23.4840    5.7940   31.0900 N.3   128  VAL128     -0.1245
     33  CA        23.7580    4.6310   30.2520 C.3   128  VAL128      0.1561
     34  C         24.8190    3.7100   30.8660 C.2   128  VAL128      0.2260
     35  O         24.8290    2.5010   30.6300 O.2   128  VAL128     -0.2867
     36  CB        24.1910    5.0430   28.8390 C.3   128  VAL128      0.0252
     37  CG1       25.5910    5.6570   28.8730 C.3   128  VAL128      0.0019
     38  CG2       24.1350    3.8420   27.9040 C.3   128  VAL128      0.0019
     39  N         17.6870    1.5670   15.8540 N.3   172  THR172     -0.1203
     40  CA        17.5130    0.9080   17.1410 C.3   172  THR172      0.1994
     41  C         18.6240   -0.1310   17.3870 C.2   172  THR172      0.2617
     42  O         19.5570   -0.2590   16.5960 O.2   172  THR172     -0.2717
     43  CB        16.1130    0.2530   17.2620 C.3   172  THR172      0.1784
     44  OG1       15.8870   -0.1630   18.6140 O.3   172  THR172     -0.2211
     45  CG2       15.9630   -0.9610   16.2970 C.3   172  THR172      0.0376
     46  N         18.5240   -0.8640   18.4900 N.am  173  TYR173     -0.1975
     47  CA        19.5510   -1.8280   18.8530 C.3   173  TYR173      0.1639
     48  C         18.9010   -3.0310   19.5150 C.2   173  TYR173      0.2290
     49  O         17.9100   -2.8830   20.2200 O.2   173  TYR173     -0.2864
     50  CB        20.6080   -1.1900   19.7740 C.3   173  TYR173      0.0560
     51  CG        21.7630   -2.1320   20.0540 C.ar  173  TYR173     -0.0198
     52  CD1       22.4220   -2.7800   19.0110 C.ar  173  TYR173     -0.0009
     53  CD2       22.1700   -2.4060   21.3570 C.ar  173  TYR173     -0.0009
     54  CE1       23.4670   -3.6660   19.2480 C.ar  173  TYR173      0.0417
     55  CE2       23.2200   -3.2970   21.6090 C.ar  173  TYR173      0.0417
     56  CZ        23.8600   -3.9240   20.5460 C.ar  173  TYR173      0.1957
     57  OH        24.8990   -4.7870   20.8000 O.3   173  TYR173     -0.2866
     58  N         24.4580   -2.1130   27.9430 N.3   183  TYR183     -0.1241
     59  CA        23.4970   -1.1890   27.3610 C.3   183  TYR183      0.1605
     60  C         22.4920   -0.8550   28.4650 C.2   183  TYR183      0.2264
     61  O         21.4660   -1.5310   28.6170 O.2   183  TYR183     -0.2867
     62  CB        22.8080   -1.8140   26.1440 C.3   183  TYR183      0.0534
     63  CG        22.3020   -0.8250   25.1100 C.ar  183  TYR183     -0.0201
     64  CD1       23.1660   -0.2350   24.2070 C.ar  183  TYR183     -0.0009
     65  CD2       20.9600   -0.5040   25.0250 C.ar  183  TYR183     -0.0009
     66  CE1       22.7140    0.6470   23.2530 C.ar  183  TYR183      0.0417
     67  CE2       20.4970    0.3830   24.0760 C.ar  183  TYR183      0.0417
     68  CZ        21.3810    0.9550   23.1840 C.ar  183  TYR183      0.1957
     69  OH        20.9350    1.8500   22.2290 O.3   183  TYR183     -0.2866
     70  N         18.3600    2.5180   28.3160 N.3   187  MET187     -0.1245
     71  CA        18.5150    2.6490   26.8660 C.3   187  MET187      0.1570
     72  C         17.8730    1.4600   26.1430 C.2   187  MET187      0.2261
     73  O         17.3190    1.6080   25.0500 O.2   187  MET187     -0.2867
     74  CB        19.9880    2.7540   26.4710 C.3   187  MET187      0.0387
     75  CG        20.5620    4.1530   26.5410 C.3   187  MET187      0.0595
     76  SD        19.7930    5.3220   25.4050 S.3   187  MET187     -0.1393
     77  CE        19.4340    4.2800   23.9910 C.3   187  MET187      0.0692
     78  N         14.8810    1.8210   23.4400 N.3   191  LYS191     -0.1245
     79  CA        14.8290    1.1770   22.1340 C.3   191  LYS191      0.1561
     80  C         13.5910    0.2930   22.0250 C.2   191  LYS191      0.2260
     81  O         12.9140    0.2920   20.9900 O.2   191  LYS191     -0.2867
     82  CB        16.0890    0.3550   21.8400 C.3   191  LYS191      0.0271
     83  CG        17.3330    1.1700   21.6650 C.3   191  LYS191      0.0035
     84  CD        17.0930    2.3680   20.7900 C.3   191  LYS191      0.0206
     85  CE        18.4080    3.0730   20.4550 C.3   191  LYS191      0.1093
     86  NZ        18.1890    4.2130   19.5230 N.3   191  LYS191     -0.1314
     87  N         23.8640   -3.0810   13.6850 N.3   219  GLY219     -0.1210
     88  CA        24.9960   -3.6670   14.3810 C.3   219  GLY219      0.1940
     89  C         25.9300   -2.5820   14.9060 C.2   219  GLY219      0.2454
     90  O         25.6780   -1.3920   14.7070 O.2   219  GLY219     -0.2732
     91  N         27.0240   -2.9890   15.5680 N.am  220  PRO220     -0.2717
     92  CA        27.9610   -2.1010   16.2620 C.3   220  PRO220      0.1535
     93  C         28.7830   -1.2400   15.3130 C.2   220  PRO220      0.2598
     94  O         29.4180   -1.7680   14.4030 O.2   220  PRO220     -0.2715
     95  CB        28.8890   -3.0730   17.0030 C.3   220  PRO220      0.0310
     96  CG        28.2960   -4.4220   16.8380 C.3   220  PRO220      0.0237
     97  CD        27.4700   -4.3880   15.6130 C.3   220  PRO220      0.0939
     98  N         28.7580    0.0690   15.5310 N.am  221  LEU221     -0.1978
     99  CA        29.5410    1.0180   14.7460 C.3   221  LEU221      0.1596
    100  C         30.3370    1.8860   15.7070 C.2   221  LEU221      0.2287
    101  O         29.7830    2.4140   16.6740 O.2   221  LEU221     -0.2864
    102  CB        28.6260    1.9020   13.8940 C.3   221  LEU221      0.0297
    103  CG        29.3250    2.9200   12.9830 C.3   221  LEU221      0.0022
    104  CD1       30.0630    2.2190   11.8570 C.3   221  LEU221      0.0001
    105  CD2       28.3370    3.9030   12.4050 C.3   221  LEU221      0.0001
    106  N         31.1000    4.8600   16.4420 N.3   223  SER223     -0.1217
    107  CA        30.7890    6.2780   16.3390 C.3   223  SER223      0.1889
    108  C         31.2470    6.9930   17.6120 C.2   223  SER223      0.2288
    109  O         31.8110    6.3640   18.5130 O.2   223  SER223     -0.2866
    110  CB        29.2840    6.4620   16.1500 C.3   223  SER223      0.2089
    111  OG        28.5740    5.9470   17.2650 O.3   223  SER223     -0.2183
    112  N         29.2660    8.5840   20.0120 N.3   225  ALA225     -0.1231
    113  CA        28.4110    8.1510   21.1080 C.3   225  ALA225      0.1694
    114  C         28.7580    6.7330   21.5410 C.2   225  ALA225      0.2591
    115  O         28.8280    6.4290   22.7380 O.2   225  ALA225     -0.2718
    116  CB        26.9500    8.2410   20.7090 C.3   225  ALA225      0.0304
    117  N         28.9690    5.8700   20.5530 N.am  226  ALA226     -0.1980
    118  CA        29.3490    4.4930   20.8030 C.3   226  ALA226      0.1597
    119  C         30.5780    4.4210   21.7100 C.2   226  ALA226      0.2287
    120  O         30.6020    3.6710   22.6900 O.2   226  ALA226     -0.2864
    121  CB        29.6210    3.7860   19.4790 C.3   226  ALA226      0.0319
    122  N         30.8720    4.3660   26.1290 N.3   229  ILE229     -0.1245
    123  CA        30.9480    3.1370   26.9160 C.3   229  ILE229      0.1561
    124  C         32.2480    2.4180   26.6030 C.2   229  ILE229      0.2260
    125  O         32.5520    2.1710   25.4330 O.2   229  ILE229     -0.2867
    126  CB        29.7960    2.1830   26.5690 C.3   229  ILE229      0.0252
    127  CG1       28.5950    2.9680   26.0340 C.3   229  ILE229      0.0019
    128  CG2       29.4450    1.3060   27.7750 C.3   229  ILE229      0.0019
    129  CD1       27.6390    2.1280   25.2340 C.3   229  ILE229      0.0001
    130  N         32.9530   -0.8200   25.5520 N.3   232  PHE232     -0.1227
    131  CA        31.9090   -1.7770   25.2670 C.3   232  PHE232      0.1736
    132  C         31.7740   -1.9300   23.7420 C.2   232  PHE232      0.2595
    133  O         31.4730   -3.0180   23.2440 O.2   232  PHE232     -0.2718
    134  CB        30.6040   -1.3140   25.9370 C.3   232  PHE232      0.0547
    135  CG        29.3560   -1.6120   25.1490 C.ar  232  PHE232     -0.0202
    136  CD1       28.9900   -0.8120   24.0690 C.ar  232  PHE232     -0.0042
    137  CD2       28.5330   -2.6720   25.5030 C.ar  232  PHE232     -0.0042
    138  CE1       27.8410   -1.0810   23.3410 C.ar  232  PHE232     -0.0003
    139  CE2       27.3810   -2.9450   24.7780 C.ar  232  PHE232     -0.0003
    140  CZ        27.0340   -2.1470   23.7000 C.ar  232  PHE232     -0.0000
    141  N         32.0390   -0.8500   23.0070 N.am  233  ILE233     -0.1980
    142  CA        31.8370   -0.8260   21.5580 C.3   233  ILE233      0.1595
    143  C         32.8510   -1.6610   20.7680 C.2   233  ILE233      0.2287
    144  O         32.5290   -2.1930   19.7020 O.2   233  ILE233     -0.2864
    145  CB        31.8070    0.6230   21.0020 C.3   233  ILE233      0.0276
    146  CG1       31.3500    0.6340   19.5390 C.3   233  ILE233      0.0022
    147  CG2       33.1710    1.2810   21.1390 C.3   233  ILE233      0.0022
    148  CD1       30.0510   -0.1050   19.2910 C.3   233  ILE233      0.0001
    149  N         31.6480   -5.4260   21.2300 N.3   236  ALA236     -0.1245
    150  CA        30.5060   -5.7520   20.3950 C.3   236  ALA236      0.1562
    151  C         30.9470   -5.9120   18.9470 C.2   236  ALA236      0.2260
    152  O         30.4040   -6.7360   18.2240 O.2   236  ALA236     -0.2867
    153  CB        29.4320   -4.6890   20.5140 C.3   236  ALA236      0.0290
@<TRIPOS>BOND
     1   104   103    1
     2   105   103    1
     3   103   102    1
     4     5     6    1
     5     5     2    1
     6    87    88    1
     7     1     2    1
     8   102    99    1
     9     2     3    1
    10    88    89    1
    11    94    93    2
    12    90    89    2
    13    99    98    1
    14    99   100    1
    15    89    91   am
    16    93    98   am
    17    93    92    1
    18     3     4    2
    19     3     7   am
    20    91    97    1
    21    91    92    1
    22    97    96    1
    23   100   101    2
    24    39    40    1
    25   110   107    1
    26   110   111    1
    27    92    95    1
    28    45    43    1
    29   107   106    1
    30   107   108    1
    31     7     8    1
    32    42    41    2
    33    96    95    1
    34    40    43    1
    35    40    41    1
    36    43    44    1
    37    14    12    1
    38    41    46   am
    39   108   109    2
    40     8    11    1
    41     8     9    1
    42    11    12    1
    43    12    13    1
    44   152   151    2
    45    46    47    1
    46    47    48    1
    47    47    50    1
    48    10     9    2
    49     9    15   am
    50   151   150    1
    51    52    54   ar
    52    52    51   ar
    53    54    56   ar
    54   148   146    1
    55   121   118    1
    56    48    49    2
    57    86    85    1
    58   146   145    1
    59   144   143    2
    60    50    51    1
    61    15    16    1
    62   112   113    1
    63    51    53   ar
    64   150   153    1
    65   150   149    1
    66    85    84    1
    67    56    57    1
    68    56    55   ar
    69   117   118    1
    70   117   114   am
    71   116   113    1
    72   143   142    1
    73    84    83    1
    74   118   119    1
    75    81    80    2
    76   145   147    1
    77   145   142    1
    78   113   114    1
    79    19    16    1
    80    16    17    1
    81    53    55   ar
    82   114   115    2
    83   142   141    1
    84    83    82    1
    85   119   120    2
    86    82    79    1
    87    80    79    1
    88    18    17    2
    89    79    78    1
    90    69    68    1
    91    17    20   am
    92   141   132   am
    93    68    66   ar
    94    68    67   ar
    95   133   132    2
    96    66    64   ar
    97   138   140   ar
    98   138   136   ar
    99    20    21    1
   100   140   139   ar
   101   132   131    1
   102    77    76    1
   103   136   135   ar
   104    67    65   ar
   105    64    63   ar
   106    27    25   am
   107    21    24    1
   108    21    22    1
   109   139   137   ar
   110    24    25    1
   111    65    63   ar
   112    73    72    2
   113    25    26    2
   114    63    62    1
   115   135   137   ar
   116   135   134    1
   117   129   127    1
   118   131   130    1
   119   131   134    1
   120    76    75    1
   121   125   124    2
   122   127   126    1
   123    22    23    2
   124    22    28   am
   125   122   123    1
   126    72    71    1
   127    62    59    1
   128    74    75    1
   129    74    71    1
   130   126   123    1
   131   126   128    1
   132   124   123    1
   133    28    29    1
   134    71    70    1
   135    59    58    1
   136    59    60    1
   137    38    36    1
   138    29    30    1
   139    60    61    2
   140    36    37    1
   141    36    33    1
   142    31    30    2
   143    33    34    1
   144    33    32    1
   145    35    34    2
