@<TRIPOS>MOLECULE
tmp/3f4fC02.pdb
 65 59 0 0 0
SMALL
GASTEIGER

@<TRIPOS>ATOM
      1  N         -7.3910  -22.9190   28.2260 N.3    16  THR16      -0.1218
      2  CA        -8.7900  -23.2290   28.4820 C.3    16  THR16       0.1862
      3  C         -9.4490  -23.8860   27.2740 C.2    16  THR16       0.2287
      4  O         -9.1730  -23.5130   26.1340 O.2    16  THR16      -0.2866
      5  CB        -9.5870  -21.9230   28.7270 C.3    16  THR16       0.1770
      6  OG1       -9.2440  -20.9500   27.7250 O.3    16  THR16      -0.2211
      7  CG2       -9.3010  -21.3380   30.1090 C.3    16  THR16       0.0375
      8  N        -12.4360  -24.2730   24.7090 N.3    18  GLY18      -0.1210
      9  CA       -13.3510  -23.2720   24.1580 C.3    18  GLY18       0.1956
     10  C        -14.7720  -23.7700   23.9650 C.2    18  GLY18       0.2612
     11  O        -15.6610  -22.9760   23.6680 O.2    18  GLY18      -0.2717
     12  N        -14.9680  -25.0870   24.0810 N.am   19  SER19      -0.1952
     13  CA       -16.3110  -25.7240   24.0830 C.3    19  SER19       0.1924
     14  C        -16.2240  -27.0540   24.8290 C.2    19  SER19       0.2314
     15  O        -15.1290  -27.4940   25.1840 O.2    19  SER19      -0.2863
     16  CB       -16.8490  -25.9330   22.6530 C.3    19  SER19       0.2116
     17  OG       -16.0300  -26.8110   21.8700 O.3    19  SER19      -0.2180
     18  N        -14.1860  -29.5540   22.7240 N.3    22  ALA22      -0.1231
     19  CA       -13.1500  -28.9040   21.8910 C.3    22  ALA22       0.1694
     20  C        -11.9150  -29.7960   21.8170 C.2    22  ALA22       0.2592
     21  O        -11.5700  -30.4290   22.8200 O.2    22  ALA22      -0.2718
     22  CB       -12.7830  -27.5980   22.4990 C.3    22  ALA22       0.0304
     23  N        -11.2800  -29.8650   20.6390 N.am   23  ALA23      -0.1966
     24  CA       -10.0460  -30.6240   20.4500 C.3    23  ALA23       0.1728
     25  C         -8.8910  -30.0360   21.2730 C.2    23  ALA23       0.2616
     26  O         -8.0090  -30.7600   21.6860 O.2    23  ALA23      -0.2715
     27  CB        -9.6050  -30.6390   18.9600 C.3    23  ALA23       0.0334
     28  N         -8.9070  -28.7230   21.4820 N.am   24  GLY24      -0.1955
     29  CA        -7.7150  -27.9890   21.8910 C.3    24  GLY24       0.1869
     30  C         -7.9190  -27.0180   23.0480 C.2    24  GLY24       0.2309
     31  O         -9.0510  -26.6520   23.3780 O.2    24  GLY24      -0.2863
     32  N         -7.1210  -23.2090   24.4140 N.3    26  ASP26      -0.1239
     33  CA        -6.6570  -21.9070   23.9090 C.3    26  ASP26       0.1674
     34  C         -5.3980  -21.4840   24.6580 C.2    26  ASP26       0.2266
     35  O         -5.3340  -21.6200   25.8880 O.2    26  ASP26      -0.2867
     36  CB        -7.7200  -20.8490   24.1400 C.3    26  ASP26       0.1410
     37  CG        -9.0500  -21.1920   23.4870 C.2    26  ASP26       0.3668
     38  OD1       -9.0830  -21.4130   22.2790 O.co2  26  ASP26      -0.2456
     39  OD2      -10.0580  -21.1630   24.2020 O.co2  26  ASP26      -0.2456
     40  N         -5.7240  -21.0050   15.6330 N.3    62  ARG62      -0.1231
     41  CA        -7.1010  -20.5950   15.8560 C.3    62  ARG62       0.1694
     42  C         -7.7270  -20.3080   14.5050 C.2    62  ARG62       0.2592
     43  O         -7.0970  -19.6630   13.6580 O.2    62  ARG62      -0.2718
     44  CB        -7.1670  -19.3500   16.7620 C.3    62  ARG62       0.0321
     45  CG        -6.7400  -19.6690   18.1760 C.3    62  ARG62       0.0489
     46  CD        -7.1740  -18.5820   19.1690 C.3    62  ARG62       0.2205
     47  NE        -8.6310  -18.5090   19.2390 N.pl3  62  ARG62      -0.0865
     48  CZ        -9.3660  -17.4080   19.1070 C.cat  62  ARG62       0.5346
     49  NH1       -8.8000  -16.2160   18.9440 N.pl3  62  ARG62       0.1354
     50  NH2      -10.6840  -17.5130   19.1710 N.pl3  62  ARG62       0.1354
     51  N         -8.9650  -20.7660   14.3080 N.am   63  SER63      -0.1952
     52  CA        -9.6080  -20.6820   12.9970 C.3    63  SER63       0.1924
     53  C         -9.9530  -19.2480   12.5530 C.2    63  SER63       0.2314
     54  O         -9.6860  -18.8760   11.4150 O.2    63  SER63      -0.2863
     55  CB       -10.8190  -21.6220   12.9170 C.3    63  SER63       0.2116
     56  OG       -11.9490  -21.0540   13.5540 O.3    63  SER63      -0.2180
     57  N         -4.0090  -22.6810   19.6940 N.3   108  GLN108     -0.1245
     58  CA        -4.5830  -23.7000   20.5760 C.3   108  GLN108      0.1566
     59  C         -3.6210  -24.8770   20.7820 C.2   108  GLN108      0.2260
     60  O         -2.8990  -25.2410   19.8620 O.2   108  GLN108     -0.2867
     61  CB        -5.9420  -24.1850   20.0700 C.3   108  GLN108      0.0367
     62  CG        -5.9500  -24.7660   18.6770 C.3   108  GLN108      0.0905
     63  CD        -7.3520  -25.2400   18.3060 C.2   108  GLN108      0.2608
     64  OE1       -7.9520  -26.0060   19.0470 O.2   108  GLN108     -0.2717
     65  NE2       -7.8780  -24.7710   17.1750 N.am  108  GLN108     -0.0878
@<TRIPOS>BOND
     1    54    53    2
     2    53    52    1
     3    55    52    1
     4    55    56    1
     5    52    51    1
     6    43    42    2
     7    51    42   am
     8    42    41    1
     9    40    41    1
    10    41    44    1
    11    44    45    1
    12    65    63   am
    13    45    46    1
    14    63    62    1
    15    63    64    2
    16    62    61    1
    17    49    48    1
    18    27    24    1
    19    48    50    1
    20    48    47    2
    21    46    47    1
    22    57    58    1
    23    60    59    2
    24    61    58    1
    25    24    23    1
    26    24    25    1
    27    58    59    1
    28    23    20   am
    29    25    28   am
    30    25    26    2
    31    28    29    1
    32    20    19    1
    33    20    21    2
    34    17    16    1
    35    29    30    1
    36    19    22    1
    37    19    18    1
    38    38    37   ar
    39    16    13    1
    40    30    31    2
    41    37    36    1
    42    37    39   ar
    43    11    10    2
    44    33    36    1
    45    33    32    1
    46    33    34    1
    47    10    12   am
    48    10     9    1
    49    12    13    1
    50    13    14    1
    51     9     8    1
    52    34    35    2
    53    14    15    2
    54     4     3    2
    55     3     2    1
    56     6     5    1
    57     1     2    1
    58     2     5    1
    59     5     7    1
