@<TRIPOS>MOLECULE
tmp/3f4fB01.pdb
 87 83 0 0 0
SMALL
GASTEIGER

@<TRIPOS>ATOM
      1  N          5.3310  -35.1810    8.3240 N.3    60  ILE60      -0.1245
      2  CA         6.5490  -34.4210    8.1350 C.3    60  ILE60       0.1561
      3  C          6.2640  -33.0420    8.7160 C.2    60  ILE60       0.2260
      4  O          5.4720  -32.2390    8.1470 O.2    60  ILE60      -0.2867
      5  CB         6.9400  -34.3690    6.6210 C.3    60  ILE60       0.0252
      6  CG1        7.1620  -35.7870    6.0970 C.3    60  ILE60       0.0019
      7  CG2        8.2220  -33.5210    6.3890 C.3    60  ILE60       0.0019
      8  CD1        7.2380  -35.8300    4.5930 C.3    60  ILE60       0.0001
      9  N          5.4760  -28.0100    3.8870 N.3    75  GLY75      -0.1210
     10  CA         4.2340  -28.1540    3.1630 C.3    75  GLY75       0.1956
     11  C          3.8330  -29.6120    3.0360 C.2    75  GLY75       0.2612
     12  O          4.5760  -30.5100    3.4440 O.2    75  GLY75      -0.2717
     13  N          2.6810  -29.8590    2.4310 N.am   76  ALA76      -0.1965
     14  CA         2.1480  -31.2270    2.3180 C.3    76  ALA76       0.1728
     15  C          2.2690  -31.9160    3.6720 C.2    76  ALA76       0.2617
     16  O          1.6350  -31.4870    4.6080 O.2    76  ALA76      -0.2715
     17  CB         2.8580  -32.0140    1.2100 C.3    76  ALA76       0.0334
     18  N          3.0680  -32.9850    3.7870 N.am   77  GLY77      -0.1940
     19  CA         3.4000  -33.5170    5.1230 C.3    77  GLY77       0.2014
     20  C          2.7710  -34.8400    5.5210 C.2    77  GLY77       0.2639
     21  O          3.1890  -35.4380    6.5000 O.2    77  GLY77      -0.2714
     22  N          1.7750  -35.2940    4.7670 N.am   78  VAL78      -0.1963
     23  CA         1.0490  -36.5370    5.0690 C.3    78  VAL78       0.1727
     24  C          1.6430  -37.7460    4.3060 C.2    78  VAL78       0.2616
     25  O          1.4350  -37.9100    3.0990 O.2    78  VAL78      -0.2715
     26  CB        -0.4640  -36.3750    4.8260 C.3    78  VAL78       0.0290
     27  CG1       -1.2040  -37.6840    5.1660 C.3    78  VAL78       0.0023
     28  CG2       -1.0390  -35.1900    5.6570 C.3    78  VAL78       0.0023
     29  N          2.3910  -38.5910    5.0050 N.am   79  VAL79      -0.1963
     30  CA         2.9210  -39.8240    4.3920 C.3    79  VAL79       0.1727
     31  C          2.0720  -41.0240    4.8060 C.2    79  VAL79       0.2616
     32  O          2.0250  -41.4110    5.9980 O.2    79  VAL79      -0.2715
     33  CB         4.3900  -40.1150    4.7460 C.3    79  VAL79       0.0290
     34  CG1        4.8720  -41.3640    3.9820 C.3    79  VAL79       0.0023
     35  CG2        5.2740  -38.9150    4.4110 C.3    79  VAL79       0.0023
     36  N          1.4060  -41.6100    3.8130 N.am   80  ASP80      -0.1971
     37  CA         0.5080  -42.7480    4.0420 C.3    80  ASP80       0.1709
     38  C          1.2730  -44.0170    4.4000 C.2    80  ASP80       0.2293
     39  O          2.4020  -44.2300    3.9300 O.2    80  ASP80      -0.2864
     40  CB        -0.3450  -42.9920    2.8080 C.3    80  ASP80       0.1436
     41  CG        -1.1590  -41.7620    2.4250 C.2    80  ASP80       0.3671
     42  OD1       -0.7610  -41.0810    1.4420 O.co2  80  ASP80      -0.2456
     43  OD2       -2.1350  -41.4470    3.1440 O.co2  80  ASP80      -0.2456
     44  N          2.6370  -46.0100    1.4470 N.3    83  TYR83      -0.1241
     45  CA         3.5640  -45.3820    0.4880 C.3    83  TYR83       0.1605
     46  C          4.9370  -46.0490    0.5010 C.2    83  TYR83       0.2264
     47  O          5.5340  -46.2080    1.5600 O.2    83  TYR83      -0.2867
     48  CB         3.7080  -43.8890    0.8020 C.3    83  TYR83       0.0534
     49  CG         4.6050  -43.1340   -0.1640 C.ar   83  TYR83      -0.0201
     50  CD1        4.2210  -42.9280   -1.4970 C.ar   83  TYR83      -0.0009
     51  CD2        5.8310  -42.5750    0.2740 C.ar   83  TYR83      -0.0009
     52  CE1        5.0480  -42.2210   -2.3880 C.ar   83  TYR83       0.0417
     53  CE2        6.6300  -41.8610   -0.5880 C.ar   83  TYR83       0.0417
     54  CZ         6.2490  -41.7100   -1.9330 C.ar   83  TYR83       0.1957
     55  OH         7.0560  -40.9870   -2.8000 O.3    83  TYR83      -0.2866
     56  N         10.0980  -42.7880   -2.6220 N.3    86  GLU86      -0.1231
     57  CA        10.9740  -41.9390   -1.8030 C.3    86  GLU86       0.1699
     58  C         10.1640  -40.8680   -1.1100 C.2    86  GLU86       0.2592
     59  O          9.3550  -40.1710   -1.7510 O.2    86  GLU86      -0.2718
     60  CB        12.0560  -41.2540   -2.6280 C.3    86  GLU86       0.0402
     61  CG        12.9130  -40.2850   -1.7770 C.3    86  GLU86       0.1161
     62  CD        13.8590  -39.4840   -2.6260 C.2    86  GLU86       0.3649
     63  OE1       13.8730  -39.7620   -3.8310 O.co2  86  GLU86      -0.2457
     64  OE2       14.5810  -38.5850   -2.1060 O.co2  86  GLU86      -0.2457
     65  N         10.3930  -40.7150    0.1980 N.am   87  VAL87      -0.1966
     66  CA         9.7590  -39.6370    0.9440 C.3    87  VAL87       0.1727
     67  C         10.4820  -38.3360    0.6570 C.2    87  VAL87       0.2616
     68  O         11.7140  -38.2740    0.7230 O.2    87  VAL87      -0.2715
     69  CB         9.6910  -39.9280    2.4840 C.3    87  VAL87       0.0290
     70  CG1        9.1550  -38.7030    3.2760 C.3    87  VAL87       0.0023
     71  CG2        8.8150  -41.1400    2.7460 C.3    87  VAL87       0.0023
     72  N          9.7030  -37.3160    0.3130 N.am   88  LYS88      -0.1977
     73  CA        10.2020  -36.0230   -0.0800 C.3    88  LYS88       0.1596
     74  C          9.6980  -34.9600    0.9170 C.2    88  LYS88       0.2287
     75  O          8.5390  -34.9870    1.3540 O.2    88  LYS88      -0.2864
     76  CB         9.6780  -35.6640   -1.4780 C.3    88  LYS88       0.0298
     77  CG        10.0470  -36.6500   -2.6170 C.3    88  LYS88       0.0038
     78  CD        11.5120  -36.6050   -2.9330 C.3    88  LYS88       0.0206
     79  CE        11.7710  -37.0190   -4.3750 C.3    88  LYS88       0.1093
     80  NZ        13.2430  -36.8960   -4.6660 N.3    88  LYS88      -0.1314
     81  N          8.7140  -31.2070    1.4700 N.3    90  VAL90      -0.1245
     82  CA         8.2920  -29.9620    0.8290 C.3    90  VAL90       0.1561
     83  C          8.4990  -28.8190    1.8060 C.2    90  VAL90       0.2260
     84  O          7.9900  -28.8470    2.9220 O.2    90  VAL90      -0.2867
     85  CB         6.7580  -30.0200    0.4880 C.3    90  VAL90       0.0252
     86  CG1        6.3040  -28.7180   -0.2180 C.3    90  VAL90       0.0019
     87  CG2        6.4210  -31.3110   -0.3510 C.3    90  VAL90       0.0019
@<TRIPOS>BOND
     1    80    79    1
     2    79    78    1
     3    63    62   ar
     4    78    77    1
     5    55    54    1
     6    60    57    1
     7    60    61    1
     8    62    64   ar
     9    62    61    1
    10    56    57    1
    11    77    76    1
    12    52    54   ar
    13    52    50   ar
    14    54    53   ar
    15    57    58    1
    16    59    58    2
    17    50    49   ar
    18    76    73    1
    19    58    65   am
    20    53    51   ar
    21    87    85    1
    22    86    85    1
    23    49    51   ar
    24    49    48    1
    25    73    72    1
    26    73    74    1
    27    65    66    1
    28    72    67   am
    29    45    46    1
    30    45    48    1
    31    45    44    1
    32    85    82    1
    33    46    47    2
    34    67    68    2
    35    67    66    1
    36    82    81    1
    37    82    83    1
    38    74    75    2
    39    66    69    1
    40    17    14    1
    41    42    41   ar
    42    83    84    2
    43    14    13    1
    44    14    15    1
    45    41    40    1
    46    41    43   ar
    47    13    11   am
    48    69    71    1
    49    69    70    1
    50    40    37    1
    51    11    10    1
    52    11    12    2
    53    25    24    2
    54    10     9    1
    55    15    18   am
    56    15    16    2
    57    18    19    1
    58    36    37    1
    59    36    31   am
    60    39    38    2
    61    34    33    1
    62    37    38    1
    63    24    29   am
    64    24    23    1
    65    30    33    1
    66    30    31    1
    67    30    29    1
    68    35    33    1
    69     8     6    1
    70    22    23    1
    71    22    20   am
    72    31    32    2
    73    26    23    1
    74    26    27    1
    75    26    28    1
    76    19    20    1
    77    20    21    2
    78     6     5    1
    79     7     5    1
    80     5     2    1
    81     2     1    1
    82     2     3    1
    83     4     3    2
