@<TRIPOS>MOLECULE
tmp/3f4nC00.pdb
 135 130 0 0 0
SMALL
GASTEIGER

@<TRIPOS>ATOM
      1  N         51.2070   36.6900   19.7500 N.3    10  ASN10      -0.1240
      2  CA        51.5520   37.7620   18.7830 C.3    10  ASN10       0.1653
      3  C         50.3030   38.6260   18.4510 C.2    10  ASN10       0.2266
      4  O         49.2650   38.1190   18.0090 O.2    10  ASN10      -0.2867
      5  CB        52.2930   37.2000   17.5430 C.3    10  ASN10       0.1155
      6  CG        52.8060   38.2870   16.6330 C.2    10  ASN10       0.2627
      7  OD1       52.2140   39.3550   16.5160 O.2    10  ASN10      -0.2716
      8  ND2       53.9060   38.0370   15.9910 N.am   10  ASN10      -0.0877
      9  N         50.2610   41.4810   16.4220 N.3    12  ASP12      -0.1225
     10  CA        50.3660   42.2450   15.1640 C.3    12  ASP12       0.1805
     11  C         49.0090   42.3290   14.4270 C.2    12  ASP12       0.2597
     12  O         48.6430   43.3680   13.8760 O.2    12  ASP12      -0.2718
     13  CB        51.4200   41.6570   14.2170 C.3    12  ASP12       0.1424
     14  CG        52.8800   41.6510   14.7920 C.2    12  ASP12       0.3668
     15  OD1       53.2410   42.4840   15.6280 O.co2  12  ASP12      -0.2456
     16  OD2       53.6910   40.7880   14.3810 O.co2  12  ASP12      -0.2456
     17  N         48.2240   41.2650   14.4080 N.am   13  HIS13      -0.1975
     18  CA        47.0170   41.3660   13.5820 C.3    13  HIS13       0.1656
     19  C         45.9160   42.3180   14.1000 C.2    13  HIS13       0.2291
     20  O         45.1490   42.8910   13.3020 O.2    13  HIS13      -0.2864
     21  CB        46.5670   40.0110   13.0320 C.3    13  HIS13       0.0771
     22  CG        47.5510   39.4220   12.0580 C.ar   13  HIS13       0.0820
     23  ND1       48.3290   40.2010   11.2260 N.ar   13  HIS13      -0.2267
     24  CD2       47.8920   38.1440   11.7820 C.ar   13  HIS13       0.1154
     25  CE1       49.1020   39.4340   10.4750 C.ar   13  HIS13       0.1986
     26  NE2       48.8650   38.1790   10.8010 N.ar   13  HIS13      -0.2212
     27  N         55.9290   42.8520   16.3230 N.3    46  HIS46      -0.1241
     28  CA        56.9910   42.9610   15.3490 C.3    46  HIS46       0.1621
     29  C         56.9110   44.3880   14.9370 C.2    46  HIS46       0.2264
     30  O         55.9010   44.7780   14.3010 O.2    46  HIS46      -0.2867
     31  CB        56.7710   42.0020   14.1460 C.3    46  HIS46       0.0745
     32  CG        57.7770   42.1470   13.0620 C.ar   46  HIS46       0.0817
     33  ND1       57.6870   41.4510   11.8760 N.ar   46  HIS46      -0.2268
     34  CD2       58.9160   42.8960   12.9780 C.ar   46  HIS46       0.1154
     35  CE1       58.7310   41.7430   11.1150 C.ar   46  HIS46       0.1986
     36  NE2       59.4880   42.6230   11.7550 N.ar   46  HIS46      -0.2212
     37  N         59.9150   41.8150   18.1250 N.3    73  GLU73      -0.1245
     38  CA        60.3500   41.1800   16.9010 C.3    73  GLU73       0.1567
     39  C         60.7360   42.2990   15.9530 C.2    73  GLU73       0.2260
     40  O         59.9800   43.2710   15.8150 O.2    73  GLU73      -0.2867
     41  CB        59.1870   40.4560   16.2540 C.3    73  GLU73       0.0388
     42  CG        59.3190   39.0150   16.2020 C.3    73  GLU73       0.1160
     43  CD        58.0680   38.3830   15.7000 C.2    73  GLU73       0.3649
     44  OE1       57.4280   37.6690   16.4670 O.co2  73  GLU73      -0.2457
     45  OE2       57.7270   38.5800   14.5260 O.co2  73  GLU73      -0.2457
     46  N         63.4240   39.1280   19.1550 N.3    93  CYS93      -0.1235
     47  CA        63.4510   38.1590   18.1160 C.3    93  CYS93       0.1677
     48  C         63.8600   38.8390   16.8230 C.2    93  CYS93       0.2270
     49  O         63.1610   39.7040   16.3160 O.2    93  CYS93      -0.2867
     50  CB        62.0650   37.5480   17.9450 C.3    93  CYS93       0.0956
     51  SG        62.1770   36.0640   16.9660 S.3    93  CYS93      -0.0801
     52  N         64.4250   38.7270   12.8190 N.3    95  VAL95      -0.1245
     53  CA        63.5980   38.1030   11.7790 C.3    95  VAL95       0.1561
     54  C         63.9600   38.8590   10.4870 C.2    95  VAL95       0.2260
     55  O         64.3340   40.0280   10.5790 O.2    95  VAL95      -0.2867
     56  CB        62.0520   38.3040   12.0860 C.3    95  VAL95       0.0252
     57  CG1       61.7090   37.8120   13.4130 C.3    95  VAL95       0.0019
     58  CG2       61.6790   39.7430   12.0550 C.3    95  VAL95       0.0019
     59  N         65.3080   33.9940   14.6830 N.3   134  PHE134     -0.1241
     60  CA        64.2370   33.2710   14.0600 C.3   134  PHE134      0.1605
     61  C         64.7480   32.5580   12.8420 C.2   134  PHE134      0.2264
     62  O         65.0010   33.2170   11.8160 O.2   134  PHE134     -0.2867
     63  CB        63.1810   34.2310   13.6130 C.3   134  PHE134      0.0534
     64  CG        61.9930   33.5530   12.9490 C.ar  134  PHE134     -0.0203
     65  CD1       61.5390   33.9790   11.7260 C.ar  134  PHE134     -0.0042
     66  CD2       61.3330   32.4880   13.5680 C.ar  134  PHE134     -0.0042
     67  CE1       60.4410   33.3790   11.1490 C.ar  134  PHE134     -0.0003
     68  CE2       60.2350   31.9180   13.0070 C.ar  134  PHE134     -0.0003
     69  CZ        59.8020   32.3410   11.7920 C.ar  134  PHE134     -0.0000
     70  N         64.1750   30.6210   17.5250 N.3   154  GLU154     -0.1245
     71  CA        62.7790   30.2900   17.2810 C.3   154  GLU154      0.1567
     72  C         62.6930   29.4990   15.9820 C.2   154  GLU154      0.2260
     73  O         62.9040   30.0230   14.9030 O.2   154  GLU154     -0.2867
     74  CB        61.8910   31.5350   17.2400 C.3   154  GLU154      0.0388
     75  CG        60.4220   31.1820   17.3980 C.3   154  GLU154      0.1160
     76  CD        59.4540   32.3300   17.1290 C.2   154  GLU154      0.3649
     77  OE1       58.4560   32.0910   16.4060 O.co2 154  GLU154     -0.2457
     78  OE2       59.6630   33.4590   17.6220 O.co2 154  GLU154     -0.2457
     79  N         54.9800   30.2860   13.9420 N.3   194  HIS194     -0.1226
     80  CA        54.5590   30.5160   12.5960 C.3   194  HIS194      0.1752
     81  C         53.6400   29.4490   12.1450 C.2   194  HIS194      0.2597
     82  O         54.0310   28.2840   11.9390 O.2   194  HIS194     -0.2718
     83  CB        55.6660   30.7200   11.5690 C.3   194  HIS194      0.0759
     84  CG        55.2770   31.7220   10.5360 C.ar  194  HIS194      0.0818
     85  ND1       54.5650   31.3800    9.4030 N.ar  194  HIS194     -0.2268
     86  CD2       55.3850   33.0740   10.5290 C.ar  194  HIS194      0.1154
     87  CE1       54.2890   32.4780    8.7180 C.ar  194  HIS194      0.1986
     88  NE2       54.7780   33.5180    9.3810 N.ar  194  HIS194     -0.2212
     89  N         52.3940   29.8790   11.9880 N.am  195  GLY195     -0.1942
     90  CA        51.3580   29.0840   11.3560 C.3   195  GLY195      0.2014
     91  C         50.6760   28.0750   12.2540 C.2   195  GLY195      0.2638
     92  O         49.8160   27.3360   11.7880 O.2   195  GLY195     -0.2714
     93  N         51.0390   28.0270   13.5340 N.am  196  LEU196     -0.1977
     94  CA        50.3320   27.1570   14.4520 C.3   196  LEU196      0.1596
     95  C         48.8680   27.6050   14.7760 C.2   196  LEU196      0.2287
     96  O         48.5620   28.8130   14.9770 O.2   196  LEU196     -0.2864
     97  CB        51.1290   26.9640   15.7220 C.3   196  LEU196      0.0297
     98  CG        52.6280   26.7160   15.6150 C.3   196  LEU196      0.0022
     99  CD1       53.2100   26.7050   17.0030 C.3   196  LEU196      0.0001
    100  CD2       52.9540   25.4290   14.8950 C.3   196  LEU196      0.0001
    101  N         55.2210   30.9560   20.0510 N.3   214  ASN214     -0.1225
    102  CA        54.7190   32.2380   19.6180 C.3   214  ASN214      0.1785
    103  C         53.6720   32.0410   18.5550 C.2   214  ASN214      0.2597
    104  O         53.9830   31.5650   17.4450 O.2   214  ASN214     -0.2718
    105  CB        55.8570   33.1320   19.1320 C.3   214  ASN214      0.1169
    106  CG        56.6830   33.6320   20.2610 C.2   214  ASN214      0.2627
    107  OD1       56.1540   34.2490   21.1800 O.2   214  ASN214     -0.2716
    108  ND2       57.9930   33.3490   20.2350 N.am  214  ASN214     -0.0877
    109  N         52.4240   32.3740   18.9070 N.am  215  ILE215     -0.1966
    110  CA        51.2530   32.1830   18.0340 C.3   215  ILE215      0.1727
    111  C         50.4940   33.5110   17.8980 C.2   215  ILE215      0.2617
    112  O         50.2800   34.2060   18.8740 O.2   215  ILE215     -0.2715
    113  CB        50.3200   31.0880   18.6220 C.3   215  ILE215      0.0290
    114  CG1       51.1300   29.8180   18.9320 C.3   215  ILE215      0.0022
    115  CG2       49.0940   30.8430   17.7290 C.3   215  ILE215      0.0023
    116  CD1       50.4070   28.8460   19.8110 C.3   215  ILE215      0.0001
    117  N         50.0990   33.8510   16.6690 N.am  216  GLY216     -0.1940
    118  CA        49.4710   35.1300   16.3830 C.3   216  GLY216      0.2014
    119  C         48.1720   34.9610   15.6240 C.2   216  GLY216      0.2639
    120  O         47.0710   35.0100   16.2080 O.2   216  GLY216     -0.2714
    121  N         48.3200   34.7570   14.3130 N.am  217  HIS217     -0.1959
    122  CA        47.2510   34.8390   13.3290 C.3   217  HIS217      0.1787
    123  C         46.0850   33.9310   13.7230 C.2   217  HIS217      0.2620
    124  O         44.9310   34.3550   13.6640 O.2   217  HIS217     -0.2715
    125  CB        47.8190   34.5060   11.9340 C.3   217  HIS217      0.0785
    126  CG        46.7980   34.4120   10.8300 C.ar  217  HIS217      0.0821
    127  ND1       46.2860   35.5210   10.1830 N.ar  217  HIS217     -0.2267
    128  CD2       46.2450   33.3380   10.2180 C.ar  217  HIS217      0.1154
    129  CE1       45.4450   35.1340    9.2400 C.ar  217  HIS217      0.1986
    130  NE2       45.3910   33.8150    9.2470 N.ar  217  HIS217     -0.2212
    131  N         46.3770   32.7240   14.2000 N.am  218  ALA218     -0.1977
    132  CA        45.3140   31.7620   14.4580 C.3   218  ALA218      0.1597
    133  C         44.5880   32.1370   15.6950 C.2   218  ALA218      0.2287
    134  O         43.3930   31.8600   15.8250 O.2   218  ALA218     -0.2864
    135  CB        45.8460   30.3460   14.5540 C.3   218  ALA218      0.0319
@<TRIPOS>BOND
     1    87    88   ar
     2    87    85   ar
     3   129   130   ar
     4   129   127   ar
     5   130   128   ar
     6    88    86   ar
     7    85    84   ar
     8   127   126   ar
     9   128   126   ar
    10    25    26   ar
    11    25    23   ar
    12    54    55    2
    13    54    53    1
    14    86    84   ar
    15    84    83    1
    16    26    24   ar
    17   126   125    1
    18    35    36   ar
    19    35    33   ar
    20    67    65   ar
    21    67    69   ar
    22    23    22   ar
    23    90    89    1
    24    90    91    1
    25    83    80    1
    26    65    64   ar
    27    36    34   ar
    28    53    56    1
    29    53    52    1
    30    24    22   ar
    31    92    91    2
    32    69    68   ar
    33    62    61    2
    34    33    32   ar
    35   125   122    1
    36    82    81    2
    37    89    81   am
    38    58    56    1
    39    22    21    1
    40    56    57    1
    41    81    80    1
    42    91    93   am
    43    80    79    1
    44    61    60    1
    45    64    66   ar
    46    64    63    1
    47    34    32   ar
    48    68    66   ar
    49    21    18    1
    50    32    31    1
    51    20    19    2
    52   122   123    1
    53   122   121    1
    54    93    94    1
    55    18    19    1
    56    18    17    1
    57    63    60    1
    58   124   123    2
    59   123   131   am
    60    12    11    2
    61    60    59    1
    62    31    28    1
    63   131   132    1
    64    13    14    1
    65    13    10    1
    66    30    29    2
    67   121   119   am
    68    16    14   ar
    69    17    11   am
    70    11    10    1
    71    94    95    1
    72    94    97    1
    73   132   135    1
    74   132   133    1
    75    45    43   ar
    76    95    96    2
    77    14    15   ar
    78   100    98    1
    79    73    72    2
    80    29    28    1
    81    10     9    1
    82    28    27    1
    83    98    97    1
    84    98    99    1
    85   119   120    2
    86   119   118    1
    87   133   134    2
    88    43    42    1
    89    43    44   ar
    90    40    39    2
    91    39    38    1
    92    72    71    1
    93     8     6   am
    94    42    41    1
    95    41    38    1
    96    49    48    2
    97   118   117    1
    98    77    76   ar
    99     7     6    2
   100     6     5    1
   101   117   111   am
   102    48    47    1
   103    38    37    1
   104    51    50    1
   105    76    75    1
   106    76    78   ar
   107    74    71    1
   108    74    75    1
   109    71    70    1
   110   104   103    2
   111     5     2    1
   112   115   113    1
   113   111   110    1
   114   111   112    2
   115    50    47    1
   116     4     3    2
   117   110   113    1
   118   110   109    1
   119    47    46    1
   120     3     2    1
   121   103   109   am
   122   103   102    1
   123   113   114    1
   124     2     1    1
   125   114   116    1
   126   105   102    1
   127   105   106    1
   128   102   101    1
   129   108   106   am
   130   106   107    2
