@<TRIPOS>MOLECULE
tmp/3f4tA00.pdb
 87 83 0 0 0
SMALL
GASTEIGER

@<TRIPOS>ATOM
      1  N         23.8110    7.8520    9.0380 N.3    79  ALA79      -0.1231
      2  CA        24.6590    9.0340    8.8940 C.3    79  ALA79       0.1694
      3  C         24.2870   10.1190    9.9050 C.2    79  ALA79       0.2592
      4  O         25.0060   11.0970   10.0590 O.2    79  ALA79      -0.2718
      5  CB        24.5660    9.5860    7.4660 C.3    79  ALA79       0.0304
      6  N         23.1550    9.9480   10.5830 N.am   80  TYR80      -0.1976
      7  CA        22.6520   10.9470   11.5280 C.3    80  TYR80       0.1639
      8  C         22.7920   10.4610   12.9690 C.2    80  TYR80       0.2290
      9  O         22.0250    9.6170   13.4280 O.2    80  TYR80      -0.2864
     10  CB        21.1980   11.2810   11.2080 C.3    80  TYR80       0.0560
     11  CG        21.0230   11.8490    9.8110 C.ar   80  TYR80      -0.0198
     12  CD1       20.9790   13.2260    9.6030 C.ar   80  TYR80      -0.0009
     13  CD2       20.9210   11.0170    8.7070 C.ar   80  TYR80      -0.0009
     14  CE1       20.8200   13.7570    8.3340 C.ar   80  TYR80       0.0417
     15  CE2       20.7690   11.5440    7.4120 C.ar   80  TYR80       0.0417
     16  CZ        20.7190   12.9180    7.2430 C.ar   80  TYR80       0.1957
     17  OH        20.5610   13.4760    5.9860 O.3    80  TYR80      -0.2866
     18  N         18.4070   14.2260   15.3470 N.3    85  ASP85      -0.1239
     19  CA        18.7300   14.2260   13.9140 C.3    85  ASP85       0.1674
     20  C         18.3070   12.9160   13.2610 C.2    85  ASP85       0.2266
     21  O         17.7820   12.8940   12.1450 O.2    85  ASP85      -0.2867
     22  CB        20.2270   14.4410   13.6920 C.3    85  ASP85       0.1410
     23  CG        20.6700   15.8560   13.9960 C.2    85  ASP85       0.3668
     24  OD1       19.8150   16.7080   14.3300 O.co2  85  ASP85      -0.2456
     25  OD2       21.8830   16.1150   13.8880 O.co2  85  ASP85      -0.2456
     26  N         14.5200   12.9390   13.0660 N.3    88  ASN88      -0.1225
     27  CA        14.0860   13.9040   12.0490 C.3    88  ASN88       0.1785
     28  C         14.3560   13.4320   10.6220 C.2    88  ASN88       0.2597
     29  O         13.6150   13.7790    9.6950 O.2    88  ASN88      -0.2718
     30  CB        14.6990   15.2920   12.2890 C.3    88  ASN88       0.1169
     31  CG        13.9830   16.0660   13.3870 C.2    88  ASN88       0.2627
     32  OD1       12.7840   15.8780   13.6220 O.2    88  ASN88      -0.2716
     33  ND2       14.7090   16.9430   14.0590 N.am   88  ASN88      -0.0877
     34  N         15.4040   12.6310   10.4370 N.am   89  PHE89      -0.1976
     35  CA        15.6360   12.0280    9.1300 C.3    89  PHE89       0.1639
     36  C         14.5360   11.0410    8.7690 C.2    89  PHE89       0.2290
     37  O         13.9790   11.1030    7.6700 O.2    89  PHE89      -0.2864
     38  CB        17.0040   11.3300    9.0240 C.3    89  PHE89       0.0560
     39  CG        17.1600   10.5200    7.7650 C.ar   89  PHE89      -0.0200
     40  CD1       17.5860   11.1190    6.5840 C.ar   89  PHE89      -0.0042
     41  CD2       16.8450    9.1610    7.7510 C.ar   89  PHE89      -0.0042
     42  CE1       17.7130   10.3710    5.4150 C.ar   89  PHE89      -0.0003
     43  CE2       16.9660    8.4150    6.5860 C.ar   89  PHE89      -0.0003
     44  CZ        17.4000    9.0140    5.4260 C.ar   89  PHE89      -0.0000
     45  N         11.4060   12.8190    7.9180 N.3    92  ALA92      -0.1245
     46  CA        11.4260   13.4180    6.5860 C.3    92  ALA92       0.1562
     47  C         11.1450   12.3780    5.5000 C.2    92  ALA92       0.2260
     48  O         10.4470   12.6550    4.5250 O.2    92  ALA92      -0.2867
     49  CB        12.7520   14.1190    6.3290 C.3    92  ALA92       0.0290
     50  N         16.7390   14.9180    0.4440 N.3   114  ILE114     -0.1245
     51  CA        16.7050   14.9550    1.8980 C.3   114  ILE114      0.1561
     52  C         18.0870   15.2100    2.4680 C.2   114  ILE114      0.2260
     53  O         18.2300   15.9840    3.4180 O.2   114  ILE114     -0.2867
     54  CB        16.0860   13.6750    2.4760 C.3   114  ILE114      0.0252
     55  CG1       14.5660   13.6910    2.2240 C.3   114  ILE114      0.0019
     56  CG2       16.3720   13.5730    3.9760 C.3   114  ILE114      0.0019
     57  CD1       13.8800   12.3410    2.5300 C.3   114  ILE114      0.0001
     58  N         18.9900   18.9540    1.9460 N.3   117  LEU117     -0.1231
     59  CA        18.2410   19.8220    2.8350 C.3   117  LEU117      0.1693
     60  C         18.8050   19.7580    4.2600 C.2   117  LEU117      0.2593
     61  O         18.6550   20.7010    5.0330 O.2   117  LEU117     -0.2718
     62  CB        16.7460   19.4470    2.8310 C.3   117  LEU117      0.0284
     63  CG        15.9610   19.8350    1.5710 C.3   117  LEU117      0.0019
     64  CD1       14.5360   19.2600    1.5960 C.3   117  LEU117      0.0001
     65  CD2       15.9220   21.3550    1.4320 C.3   117  LEU117      0.0001
     66  N         19.4430   18.6420    4.6010 N.am  118  SER118     -0.1938
     67  CA        20.0050   18.4620    5.9450 C.3   118  SER118      0.2055
     68  C         21.5130   18.7250    5.9880 C.2   118  SER118      0.2643
     69  O         22.1630   18.4870    7.0060 O.2   118  SER118     -0.2714
     70  CB        19.6870   17.0550    6.4820 C.3   118  SER118      0.2130
     71  OG        20.3050   16.0630    5.6850 O.3   118  SER118     -0.2179
     72  N         22.0640   19.2150    4.8790 N.am  119  ASN119     -0.1957
     73  CA        23.4680   19.5880    4.8090 C.3   119  ASN119      0.1819
     74  C         24.4150   18.4200    5.0360 C.2   119  ASN119      0.2621
     75  O         25.5070   18.5880    5.5750 O.2   119  ASN119     -0.2715
     76  CB        23.7790   20.7120    5.8000 C.3   119  ASN119      0.1195
     77  CG        22.8360   21.8730    5.6580 C.2   119  ASN119      0.2630
     78  OD1       22.7660   22.5080    4.6030 O.2   119  ASN119     -0.2716
     79  ND2       22.1130   22.1720    6.7210 N.am  119  ASN119     -0.0877
     80  N         23.9890   17.2370    4.6220 N.am  120  LEU120     -0.1977
     81  CA        24.8480   16.0660    4.6670 C.3   120  LEU120      0.1596
     82  C         25.7560   16.1040    3.4450 C.2   120  LEU120      0.2287
     83  O         25.2710   16.1660    2.3170 O.2   120  LEU120     -0.2864
     84  CB        23.9830   14.7950    4.6540 C.3   120  LEU120      0.0297
     85  CG        24.7430   13.5050    4.9500 C.3   120  LEU120      0.0022
     86  CD1       25.1750   13.5070    6.4160 C.3   120  LEU120      0.0001
     87  CD2       23.8810   12.2770    4.6240 C.3   120  LEU120      0.0001
@<TRIPOS>BOND
     1    50    51    1
     2    65    63    1
     3    63    64    1
     4    63    62    1
     5    51    52    1
     6    51    54    1
     7    58    59    1
     8    55    54    1
     9    55    57    1
    10    83    82    2
    11    52    53    2
    12    54    56    1
    13    62    59    1
    14    59    60    1
    15    82    81    1
    16    60    66   am
    17    60    61    2
    18    48    47    2
    19    66    67    1
    20    78    77    2
    21    80    81    1
    22    80    74   am
    23    87    85    1
    24    84    81    1
    25    84    85    1
    26    73    72    1
    27    73    74    1
    28    73    76    1
    29    72    68   am
    30    85    86    1
    31    74    75    2
    32    42    44   ar
    33    42    40   ar
    34    44    43   ar
    35    47    46    1
    36    77    76    1
    37    77    79   am
    38    71    70    1
    39    67    68    1
    40    67    70    1
    41    17    16    1
    42    68    69    2
    43    49    46    1
    44    40    39   ar
    45    43    41   ar
    46    46    45    1
    47    16    15   ar
    48    16    14   ar
    49    15    13   ar
    50     5     2    1
    51    37    36    2
    52    41    39   ar
    53    39    38    1
    54    14    12   ar
    55    13    11   ar
    56    36    35    1
    57     2     1    1
    58     2     3    1
    59    38    35    1
    60    35    34    1
    61    12    11   ar
    62    29    28    2
    63    11    10    1
    64     3     4    2
    65     3     6   am
    66    34    28   am
    67     6     7    1
    68    28    27    1
    69    10     7    1
    70     7     8    1
    71    27    30    1
    72    27    26    1
    73    21    20    2
    74    30    31    1
    75     8     9    2
    76    20    19    1
    77    31    32    2
    78    31    33   am
    79    22    19    1
    80    22    23    1
    81    25    23   ar
    82    19    18    1
    83    23    24   ar
