@<TRIPOS>MOLECULE
tmp/3f4wB00.pdb
 90 84 0 0 0
SMALL
GASTEIGER

@<TRIPOS>ATOM
      1  N         27.7110   -4.6700   12.7810 N.3     6  ALA6       -0.1245
      2  CA        28.8090   -5.6300   12.6780 C.3     6  ALA6        0.1562
      3  C         29.9090   -5.1690   11.7180 C.2     6  ALA6        0.2260
      4  O         29.6770   -5.0250   10.5200 O.2     6  ALA6       -0.2867
      5  CB        28.2770   -7.0090   12.2660 C.3     6  ALA6        0.0290
      6  N         32.9250   -6.6060   10.1200 N.3     8  ASP8       -0.1239
      7  CA        33.5310   -7.9190    9.9230 C.3     8  ASP8        0.1674
      8  C         34.8550   -7.8880    9.1520 C.2     8  ASP8        0.2266
      9  O         35.8630   -8.4120    9.6210 O.2     8  ASP8       -0.2867
     10  CB        32.5350   -8.8690    9.2440 C.3     8  ASP8        0.1410
     11  CG        31.4010   -9.2900   10.1720 C.2     8  ASP8        0.3668
     12  OD1       31.5800   -9.2240   11.4060 O.co2   8  ASP8       -0.2456
     13  OD2       30.3310   -9.6960    9.6690 O.co2   8  ASP8       -0.2456
     14  N         20.8640  -16.2080   14.4630 N.3   134  HIS134     -0.1241
     15  CA        21.8690  -15.7830   13.5050 C.3   134  HIS134      0.1621
     16  C         22.0200  -16.7860   12.3710 C.2   134  HIS134      0.2264
     17  O         22.4280  -17.9200   12.5920 O.2   134  HIS134     -0.2867
     18  CB        23.2090  -15.5930   14.2280 C.3   134  HIS134      0.0745
     19  CG        24.2720  -14.9530   13.3900 C.ar  134  HIS134      0.0817
     20  ND1       25.5900  -14.8870   13.7880 N.ar  134  HIS134     -0.2268
     21  CD2       24.2160  -14.3580   12.1750 C.ar  134  HIS134      0.1154
     22  CE1       26.2990  -14.2720   12.8580 C.ar  134  HIS134      0.1986
     23  NE2       25.4890  -13.9420   11.8680 N.ar  134  HIS134     -0.2212
     24  N         26.9100  -15.4520    7.4330 N.3   137  THR137     -0.1218
     25  CA        27.1150  -14.8840    6.1110 C.3   137  THR137      0.1862
     26  C         27.2840  -15.9690    5.0450 C.2   137  THR137      0.2287
     27  O         26.8620  -15.7870    3.9060 O.2   137  THR137     -0.2866
     28  CB        28.3100  -13.9100    6.0980 C.3   137  THR137      0.1770
     29  OG1       29.4910  -14.5960    6.5290 O.3   137  THR137     -0.2211
     30  CG2       28.0480  -12.7360    7.0370 C.3   137  THR137      0.0375
     31  N         23.8320  -17.0890    4.3560 N.3   140  GLN140     -0.1245
     32  CA        23.1440  -16.0570    3.5800 C.3   140  GLN140      0.1566
     33  C         23.5020  -16.1680    2.1060 C.2   140  GLN140      0.2260
     34  O         22.6610  -15.9560    1.2360 O.2   140  GLN140     -0.2867
     35  CB        23.5180  -14.6580    4.0660 C.3   140  GLN140      0.0367
     36  CG        23.1180  -14.3350    5.4920 C.3   140  GLN140      0.0905
     37  CD        23.8640  -13.1260    6.0140 C.2   140  GLN140      0.2608
     38  OE1       24.0420  -12.1410    5.2980 O.2   140  GLN140     -0.2717
     39  NE2       24.3210  -13.2000    7.2590 N.am  140  GLN140     -0.0878
     40  N         20.2880  -11.5000   13.5680 N.3   165  ALA165     -0.1231
     41  CA        21.2710  -11.1300   12.5590 C.3   165  ALA165      0.1694
     42  C         21.1900  -12.0770   11.3700 C.2   165  ALA165      0.2593
     43  O         20.9770  -13.2770   11.5400 O.2   165  ALA165     -0.2718
     44  CB        22.6690  -11.1560   13.1500 C.3   165  ALA165      0.0304
     45  N         21.3660  -11.5430   10.1660 N.am  166  GLY166     -0.1942
     46  CA        21.3840  -12.3850    8.9840 C.3   166  GLY166      0.2014
     47  C         21.0940  -11.6560    7.6900 C.2   166  GLY166      0.2639
     48  O         20.0920  -11.9230    7.0320 O.2   166  GLY166     -0.2714
     49  N         21.9690  -10.7250    7.3270 N.am  167  GLY167     -0.1939
     50  CA        21.8510  -10.0290    6.0590 C.3   167  GLY167      0.2014
     51  C         20.7410   -8.9980    6.0240 C.2   167  GLY167      0.2638
     52  O         20.2900   -8.6010    4.9510 O.2   167  GLY167     -0.2714
     53  N         20.3040   -8.5590    7.2010 N.am  168  ILE168     -0.1977
     54  CA        19.2240   -7.5830    7.3010 C.3   168  ILE168      0.1596
     55  C         19.6350   -6.2300    6.7230 C.2   168  ILE168      0.2287
     56  O         20.7670   -5.7810    6.9040 O.2   168  ILE168     -0.2864
     57  CB        18.7590   -7.4170    8.7630 C.3   168  ILE168      0.0276
     58  CG1       18.2670   -8.7620    9.3090 C.3   168  ILE168      0.0022
     59  CG2       17.6530   -6.3700    8.8670 C.3   168  ILE168      0.0022
     60  CD1       17.9760   -8.7510   10.7960 C.3   168  ILE168      0.0001
     61  N         20.7250   -6.6630   14.3570 N.3   185  ILE185     -0.1231
     62  CA        22.1250   -6.6380   13.9450 C.3   185  ILE185      0.1692
     63  C         22.2320   -6.4870   12.4320 C.2   185  ILE185      0.2592
     64  O         21.6030   -7.2290   11.6790 O.2   185  ILE185     -0.2718
     65  CB        22.8650   -7.9180   14.3930 C.3   185  ILE185      0.0266
     66  CG1       22.7400   -8.1050   15.9110 C.3   185  ILE185      0.0019
     67  CG2       24.3230   -7.8710   13.9640 C.3   185  ILE185      0.0020
     68  CD1       23.0960   -9.4980   16.4000 C.3   185  ILE185      0.0001
     69  N         23.0170   -5.5100   11.9960 N.am  186  VAL186     -0.1966
     70  CA        23.2010   -5.2440   10.5770 C.3   186  VAL186      0.1727
     71  C         24.6870   -5.0820   10.3090 C.2   186  VAL186      0.2617
     72  O         25.4020   -4.4710   11.1010 O.2   186  VAL186     -0.2715
     73  CB        22.4540   -3.9620   10.1350 C.3   186  VAL186      0.0290
     74  CG1       22.8070   -3.5990    8.7020 C.3   186  VAL186      0.0023
     75  CG2       20.9530   -4.1400   10.2840 C.3   186  VAL186      0.0023
     76  N         25.1560   -5.6430    9.2030 N.am  187  GLY187     -0.1940
     77  CA        26.5540   -5.5200    8.8400 C.3   187  GLY187      0.2014
     78  C         26.7210   -5.0490    7.4120 C.2   187  GLY187      0.2640
     79  O         26.8460   -3.8500    7.1490 O.2   187  GLY187     -0.2714
     80  N         26.7000   -6.0050    6.4900 N.am  188  SER188     -0.1935
     81  CA        26.9600   -5.7460    5.0780 C.3   188  SER188      0.2055
     82  C         26.0920   -4.6410    4.4770 C.2   188  SER188      0.2642
     83  O         26.5790   -3.8180    3.7010 O.2   188  SER188     -0.2714
     84  CB        26.7990   -7.0320    4.2670 C.3   188  SER188      0.2130
     85  OG        27.1110   -6.8130    2.9030 O.3   188  SER188     -0.2179
     86  N         24.8080   -4.6260    4.8190 N.am  189  ALA189     -0.1977
     87  CA        23.8960   -3.6200    4.2740 C.3   189  ALA189      0.1597
     88  C         24.4520   -2.2110    4.4520 C.2   189  ALA189      0.2287
     89  O         24.2700   -1.3460    3.5960 O.2   189  ALA189     -0.2864
     90  CB        22.5280   -3.7320    4.9240 C.3   189  ALA189      0.0319
@<TRIPOS>BOND
     1    34    33    2
     2    33    32    1
     3    85    84    1
     4    32    35    1
     5    32    31    1
     6    89    88    2
     7    83    82    2
     8    27    26    2
     9    35    36    1
    10    84    81    1
    11    87    88    1
    12    87    86    1
    13    87    90    1
    14    82    86   am
    15    82    81    1
    16    52    51    2
    17    26    25    1
    18    81    80    1
    19    38    37    2
    20    36    37    1
    21    37    39   am
    22    51    50    1
    23    51    53   am
    24    50    49    1
    25    28    25    1
    26    28    29    1
    27    28    30    1
    28    25    24    1
    29    80    78   am
    30    55    56    2
    31    55    54    1
    32    48    47    2
    33    79    78    2
    34    53    54    1
    35    54    57    1
    36    49    47   am
    37    78    77    1
    38    47    46    1
    39    74    73    1
    40    57    59    1
    41    57    58    1
    42    77    76    1
    43    46    45    1
    44     8     9    2
    45     8     7    1
    46    76    71   am
    47    10     7    1
    48    10    11    1
    49    58    60    1
    50    13    11   ar
    51     7     6    1
    52    73    75    1
    53    73    70    1
    54    45    42   am
    55    11    12   ar
    56    71    70    1
    57    71    72    2
    58     4     3    2
    59    70    69    1
    60    42    43    2
    61    42    41    1
    62    64    63    2
    63     3     2    1
    64    23    21   ar
    65    23    22   ar
    66    69    63   am
    67    21    19   ar
    68     5     2    1
    69    16    17    2
    70    16    15    1
    71    63    62    1
    72    41    44    1
    73    41    40    1
    74     2     1    1
    75    22    20   ar
    76    19    20   ar
    77    19    18    1
    78    15    18    1
    79    15    14    1
    80    62    61    1
    81    62    65    1
    82    67    65    1
    83    65    66    1
    84    66    68    1
