@<TRIPOS>MOLECULE
tmp/3f4xA00.pdb
 169 165 0 0 0
SMALL
GASTEIGER

@<TRIPOS>ATOM
      1  N          7.9770   -0.3140   10.3080 N.3     2  TRP2       -0.1241
      2  CA         7.3270   -1.2820   11.1810 C.3     2  TRP2        0.1605
      3  C          6.3730   -2.2070   10.4270 C.2     2  TRP2        0.2264
      4  O          5.7740   -1.8170    9.4170 O.2     2  TRP2       -0.2867
      5  CB         6.6440   -0.5690   12.3610 C.3     2  TRP2        0.0550
      6  CG         5.3890    0.1570   12.0060 C.ar    2  TRP2        0.0003
      7  CD1        5.2650    1.4680   11.6300 C.ar    2  TRP2        0.0946
      8  CD2        4.0700   -0.3890   12.0020 C.ar    2  TRP2        0.0152
      9  NE1        3.9450    1.7630   11.3850 N.ar    2  TRP2       -0.2442
     10  CE2        3.1910    0.6400   11.6080 C.ar    2  TRP2        0.0810
     11  CE3        3.5440   -1.6620   12.2830 C.ar    2  TRP2        0.0012
     12  CZ2        1.8090    0.4430   11.4970 C.ar    2  TRP2        0.0191
     13  CZ3        2.1700   -1.8560   12.1690 C.ar    2  TRP2        0.0001
     14  CH2        1.3220   -0.8080   11.7820 C.ar    2  TRP2        0.0015
     15  N         -3.2550    0.3960    3.5520 N.3    59  ASN59      -0.1240
     16  CA        -2.1650    1.2250    4.0380 C.3    59  ASN59       0.1653
     17  C         -0.9180    0.4090    4.3510 C.2    59  ASN59       0.2266
     18  O         -0.0210    0.8970    5.0360 O.2    59  ASN59      -0.2867
     19  CB        -2.6080    2.0350    5.2630 C.3    59  ASN59       0.1155
     20  CG        -2.8110    1.1700    6.5160 C.2    59  ASN59       0.2627
     21  OD1       -2.4800   -0.0290    6.5450 O.2    59  ASN59      -0.2716
     22  ND2       -3.3380    1.7920    7.5670 N.am   59  ASN59      -0.0877
     23  N         -0.6330   -2.2300    6.2190 N.3    61  HIS61      -0.1241
     24  CA        -0.7150   -2.9110    7.5230 C.3    61  HIS61       0.1621
     25  C         -2.0880   -3.5580    7.6700 C.2    61  HIS61       0.2264
     26  O         -2.2200   -4.6940    8.1410 O.2    61  HIS61      -0.2867
     27  CB        -0.4630   -1.9170    8.6670 C.3    61  HIS61       0.0745
     28  CG         0.7550   -1.0700    8.4620 C.ar   61  HIS61       0.0817
     29  ND1        2.0380   -1.5590    8.6220 N.ar   61  HIS61      -0.2268
     30  CD2        0.8900    0.2220    8.0810 C.ar   61  HIS61       0.1154
     31  CE1        2.9090   -0.5980    8.3630 C.ar   61  HIS61       0.1986
     32  NE2        2.2390    0.4890    8.0230 N.ar   61  HIS61      -0.2212
     33  N         -8.1750    0.5730    5.8880 N.3    64  ASN64      -0.1240
     34  CA        -8.9860    1.5550    6.6030 C.3    64  ASN64       0.1653
     35  C        -10.1960    1.9590    5.7910 C.2    64  ASN64       0.2266
     36  O        -10.0700    2.3370    4.6250 O.2    64  ASN64      -0.2867
     37  CB        -8.1960    2.8470    6.8610 C.3    64  ASN64       0.1155
     38  CG        -7.1970    2.7300    7.9840 C.2    64  ASN64       0.2627
     39  OD1       -6.4680    3.6830    8.2610 O.2    64  ASN64      -0.2716
     40  ND2       -7.1260    1.5820    8.6120 N.am   64  ASN64      -0.0877
     41  N        -12.2300    6.4730   11.3280 N.3    89  GLN89      -0.1245
     42  CA       -11.9960    5.2920   10.4880 C.3    89  GLN89       0.1566
     43  C        -12.2710    3.9880   11.2220 C.2    89  GLN89       0.2260
     44  O        -12.3510    3.9820   12.4460 O.2    89  GLN89      -0.2867
     45  CB       -10.5730    5.2870    9.8970 C.3    89  GLN89       0.0367
     46  CG        -9.4430    5.4120   10.9060 C.3    89  GLN89       0.0905
     47  CD        -8.8040    4.0760   11.2900 C.2    89  GLN89       0.2608
     48  OE1       -9.4310    3.0220   11.2430 O.2    89  GLN89      -0.2717
     49  NE2       -7.5390    4.1300   11.6780 N.am   89  GLN89      -0.0878
     50  N        -10.9590   -0.4530   10.9030 N.3    91  HIS91      -0.1241
     51  CA       -10.0760   -1.4500   10.3160 C.3    91  HIS91       0.1621
     52  C        -10.1370   -2.7280   11.1570 C.2    91  HIS91       0.2264
     53  O        -10.7800   -2.7520   12.2120 O.2    91  HIS91      -0.2867
     54  CB        -8.6390   -0.9290   10.2800 C.3    91  HIS91       0.0745
     55  CG        -8.0900   -0.6290   11.6380 C.ar   91  HIS91       0.0817
     56  ND1       -8.2890    0.5770   12.2720 N.ar   91  HIS91      -0.2268
     57  CD2       -7.3810   -1.3960   12.4950 C.ar   91  HIS91       0.1154
     58  CE1       -7.7200    0.5400   13.4650 C.ar   91  HIS91       0.1986
     59  NE2       -7.1590   -0.6460   13.6220 N.ar   91  HIS91      -0.2212
     60  N         -7.8900   -6.5260   12.4710 N.3    93  HIS93      -0.1241
     61  CA        -6.6770   -7.3370   12.6130 C.3    93  HIS93       0.1621
     62  C         -7.1170   -8.7910   12.5270 C.2    93  HIS93       0.2264
     63  O         -8.1250   -9.1550   13.1260 O.2    93  HIS93      -0.2867
     64  CB        -6.0100   -7.0880   13.9600 C.3    93  HIS93       0.0745
     65  CG        -5.7840   -5.6380   14.2490 C.ar   93  HIS93       0.0817
     66  ND1       -4.5890   -5.0110   13.9850 N.ar   93  HIS93      -0.2268
     67  CD2       -6.6060   -4.6900   14.7570 C.ar   93  HIS93       0.1154
     68  CE1       -4.6790   -3.7360   14.3320 C.ar   93  HIS93       0.1986
     69  NE2       -5.8950   -3.5150   14.7990 N.ar   93  HIS93      -0.2212
     70  N        -11.7410   -2.5940   14.8780 N.3   116  HIS116     -0.1241
     71  CA       -11.5150   -1.3620   15.6170 C.3   116  HIS116      0.1621
     72  C        -12.1650   -0.1560   14.9410 C.2   116  HIS116      0.2264
     73  O        -11.8010    0.1960   13.8240 O.2   116  HIS116     -0.2867
     74  CB       -10.0100   -1.1130   15.7880 C.3   116  HIS116      0.0745
     75  CG        -9.3330   -2.1080   16.6820 C.ar  116  HIS116      0.0817
     76  ND1       -7.9740   -2.3240   16.6620 N.ar  116  HIS116     -0.2268
     77  CD2       -9.8290   -2.9290   17.6400 C.ar  116  HIS116      0.1154
     78  CE1       -7.6620   -3.2500   17.5510 C.ar  116  HIS116      0.1986
     79  NE2       -8.7680   -3.6310   18.1620 N.ar  116  HIS116     -0.2212
     80  N        -12.5120    3.7760   15.2800 N.3   118  VAL118     -0.1245
     81  CA       -11.6530    4.7720   15.9320 C.3   118  VAL118      0.1561
     82  C        -12.3420    6.1390   15.9310 C.2   118  VAL118      0.2260
     83  O        -12.8320    6.5780   14.8860 O.2   118  VAL118     -0.2867
     84  CB       -10.2790    4.8340   15.2250 C.3   118  VAL118      0.0252
     85  CG1       -9.3230    5.8090   15.9370 C.3   118  VAL118      0.0019
     86  CG2       -9.6670    3.4540   15.1230 C.3   118  VAL118      0.0019
     87  N         -8.2320   15.2940   14.8180 N.3   127  PHE127     -0.1241
     88  CA        -7.5740   14.0340   15.1960 C.3   127  PHE127      0.1605
     89  C         -6.1360   14.2410   15.6570 C.2   127  PHE127      0.2264
     90  O         -5.7340   13.7250   16.6990 O.2   127  PHE127     -0.2867
     91  CB        -7.6000   13.0450   14.0230 C.3   127  PHE127      0.0534
     92  CG        -6.9430   11.7310   14.3230 C.ar  127  PHE127     -0.0203
     93  CD1       -5.6230   11.4950   13.9530 C.ar  127  PHE127     -0.0042
     94  CD2       -7.6450   10.7270   14.9890 C.ar  127  PHE127     -0.0042
     95  CE1       -5.0070   10.2720   14.2300 C.ar  127  PHE127     -0.0003
     96  CE2       -7.0400    9.4980   15.2710 C.ar  127  PHE127     -0.0003
     97  CZ        -5.7190    9.2710   14.8910 C.ar  127  PHE127     -0.0000
     98  N         -8.7930    9.8910   22.3300 N.3   137  LEU137     -0.1245
     99  CA        -9.4270    8.8880   21.4660 C.3   137  LEU137      0.1561
    100  C        -10.2900    7.8780   22.2050 C.2   137  LEU137      0.2260
    101  O        -10.1000    7.6230   23.3950 O.2   137  LEU137     -0.2867
    102  CB        -8.3800    8.1250   20.6410 C.3   137  LEU137      0.0270
    103  CG        -7.4520    8.8370   19.6530 C.3   137  LEU137      0.0019
    104  CD1       -6.7730    7.7930   18.8260 C.3   137  LEU137      0.0001
    105  CD2       -8.1600    9.8650   18.7420 C.3   137  LEU137      0.0001
    106  N        -11.7750    3.8900   21.1720 N.3   139  VAL139     -0.1245
    107  CA       -11.8540    2.8330   20.1830 C.3   139  VAL139      0.1561
    108  C        -12.8350    1.7760   20.6560 C.2   139  VAL139      0.2260
    109  O        -12.7260    1.2620   21.7720 O.2   139  VAL139     -0.2867
    110  CB       -10.4840    2.1990   19.8250 C.3   139  VAL139      0.0252
    111  CG1      -10.6630    1.1650   18.6900 C.3   139  VAL139      0.0019
    112  CG2       -9.4740    3.2670   19.3850 C.3   139  VAL139      0.0019
    113  N         -3.0040    3.2300   21.1880 N.3   194  LEU194     -0.1231
    114  CA        -3.0240    2.6890   19.8390 C.3   194  LEU194      0.1693
    115  C         -2.2780    1.3460   19.8630 C.2   194  LEU194      0.2593
    116  O         -1.2930    1.1780   20.6070 O.2   194  LEU194     -0.2718
    117  CB        -2.3580    3.6490   18.8260 C.3   194  LEU194      0.0284
    118  CG        -2.6310    5.1600   18.7620 C.3   194  LEU194      0.0019
    119  CD1       -1.8440    5.7800   17.6110 C.3   194  LEU194      0.0001
    120  CD2       -4.0900    5.4940   18.6170 C.3   194  LEU194      0.0001
    121  N         -2.7340    0.3810   19.0690 N.am  195  THR195     -0.1939
    122  CA        -2.0480   -0.9160   19.0210 C.3   195  THR195      0.2028
    123  C         -1.0750   -1.0320   17.8590 C.2   195  THR195      0.2643
    124  O         -0.4450   -2.0900   17.6870 O.2   195  THR195     -0.2714
    125  CB        -3.0300   -2.0850   18.8980 C.3   195  THR195      0.1808
    126  OG1       -3.6780   -2.0040   17.6180 O.3   195  THR195     -0.2208
    127  CG2       -4.0490   -2.0560   20.0160 C.3   195  THR195      0.0379
    128  N         -1.0020    0.0250   17.0440 N.am  196  THR196     -0.1937
    129  CA         0.0410    0.1940   16.0200 C.3   196  THR196      0.2013
    130  C          0.9160    1.4080   16.3460 C.2   196  THR196      0.2484
    131  O          0.4510    2.3640   16.9940 O.2   196  THR196     -0.2729
    132  CB        -0.5580    0.4490   14.6290 C.3   196  THR196      0.1807
    133  OG1       -1.4510    1.5740   14.7010 O.3   196  THR196     -0.2208
    134  CG2       -1.3070   -0.7860   14.1190 C.3   196  THR196      0.0379
    135  N          2.1870    1.3920   15.8990 N.am  197  PRO197     -0.2715
    136  CA         2.9640    2.6200   16.0500 C.3   197  PRO197      0.1521
    137  C          2.2030    3.8370   15.4960 C.2   197  PRO197      0.2440
    138  O          1.5250    3.7090   14.4700 O.2   197  PRO197     -0.2731
    139  CB         4.2150    2.3250   15.2270 C.3   197  PRO197      0.0310
    140  CG         4.4110    0.8470   15.3980 C.3   197  PRO197      0.0237
    141  CD         2.9930    0.2980   15.3160 C.3   197  PRO197      0.0939
    142  N          2.3330    5.0250   16.1310 N.am  198  PRO198     -0.2727
    143  CA         3.1870    5.4440   17.2600 C.3   198  PRO198      0.1402
    144  C          2.7610    4.9990   18.6700 C.2   198  PRO198      0.2269
    145  O          3.3770    5.4340   19.6540 O.2   198  PRO198     -0.2865
    146  CB         3.1760    6.9810   17.1590 C.3   198  PRO198      0.0296
    147  CG         1.9220    7.3100   16.4930 C.3   198  PRO198      0.0237
    148  CD         1.5550    6.1560   15.5900 C.3   198  PRO198      0.0939
    149  N         -6.0440    6.4850   24.2240 N.3   203  VAL203     -0.1245
    150  CA        -7.2650    5.7000   23.9720 C.3   203  VAL203      0.1561
    151  C         -8.0450    5.2260   25.2080 C.2   203  VAL203      0.2260
    152  O         -7.4940    4.6150   26.1290 O.2   203  VAL203     -0.2867
    153  CB        -6.9730    4.4570   23.0660 C.3   203  VAL203      0.0252
    154  CG1       -8.2760    3.6870   22.7610 C.3   203  VAL203      0.0019
    155  CG2       -6.2630    4.8720   21.7590 C.3   203  VAL203      0.0019
    156  N        -10.4470    2.4230   25.7260 N.3   205  TRP205     -0.1241
    157  CA       -10.8940    1.2180   25.0410 C.3   205  TRP205      0.1605
    158  C        -12.2360    0.7710   25.5390 C.2   205  TRP205      0.2264
    159  O        -12.5080    0.7560   26.7400 O.2   205  TRP205     -0.2867
    160  CB        -9.9050    0.0590   25.1890 C.3   205  TRP205      0.0550
    161  CG        -8.8130    0.1400   24.2120 C.ar  205  TRP205      0.0003
    162  CD1       -7.5840    0.7040   24.4040 C.ar  205  TRP205      0.0946
    163  CD2       -8.8390   -0.3280   22.8550 C.ar  205  TRP205      0.0152
    164  NE1       -6.8480    0.6230   23.2460 N.ar  205  TRP205     -0.2442
    165  CE2       -7.5920   -0.0180   22.2850 C.ar  205  TRP205      0.0810
    166  CE3       -9.8010   -0.9860   22.0680 C.ar  205  TRP205      0.0012
    167  CZ2       -7.2730   -0.3460   20.9620 C.ar  205  TRP205      0.0191
    168  CZ3       -9.4860   -1.3140   20.7660 C.ar  205  TRP205      0.0001
    169  CH2       -8.2310   -0.9960   20.2210 C.ar  205  TRP205      0.0015
@<TRIPOS>BOND
     1    15    16    1
     2    16    17    1
     3    16    19    1
     4    17    18    2
     5    36    35    2
     6    19    20    1
     7    35    34    1
     8    33    34    1
     9    23    24    1
    10    20    21    2
    11    20    22   am
    12    34    37    1
    13    37    38    1
    14    24    25    1
    15    24    27    1
    16    25    26    2
    17    38    39    2
    18    38    40   am
    19    32    30   ar
    20    32    31   ar
    21    30    28   ar
    22    31    29   ar
    23    28    29   ar
    24    28    27    1
    25     4     3    2
    26    45    42    1
    27    45    46    1
    28    54    51    1
    29    54    55    1
    30     1     2    1
    31    51    50    1
    32    51    52    1
    33     3     2    1
    34    42    43    1
    35    42    41    1
    36    46    47    1
    37    52    53    2
    38     2     5    1
    39    43    44    2
    40    48    47    2
    41    47    49   am
    42     9    10   ar
    43     9     7   ar
    44    12    10   ar
    45    12    14   ar
    46    10     8   ar
    47     7     6   ar
    48    55    56   ar
    49    55    57   ar
    50    14    13   ar
    51     8     6   ar
    52     8    11   ar
    53     6     5    1
    54    13    11   ar
    55    56    58   ar
    56    60    61    1
    57    57    59   ar
    58    62    61    1
    59    62    63    2
    60    61    64    1
    61    58    59   ar
    62    73    72    2
    63    93    95   ar
    64    93    92   ar
    65    64    65    1
    66    66    65   ar
    67    66    68   ar
    68    91    92    1
    69    91    88    1
    70   134   132    1
    71    95    97   ar
    72    65    67   ar
    73    92    94   ar
    74    68    69   ar
    75   138   137    2
    76   132   133    1
    77   132   129    1
    78    67    69   ar
    79    87    88    1
    80    70    71    1
    81    83    82    2
    82    97    96   ar
    83    72    71    1
    84    94    96   ar
    85    86    84    1
    86    88    89    1
    87    84    81    1
    88    84    85    1
    89   139   140    1
    90   139   136    1
    91    80    81    1
    92   141   140    1
    93   141   135    1
    94   137   136    1
    95   137   142   am
    96   148   142    1
    97   148   147    1
    98    71    74    1
    99    89    90    2
   100    74    75    1
   101   135   136    1
   102   135   130   am
   103    82    81    1
   104   129   130    1
   105   129   128    1
   106   142   143    1
   107   130   131    2
   108   147   146    1
   109    76    75   ar
   110    76    78   ar
   111    75    77   ar
   112   128   123   am
   113   146   143    1
   114   143   144    1
   115    78    79   ar
   116   119   118    1
   117   126   125    1
   118    77    79   ar
   119   124   123    2
   120   123   122    1
   121   120   118    1
   122   144   145    2
   123   111   110    1
   124   105   103    1
   125   118   117    1
   126   104   103    1
   127   117   114    1
   128   125   122    1
   129   125   127    1
   130   122   121    1
   131   121   115   am
   132   112   110    1
   133   103   102    1
   134   110   107    1
   135   114   115    1
   136   114   113    1
   137   115   116    2
   138   107   108    1
   139   107   106    1
   140   169   168   ar
   141   169   167   ar
   142   102    99    1
   143   108   109    2
   144   168   166   ar
   145   167   165   ar
   146    99   100    1
   147    99    98    1
   148   155   153    1
   149   166   163   ar
   150   100   101    2
   151   165   163   ar
   152   165   164   ar
   153   154   153    1
   154   163   161   ar
   155   153   150    1
   156   164   162   ar
   157   150   149    1
   158   150   151    1
   159   161   162   ar
   160   161   160    1
   161   157   160    1
   162   157   158    1
   163   157   156    1
   164   151   152    2
   165   158   159    2
