@<TRIPOS>MOLECULE
tmp/3f53A00.pdb
 100 100 0 0 0
SMALL
GASTEIGER

@<TRIPOS>ATOM
      1  N          0.4530   18.6590   -7.1810 N.3   128  PHE128     -0.1241
      2  CA        -0.6210   18.5060   -6.2040 C.3   128  PHE128      0.1605
      3  C         -0.9620   17.0310   -6.0810 C.2   128  PHE128      0.2264
      4  O         -1.8050   16.5360   -6.8280 O.2   128  PHE128     -0.2867
      5  CB        -1.8650   19.2910   -6.6450 C.3   128  PHE128      0.0534
      6  CG        -1.6140   20.7640   -6.8570 C.ar  128  PHE128     -0.0203
      7  CD1       -1.4820   21.6240   -5.7620 C.ar  128  PHE128     -0.0042
      8  CD2       -1.5200   21.2910   -8.1440 C.ar  128  PHE128     -0.0042
      9  CE1       -1.2420   22.9870   -5.9440 C.ar  128  PHE128     -0.0003
     10  CE2       -1.2890   22.6510   -8.3440 C.ar  128  PHE128     -0.0003
     11  CZ        -1.1530   23.5070   -7.2350 C.ar  128  PHE128     -0.0000
     12  N        -15.4300   26.4920   -9.6270 N.3   139  PHE139     -0.1241
     13  CA       -16.4280   26.6850   -8.5810 C.3   139  PHE139      0.1605
     14  C        -17.4760   27.7100   -8.9850 C.2   139  PHE139      0.2264
     15  O        -17.1450   28.8530   -9.2940 O.2   139  PHE139     -0.2867
     16  CB       -15.7560   27.0980   -7.2560 C.3   139  PHE139      0.0534
     17  CG       -16.7320   27.5110   -6.1800 C.ar  139  PHE139     -0.0203
     18  CD1      -17.3510   26.5560   -5.3710 C.ar  139  PHE139     -0.0042
     19  CD2      -17.0260   28.8590   -5.9720 C.ar  139  PHE139     -0.0042
     20  CE1      -18.2480   26.9490   -4.3760 C.ar  139  PHE139     -0.0003
     21  CE2      -17.9210   29.2570   -4.9790 C.ar  139  PHE139     -0.0003
     22  CZ       -18.5350   28.3070   -4.1880 C.ar  139  PHE139     -0.0000
     23  N         -7.1520   22.2180  -15.3610 N.3   148  ARG148     -0.1245
     24  CA        -6.9540   22.2560  -13.9190 C.3   148  ARG148      0.1563
     25  C         -6.5250   20.8910  -13.4040 C.2   148  ARG148      0.2260
     26  O         -6.8280   19.8500  -14.0170 O.2   148  ARG148     -0.2867
     27  CB        -8.2370   22.6780  -13.1870 C.3   148  ARG148      0.0307
     28  CG        -9.0450   23.7560  -13.8850 C.3   148  ARG148      0.0489
     29  CD       -10.2720   24.2070  -13.0800 C.3   148  ARG148      0.2205
     30  NE       -11.3280   24.7300  -13.9580 N.pl3 148  ARG148     -0.0865
     31  CZ       -11.5710   26.0220  -14.1840 C.cat 148  ARG148      0.5346
     32  NH1      -10.8240   26.9730  -13.6130 N.pl3 148  ARG148      0.1354
     33  NH2      -12.5580   26.3660  -14.9990 N.pl3 148  ARG148      0.1354
     34  N        -14.6480   23.3180   -5.1010 N.3   186  LYS186     -0.1231
     35  CA       -13.4680   24.1600   -4.8930 C.3   186  LYS186      0.1693
     36  C        -12.1520   23.4130   -5.0080 C.2   186  LYS186      0.2592
     37  O        -11.0880   24.0410   -5.0650 O.2   186  LYS186     -0.2718
     38  CB       -13.5100   24.7940   -3.5010 C.3   186  LYS186      0.0285
     39  CG       -14.6100   25.8010   -3.2930 C.3   186  LYS186      0.0035
     40  CD       -14.6670   26.2100   -1.8230 C.3   186  LYS186      0.0206
     41  CE       -15.7930   27.2060   -1.5850 C.3   186  LYS186      0.1093
     42  NZ       -15.6850   27.7970   -0.2360 N.3   186  LYS186     -0.1314
     43  N        -12.2240   22.0820   -5.0090 N.am  187  ARG187     -0.1966
     44  CA       -11.0530   21.2420   -4.8230 C.3   187  ARG187      0.1729
     45  C        -10.3110   20.9790   -6.1390 C.2   187  ARG187      0.2616
     46  O        -10.3490   19.8700   -6.6990 O.2   187  ARG187     -0.2715
     47  CB       -11.4190   19.9220   -4.1210 C.3   187  ARG187      0.0348
     48  CG       -12.2180   20.0610   -2.7980 C.3   187  ARG187      0.0492
     49  CD       -11.5150   20.9620   -1.7720 C.3   187  ARG187      0.2205
     50  NE       -10.1430   20.5220   -1.5110 N.pl3 187  ARG187     -0.0865
     51  CZ        -9.2850   21.1420   -0.7000 C.cat 187  ARG187      0.5346
     52  NH1       -9.6400   22.2480   -0.0550 N.pl3 187  ARG187      0.1354
     53  NH2       -8.0630   20.6540   -0.5390 N.pl3 187  ARG187      0.1354
     54  N         -9.6260   22.0160   -6.6050 N.am  188  HIS188     -0.1959
     55  CA        -8.8650   21.9590   -7.8490 C.3   188  HIS188      0.1787
     56  C         -7.8470   23.0910   -7.8670 C.2   188  HIS188      0.2620
     57  O         -7.8790   24.0090   -7.0220 O.2   188  HIS188     -0.2715
     58  CB        -9.7920   22.0900   -9.0630 C.3   188  HIS188      0.0785
     59  CG       -10.5530   23.3750   -9.0950 C.ar  188  HIS188      0.0821
     60  ND1      -11.8260   23.4970   -8.5850 N.ar  188  HIS188     -0.2267
     61  CD2      -10.2070   24.6070   -9.5450 C.ar  188  HIS188      0.1154
     62  CE1      -12.2350   24.7490   -8.7270 C.ar  188  HIS188      0.1986
     63  NE2      -11.2710   25.4400   -9.3070 N.ar  188  HIS188     -0.2212
     64  N         -6.9420   23.0280   -8.8340 N.am  189  TYR189     -0.1960
     65  CA        -5.9160   24.0420   -8.9710 C.3   189  TYR189      0.1771
     66  C         -5.7910   24.3160  -10.4540 C.2   189  TYR189      0.2620
     67  O         -5.3480   23.4550  -11.2120 O.2   189  TYR189     -0.2715
     68  CB        -4.5960   23.5610   -8.3520 C.3   189  TYR189      0.0574
     69  CG        -4.7730   23.0120   -6.9480 C.ar  189  TYR189     -0.0198
     70  CD1       -4.7370   23.8600   -5.8330 C.ar  189  TYR189     -0.0009
     71  CD2       -5.0210   21.6540   -6.7390 C.ar  189  TYR189     -0.0009
     72  CE1       -4.9230   23.3570   -4.5350 C.ar  189  TYR189      0.0417
     73  CE2       -5.2180   21.1400   -5.4470 C.ar  189  TYR189      0.0417
     74  CZ        -5.1660   22.0040   -4.3610 C.ar  189  TYR189      0.1957
     75  OH        -5.3500   21.4920   -3.1030 O.3   189  TYR189     -0.2866
     76  N         -6.2250   25.5020  -10.8720 N.am  190  THR190     -0.1937
     77  CA        -6.1810   25.8630  -12.2840 C.3   190  THR190      0.2028
     78  C         -4.7190   26.0590  -12.7000 C.2   190  THR190      0.2642
     79  O         -3.9800   26.8020  -12.0450 O.2   190  THR190     -0.2714
     80  CB        -7.0340   27.1140  -12.5860 C.3   190  THR190      0.1808
     81  OG1       -8.3870   26.8740  -12.1710 O.3   190  THR190     -0.2208
     82  CG2       -7.0280   27.4230  -14.0920 C.3   190  THR190      0.0379
     83  N         -4.2980   25.3590  -13.7550 N.am  191  GLU191     -0.1963
     84  CA        -2.9010   25.3910  -14.1970 C.3   191  GLU191      0.1733
     85  C         -2.8100   25.3680  -15.7190 C.2   191  GLU191      0.2616
     86  O         -2.3050   24.4050  -16.2960 O.2   191  GLU191     -0.2715
     87  CB        -2.1050   24.2050  -13.6230 C.3   191  GLU191      0.0429
     88  CG        -1.9710   24.1420  -12.0880 C.3   191  GLU191      0.1163
     89  CD        -1.0330   25.1980  -11.5020 C.2   191  GLU191      0.3649
     90  OE1       -0.2600   25.8300  -12.2540 O.co2 191  GLU191     -0.2457
     91  OE2       -1.0700   25.3880  -10.2700 O.co2 191  GLU191     -0.2457
     92  N         -3.2890   26.4230  -16.3660 N.am  192  GLU192     -0.1977
     93  CA        -3.3680   26.4370  -17.8300 C.3   192  GLU192      0.1602
     94  C         -2.0000   26.2600  -18.4810 C.2   192  GLU192      0.2287
     95  O         -1.8320   25.3910  -19.3380 O.2   192  GLU192     -0.2864
     96  CB        -4.0500   27.7090  -18.3570 C.3   192  GLU192      0.0415
     97  CG        -5.5400   27.8250  -17.9920 C.3   192  GLU192      0.1163
     98  CD        -6.4980   27.3960  -19.1050 C.2   192  GLU192      0.3649
     99  OE1       -6.3870   26.2620  -19.6050 O.co2 192  GLU192     -0.2457
    100  OE2       -7.3940   28.2000  -19.4640 O.co2 192  GLU192     -0.2457
@<TRIPOS>BOND
     1    99    98   ar
     2   100    98   ar
     3    95    94    2
     4    98    97    1
     5    94    93    1
     6    96    97    1
     7    96    93    1
     8    93    92    1
     9    92    85   am
    10    86    85    2
    11    85    84    1
    12    23    24    1
    13    33    31    1
    14    84    83    1
    15    84    87    1
    16    31    30    2
    17    31    32    1
    18    82    80    1
    19    26    25    2
    20    30    29    1
    21    24    25    1
    22    24    27    1
    23    28    27    1
    24    28    29    1
    25    83    78   am
    26    87    88    1
    27    78    77    1
    28    78    79    2
    29    80    77    1
    30    80    81    1
    31    77    76    1
    32    90    89   ar
    33    88    89    1
    34    89    91   ar
    35    67    66    2
    36    76    66   am
    37    66    65    1
    38    12    13    1
    39    61    63   ar
    40    61    59   ar
    41    63    62   ar
    42    15    14    2
    43    59    58    1
    44    59    60   ar
    45    58    55    1
    46    14    13    1
    47    65    64    1
    48    65    68    1
    49    64    56   am
    50    62    60   ar
    51    13    16    1
    52    68    69    1
    53    10     8   ar
    54    10    11   ar
    55     8     6   ar
    56    56    55    1
    57    56    57    2
    58    55    54    1
    59    16    17    1
    60    11     9   ar
    61     1     2    1
    62    69    71   ar
    63    69    70   ar
    64     6     5    1
    65     6     7   ar
    66     4     3    2
    67    71    73   ar
    68    46    45    2
    69     5     2    1
    70    54    45   am
    71     2     3    1
    72    17    19   ar
    73    17    18   ar
    74    45    44    1
    75    19    21   ar
    76     9     7   ar
    77    70    72   ar
    78    73    74   ar
    79    18    20   ar
    80    34    35    1
    81    37    36    2
    82    43    36   am
    83    43    44    1
    84    36    35    1
    85    21    22   ar
    86    35    38    1
    87    44    47    1
    88    72    74   ar
    89    20    22   ar
    90    74    75    1
    91    47    48    1
    92    38    39    1
    93    39    40    1
    94    48    49    1
    95    40    41    1
    96    49    50    1
    97    41    42    1
    98    50    51    2
    99    51    53    1
   100    51    52    1
