@<TRIPOS>MOLECULE
tmp/3f5fA01.pdb
 171 165 0 0 0
SMALL
GASTEIGER

@<TRIPOS>ATOM
      1  N         62.1460   59.5630   35.0770 N.3   382  ARG382     -0.1245
      2  CA        61.8860   60.7040   35.9460 C.3   382  ARG382      0.1563
      3  C         61.1020   60.3970   37.2170 C.2   382  ARG382      0.2260
      4  O         60.1460   59.6230   37.2140 O.2   382  ARG382     -0.2867
      5  CB        61.1570   61.7950   35.1430 C.3   382  ARG382      0.0307
      6  CG        59.8160   61.3460   34.5880 C.3   382  ARG382      0.0489
      7  CD        59.3240   62.2180   33.4320 C.3   382  ARG382      0.2205
      8  NE        58.9250   63.5630   33.8490 N.pl3 382  ARG382     -0.0865
      9  CZ        58.3760   64.4630   33.0370 C.cat 382  ARG382      0.5346
     10  NH1       58.1590   64.1590   31.7630 N.pl3 382  ARG382      0.1354
     11  NH2       58.0430   65.6660   33.4920 N.pl3 382  ARG382      0.1354
     12  N         58.7750   61.9750   40.1840 N.3   384  PRO384     -0.2102
     13  CA        57.8340   63.0840   40.3700 C.3   384  PRO384      0.1504
     14  C         58.3210   64.2290   41.2620 C.2   384  PRO384      0.2576
     15  O         58.9250   64.0080   42.3110 O.2   384  PRO384     -0.2718
     16  CB        56.6110   62.3890   40.9540 C.3   384  PRO384      0.0282
     17  CG        56.6550   61.0480   40.2920 C.3   384  PRO384      0.0208
     18  CD        58.1120   60.6850   40.4450 C.3   384  PRO384      0.0893
     19  N         58.0450   65.4530   40.8250 N.am  385  LYS385     -0.1966
     20  CA        58.4020   66.6610   41.5600 C.3   385  LYS385      0.1728
     21  C         59.8930   66.8200   41.8290 C.2   385  LYS385      0.2617
     22  O         60.3000   67.0430   42.9740 O.2   385  LYS385     -0.2715
     23  CB        57.6480   66.7220   42.8990 C.3   385  LYS385      0.0311
     24  CG        56.2180   66.1680   42.8940 C.3   385  LYS385      0.0038
     25  CD        55.3870   66.6030   41.6840 C.3   385  LYS385      0.0206
     26  CE        55.1730   68.1060   41.5930 C.3   385  LYS385      0.1093
     27  NZ        54.5170   68.4300   40.2920 N.3   385  LYS385     -0.1314
     28  N         60.7050   66.7150   40.7780 N.am  386  THR386     -0.1937
     29  CA        62.1600   66.8620   40.9060 C.3   386  THR386      0.2028
     30  C         62.7070   67.7610   39.8050 C.2   386  THR386      0.2642
     31  O         63.9000   67.7360   39.5230 O.2   386  THR386     -0.2714
     32  CB        62.8910   65.5070   40.8020 C.3   386  THR386      0.1808
     33  OG1       62.5350   64.8640   39.5720 O.3   386  THR386     -0.2208
     34  CG2       62.5300   64.6130   41.9610 C.3   386  THR386      0.0379
     35  N         61.8160   68.5410   39.1910 N.am  387  ALA387     -0.1963
     36  CA        62.1570   69.4670   38.1080 C.3   387  ALA387      0.1728
     37  C         62.2810   68.7200   36.7890 C.2   387  ALA387      0.2617
     38  O         62.8810   69.2200   35.8310 O.2   387  ALA387     -0.2715
     39  CB        63.4700   70.2180   38.4190 C.3   387  ALA387      0.0334
     40  N         61.6930   67.5280   36.7450 N.am  388  SER388     -0.1936
     41  CA        61.7410   66.6870   35.5570 C.3   388  SER388      0.2055
     42  C         61.0600   67.3150   34.3700 C.2   388  SER388      0.2644
     43  O         61.3820   67.0110   33.2270 O.2   388  SER388     -0.2714
     44  CB        61.0900   65.3360   35.8340 C.3   388  SER388      0.2130
     45  OG        59.6940   65.4780   36.0120 O.3   388  SER388     -0.2179
     46  N         60.1040   68.1870   34.6410 N.am  389  THR389     -0.1936
     47  CA        59.3720   68.8380   33.5700 C.3   389  THR389      0.2028
     48  C         60.3190   69.8150   32.8860 C.2   389  THR389      0.2642
     49  O         60.4320   69.8260   31.6640 O.2   389  THR389     -0.2714
     50  CB        58.1210   69.5600   34.1300 C.3   389  THR389      0.1808
     51  OG1       57.3720   68.6310   34.9270 O.3   389  THR389     -0.2208
     52  CG2       57.2310   70.0860   32.9960 C.3   389  THR389      0.0379
     53  N         61.0190   70.6130   33.6840 N.am  390  SER390     -0.1949
     54  CA        61.9740   71.5760   33.1520 C.3   390  SER390      0.1924
     55  C         62.9790   70.8720   32.2520 C.2   390  SER390      0.2314
     56  O         63.2200   71.2940   31.1200 O.2   390  SER390     -0.2863
     57  CB        62.7300   72.2620   34.2870 C.3   390  SER390      0.2116
     58  OG        61.8910   73.1270   35.0110 O.3   390  SER390     -0.2180
     59  N         65.8260   64.6830   44.4140 N.3   466  ARG466     -0.1245
     60  CA        66.0030   65.7960   45.3290 C.3   466  ARG466      0.1563
     61  C         65.8190   65.3060   46.7510 C.2   466  ARG466      0.2260
     62  O         65.4490   64.1480   46.9560 O.2   466  ARG466     -0.2867
     63  CB        65.0450   66.9640   44.9960 C.3   466  ARG466      0.0307
     64  CG        63.5800   66.8640   45.4130 C.3   466  ARG466      0.0489
     65  CD        63.0670   68.2700   45.7980 C.3   466  ARG466      0.2205
     66  NE        61.9410   68.7460   44.9900 N.pl3 466  ARG466     -0.0865
     67  CZ        61.3360   69.9240   45.1540 C.cat 466  ARG466      0.5346
     68  NH1       61.7370   70.7670   46.0930 N.pl3 466  ARG466      0.1354
     69  NH2       60.3130   70.2580   44.3860 N.pl3 466  ARG466      0.1354
     70  N         56.7430   68.9600   48.3880 N.3   474  SER474     -0.1217
     71  CA        56.3900   69.4350   47.0500 C.3   474  SER474      0.1889
     72  C         55.1810   68.6790   46.5000 C.2   474  SER474      0.2288
     73  O         54.2700   69.2790   45.9340 O.2   474  SER474     -0.2866
     74  CB        57.5720   69.2590   46.0930 C.3   474  SER474      0.2089
     75  OG        57.1820   69.4390   44.7400 O.3   474  SER474     -0.2183
     76  N         67.8740   67.9110   42.0060 N.3   556  THR556     -0.1203
     77  CA        66.9880   69.0050   41.6170 C.3   556  THR556      0.1994
     78  C         67.5750   70.4050   41.7900 C.2   556  THR556      0.2617
     79  O         67.5670   71.2120   40.8580 O.2   556  THR556     -0.2717
     80  CB        65.6450   68.9160   42.3830 C.3   556  THR556      0.1784
     81  OG1       64.9280   67.7510   41.9460 O.3   556  THR556     -0.2211
     82  CG2       64.7890   70.1590   42.1280 C.3   556  THR556      0.0376
     83  N         68.0960   70.6880   42.9750 N.am  557  GLU557     -0.1979
     84  CA        68.6690   71.9970   43.2550 C.3   557  GLU557      0.1602
     85  C         69.9870   72.3270   42.5550 C.2   557  GLU557      0.2287
     86  O         70.5820   73.3620   42.8210 O.2   557  GLU557     -0.2864
     87  CB        68.8450   72.1760   44.7660 C.3   557  GLU557      0.0415
     88  CG        67.5340   72.3020   45.5560 C.3   557  GLU557      0.1163
     89  CD        66.5520   73.3130   44.9510 C.2   557  GLU557      0.3649
     90  OE1       67.0010   74.3970   44.5070 O.co2 557  GLU557     -0.2457
     91  OE2       65.3300   73.0160   44.9340 O.co2 557  GLU557     -0.2457
     92  N         70.2800   71.5300   39.0030 N.3   559  LEU559     -0.1245
     93  CA        69.9450   71.2070   37.6230 C.3   559  LEU559      0.1561
     94  C         70.8760   71.8150   36.5790 C.2   559  LEU559      0.2260
     95  O         71.2140   71.1520   35.5930 O.2   559  LEU559     -0.2867
     96  CB        68.5010   71.6120   37.3120 C.3   559  LEU559      0.0270
     97  CG        67.9240   70.8440   36.1190 C.3   559  LEU559      0.0019
     98  CD1       67.8330   69.3820   36.5120 C.3   559  LEU559      0.0001
     99  CD2       66.5500   71.3790   35.7100 C.3   559  LEU559      0.0001
    100  N         68.7750   76.7190   28.9840 N.3   581  TYR581     -0.1241
    101  CA        68.3970   76.7830   30.3790 C.3   581  TYR581      0.1605
    102  C         68.6160   78.1960   30.8910 C.2   581  TYR581      0.2264
    103  O         67.7040   78.8300   31.4220 O.2   581  TYR581     -0.2867
    104  CB        69.2560   75.8300   31.2050 C.3   581  TYR581      0.0534
    105  CG        68.9590   75.8640   32.6860 C.ar  581  TYR581     -0.0201
    106  CD1       67.9500   75.0760   33.2310 C.ar  581  TYR581     -0.0009
    107  CD2       69.6880   76.6820   33.5450 C.ar  581  TYR581     -0.0009
    108  CE1       67.6750   75.0930   34.5950 C.ar  581  TYR581      0.0417
    109  CE2       69.4180   76.7090   34.9170 C.ar  581  TYR581      0.0417
    110  CZ        68.4100   75.9090   35.4310 C.ar  581  TYR581      0.1957
    111  OH        68.1420   75.9160   36.7870 O.3   581  TYR581     -0.2866
    112  N         62.6140   77.4860   31.9070 N.3   587  SER587     -0.1202
    113  CA        63.6290   76.9350   32.7980 C.3   587  SER587      0.2020
    114  C         63.1360   76.3720   34.1300 C.2   587  SER587      0.2619
    115  O         63.7030   75.4090   34.6460 O.2   587  SER587     -0.2717
    116  CB        64.6820   78.0010   33.0760 C.3   587  SER587      0.2103
    117  OG        65.4670   77.6470   34.1920 O.3   587  SER587     -0.2182
    118  N         62.1140   76.9900   34.7120 N.am  588  HIS588     -0.1961
    119  CA        61.5650   76.5070   35.9770 C.3   588  HIS588      0.1787
    120  C         60.0870   76.2120   35.7800 C.2   588  HIS588      0.2620
    121  O         59.2300   76.8350   36.4040 O.2   588  HIS588     -0.2715
    122  CB        61.7440   77.5490   37.0810 C.3   588  HIS588      0.0785
    123  CG        63.1690   77.7610   37.4880 C.ar  588  HIS588      0.0821
    124  ND1       63.6100   77.5670   38.7810 N.ar  588  HIS588     -0.2267
    125  CD2       64.2500   78.1680   36.7800 C.ar  588  HIS588      0.1154
    126  CE1       64.9000   77.8480   38.8530 C.ar  588  HIS588      0.1986
    127  NE2       65.3130   78.2150   37.6530 N.ar  588  HIS588     -0.2212
    128  N         59.8020   75.2670   34.8890 N.am  589  LEU589     -0.1963
    129  CA        58.4440   74.8810   34.5740 C.3   589  LEU589      0.1728
    130  C         57.7860   74.1800   35.7530 C.2   589  LEU589      0.2616
    131  O         58.4410   73.8340   36.7330 O.2   589  LEU589     -0.2715
    132  CB        58.4360   73.9430   33.3680 C.3   589  LEU589      0.0311
    133  CG        59.0230   74.4270   32.0390 C.3   589  LEU589      0.0022
    134  CD1       59.0560   73.2750   31.0470 C.3   589  LEU589      0.0001
    135  CD2       58.2010   75.5720   31.4870 C.3   589  LEU589      0.0001
    136  N         56.4780   73.9780   35.6320 N.am  590  ARG590     -0.1963
    137  CA        55.6560   73.3010   36.6330 C.3   590  ARG590      0.1729
    138  C         55.9720   73.6040   38.1040 C.2   590  ARG590      0.2616
    139  O         56.2050   72.6870   38.8980 O.2   590  ARG590     -0.2715
    140  CB        55.7000   71.7820   36.3960 C.3   590  ARG590      0.0348
    141  CG        54.5380   71.0340   37.0240 C.3   590  ARG590      0.0492
    142  CD        54.6720   69.5230   36.9090 C.3   590  ARG590      0.2205
    143  NE        54.6820   69.0220   35.5280 N.pl3 590  ARG590     -0.0865
    144  CZ        53.6150   68.9350   34.7310 C.cat 590  ARG590      0.5346
    145  NH1       52.4170   69.3190   35.1570 N.pl3 590  ARG590      0.1354
    146  NH2       53.7440   68.4460   33.5020 N.pl3 590  ARG590      0.1354
    147  N         55.9740   74.8860   38.4710 N.am  591  LYS591     -0.1963
    148  CA        56.2160   75.2670   39.8660 C.3   591  LYS591      0.1728
    149  C         54.8960   75.0540   40.6070 C.2   591  LYS591      0.2616
    150  O         53.8140   75.1790   40.0180 O.2   591  LYS591     -0.2715
    151  CB        56.6080   76.7420   39.9750 C.3   591  LYS591      0.0311
    152  CG        57.4850   77.2270   38.8430 C.3   591  LYS591      0.0038
    153  CD        57.8940   78.6910   38.9920 C.3   591  LYS591      0.0206
    154  CE        58.8350   78.8940   40.1670 C.3   591  LYS591      0.1093
    155  NZ        59.3450   80.2880   40.2130 N.3   591  LYS591     -0.1314
    156  N         54.9650   74.7130   41.8860 N.am  592  THR592     -0.1951
    157  CA        53.7290   74.5250   42.6340 C.3   592  THR592      0.1897
    158  C         53.2640   75.9200   43.0520 C.2   592  THR592      0.2313
    159  O         54.0310   76.6730   43.6490 O.2   592  THR592     -0.2863
    160  CB        53.9590   73.6240   43.8510 C.3   592  THR592      0.1794
    161  OG1       54.4690   72.3600   43.4040 O.3   592  THR592     -0.2208
    162  CG2       52.6540   73.3960   44.5970 C.3   592  THR592      0.0378
    163  N         52.9190   77.0970   48.4870 N.3   595  LYS595     -0.1245
    164  CA        53.6140   76.1600   49.3670 C.3   595  LYS595      0.1561
    165  C         53.8270   76.7900   50.7400 C.2   595  LYS595      0.2260
    166  O         53.7280   78.0080   50.8950 O.2   595  LYS595     -0.2867
    167  CB        54.9750   75.7570   48.7810 C.3   595  LYS595      0.0271
    168  CG        54.9240   75.0760   47.4180 C.3   595  LYS595      0.0035
    169  CD        55.9210   73.9240   47.3470 C.3   595  LYS595      0.0206
    170  CE        57.3440   74.3650   47.6610 C.3   595  LYS595      0.1093
    171  NZ        58.2530   73.1950   47.7930 N.3   595  LYS595     -0.1314
@<TRIPOS>BOND
     1   100   101    1
     2   101   102    1
     3   101   104    1
     4   102   103    2
     5   134   133    1
     6    56    55    2
     7   104   105    1
     8   135   133    1
     9    49    48    2
    10    10     9    1
    11   112   113    1
    12   133   132    1
    13    55    54    1
    14   105   106   ar
    15   105   107   ar
    16   113   116    1
    17   113   114    1
    18    48    47    1
    19    48    53   am
    20    52    50    1
    21     9    11    1
    22     9     8    2
    23   116   117    1
    24    54    53    1
    25    54    57    1
    26    43    42    2
    27   106   108   ar
    28   132   129    1
    29     7     8    1
    30     7     6    1
    31   146   144    1
    32   107   109   ar
    33    47    50    1
    34    47    46    1
    35    50    51    1
    36   114   115    2
    37   114   118   am
    38    57    58    1
    39    42    46   am
    40    42    41    1
    41   129   128    1
    42   129   130    1
    43     6     5    1
    44   108   110   ar
    45   118   119    1
    46   144   145    1
    47   144   143    2
    48   128   120   am
    49   109   110   ar
    50     1     2    1
    51     5     2    1
    52   110   111    1
    53   143   142    1
    54    41    44    1
    55    41    40    1
    56    95    94    2
    57   136   130   am
    58   136   137    1
    59    99    97    1
    60   130   131    2
    61   120   119    1
    62   120   121    2
    63    38    37    2
    64    44    45    1
    65     2     3    1
    66   119   122    1
    67    97    98    1
    68    97    96    1
    69   140   137    1
    70   140   141    1
    71    94    93    1
    72   137   138    1
    73    40    37   am
    74   125   123   ar
    75   125   127   ar
    76    37    36    1
    77   142   141    1
    78   122   123    1
    79     4     3    2
    80    96    93    1
    81   123   124   ar
    82    93    92    1
    83   127   126   ar
    84   138   147   am
    85   138   139    2
    86    36    39    1
    87    36    35    1
    88   147   148    1
    89   124   126   ar
    90   152   153    1
    91   152   151    1
    92   153   154    1
    93    35    30   am
    94    31    30    2
    95    33    32    1
    96    30    29    1
    97   148   151    1
    98   148   149    1
    99   150   149    2
   100   154   155    1
   101    12    13    1
   102    12    18    1
   103    27    26    1
   104    17    18    1
   105    17    16    1
   106    13    16    1
   107    13    14    1
   108   149   156   am
   109    28    29    1
   110    28    21   am
   111    32    29    1
   112    32    34    1
   113    19    14   am
   114    19    20    1
   115    79    78    2
   116    14    15    2
   117    20    21    1
   118    20    23    1
   119    26    25    1
   120    77    78    1
   121    77    76    1
   122    77    80    1
   123    25    24    1
   124    78    83   am
   125    21    22    2
   126   156   157    1
   127    81    80    1
   128    82    80    1
   129    85    86    2
   130    85    84    1
   131   157   158    1
   132   157   160    1
   133    24    23    1
   134    83    84    1
   135   158   159    2
   136    84    87    1
   137   161   160    1
   138   160   162    1
   139    69    67    1
   140    59    60    1
   141    90    89   ar
   142    75    74    1
   143    87    88    1
   144    91    89   ar
   145    89    88    1
   146    66    67    2
   147    66    65    1
   148    63    60    1
   149    63    64    1
   150    67    68    1
   151    60    61    1
   152    64    65    1
   153    73    72    2
   154    74    71    1
   155    72    71    1
   156    61    62    2
   157    71    70    1
   158   169   168    1
   159   169   170    1
   160   168   167    1
   161   170   171    1
   162   163   164    1
   163   167   164    1
   164   164   165    1
   165   165   166    2
