@<TRIPOS>MOLECULE
tmp/3f5fA00.pdb
 179 175 0 0 0
SMALL
GASTEIGER

@<TRIPOS>ATOM
      1  N         84.5330   68.0150   -6.8690 N.3    12  ASN12      -0.1240
      2  CA        83.7870   69.0980   -6.2370 C.3    12  ASN12       0.1653
      3  C         83.5180   70.2500   -7.2020 C.2    12  ASN12       0.2266
      4  O         84.3300   70.5390   -8.0790 O.2    12  ASN12      -0.2867
      5  CB        84.5300   69.6020   -4.9990 C.3    12  ASN12       0.1155
      6  CG        83.5880   70.1640   -3.9470 C.2    12  ASN12       0.2627
      7  OD1       82.5790   69.5420   -3.6180 O.2    12  ASN12      -0.2716
      8  ND2       83.9150   71.3350   -3.4090 N.am   12  ASN12      -0.0877
      9  N         83.6110   73.4570   -6.8660 N.3    14  ASP14      -0.1225
     10  CA        84.4110   74.6740   -6.7830 C.3    14  ASP14       0.1805
     11  C         85.6610   74.5300   -7.6560 C.2    14  ASP14       0.2597
     12  O         86.3100   75.5270   -8.0010 O.2    14  ASP14      -0.2718
     13  CB        84.7980   74.9780   -5.3250 C.3    14  ASP14       0.1424
     14  CG        85.4570   73.7930   -4.6240 C.2    14  ASP14       0.3668
     15  OD1       85.7460   72.7740   -5.2950 O.co2  14  ASP14      -0.2456
     16  OD2       85.6920   73.8860   -3.3940 O.co2  14  ASP14      -0.2456
     17  N         85.9740   73.2870   -8.0220 N.am   15  LYS15      -0.1979
     18  CA        87.1360   72.9720   -8.8530 C.3    15  LYS15       0.1596
     19  C         86.7760   73.1670  -10.3220 C.2    15  LYS15       0.2287
     20  O         85.6080   73.3470  -10.6530 O.2    15  LYS15      -0.2864
     21  CB        87.5790   71.5270   -8.6070 C.3    15  LYS15       0.0298
     22  CG        87.8320   71.2000   -7.1350 C.3    15  LYS15       0.0038
     23  CD        89.1300   71.7860   -6.6360 C.3    15  LYS15       0.0206
     24  CE        88.9700   72.4370   -5.2810 C.3    15  LYS15       0.1093
     25  NZ        88.4630   71.5280   -4.2240 N.3    15  LYS15      -0.1314
     26  N         82.0340   64.3280   -0.6650 N.3    44  GLU44      -0.1245
     27  CA        82.8010   63.5040    0.2670 C.3    44  GLU44       0.1567
     28  C         81.9220   62.5680    1.1170 C.2    44  GLU44       0.2260
     29  O         82.4240   61.6170    1.7190 O.2    44  GLU44      -0.2867
     30  CB        83.6850   64.3870    1.1710 C.3    44  GLU44       0.0388
     31  CG        82.9900   64.9470    2.3950 C.3    44  GLU44       0.1160
     32  CD        82.2310   66.2300    2.1300 C.2    44  GLU44       0.3649
     33  OE1       81.6500   66.3890    1.0330 O.co2  44  GLU44      -0.2457
     34  OE2       82.2090   67.0790    3.0430 O.co2  44  GLU44      -0.2457
     35  N         89.2010   64.3890   -4.4190 N.3    62  TRP62      -0.1227
     36  CA        89.0110   65.0680   -3.1420 C.3    62  TRP62       0.1737
     37  C         90.3420   65.2790   -2.4550 C.2    62  TRP62       0.2595
     38  O         91.3320   64.6720   -2.8280 O.2    62  TRP62      -0.2718
     39  CB        88.0820   64.2600   -2.2360 C.3    62  TRP62       0.0564
     40  CG        87.5620   65.0650   -1.0870 C.ar   62  TRP62       0.0003
     41  CD1       88.1020   65.1570    0.1670 C.ar   62  TRP62       0.0946
     42  CD2       86.4490   65.9680   -1.1120 C.ar   62  TRP62       0.0152
     43  NE1       87.3980   66.0650    0.9190 N.ar   62  TRP62      -0.2442
     44  CE2       86.3780   66.5780    0.1620 C.ar   62  TRP62       0.0810
     45  CE3       85.5050   66.3220   -2.0890 C.ar   62  TRP62       0.0012
     46  CZ2       85.3970   67.5250    0.4890 C.ar   62  TRP62       0.0191
     47  CZ3       84.5290   67.2630   -1.7680 C.ar   62  TRP62       0.0001
     48  CH2       84.4830   67.8540   -0.4880 C.ar   62  TRP62       0.0015
     49  N         90.3780   66.1640   -1.4690 N.am   63  ALA63      -0.1980
     50  CA        91.6100   66.3860   -0.7260 C.3    63  ALA63       0.1597
     51  C         91.9870   65.0310   -0.1310 C.2    63  ALA63       0.2287
     52  O         91.1210   64.2090    0.1480 O.2    63  ALA63      -0.2864
     53  CB        91.3850   67.4070    0.3900 C.3    63  ALA63       0.0319
     54  N         92.8010   64.1430    2.8040 N.3    65  ASP65      -0.1225
     55  CA        92.3540   63.8630    4.1680 C.3    65  ASP65       0.1805
     56  C         91.2570   62.8090    4.3740 C.2    65  ASP65       0.2597
     57  O         91.2550   62.1130    5.3900 O.2    65  ASP65      -0.2718
     58  CB        91.9650   65.1670    4.8790 C.3    65  ASP65       0.1424
     59  CG        90.6370   65.7210    4.4140 C.2    65  ASP65       0.3668
     60  OD1       90.5040   66.0460    3.2170 O.co2  65  ASP65      -0.2456
     61  OD2       89.7230   65.8360    5.2600 O.co2  65  ASP65      -0.2456
     62  N         90.3280   62.6710    3.4350 N.am   66  ARG66      -0.1979
     63  CA        89.2720   61.6760    3.6140 C.3    66  ARG66       0.1597
     64  C         89.5510   60.3170    2.9840 C.2    66  ARG66       0.2287
     65  O         88.9180   59.3250    3.3430 O.2    66  ARG66      -0.2864
     66  CB        87.9260   62.2260    3.1260 C.3    66  ARG66       0.0334
     67  CG        87.2380   63.0710    4.1960 C.3    66  ARG66       0.0492
     68  CD        85.9350   63.6610    3.7210 C.3    66  ARG66       0.2205
     69  NE        85.4820   64.6870    4.6550 N.pl3  66  ARG66      -0.0865
     70  CZ        84.9340   64.4510    5.8460 C.cat  66  ARG66       0.5346
     71  NH1       84.7460   63.2090    6.2710 N.pl3  66  ARG66       0.1354
     72  NH2       84.6010   65.4710    6.6280 N.pl3  66  ARG66       0.1354
     73  N         96.7220   72.4670   -2.0200 N.3   111  GLU111     -0.1245
     74  CA        95.8320   73.5820   -1.7330 C.3   111  GLU111      0.1567
     75  C         96.0350   74.1470   -0.3410 C.2   111  GLU111      0.2260
     76  O         96.1460   73.4090    0.6360 O.2   111  GLU111     -0.2867
     77  CB        94.3810   73.1440   -1.8320 C.3   111  GLU111      0.0388
     78  CG        94.0880   72.1110   -2.8820 C.3   111  GLU111      0.1160
     79  CD        92.6100   71.7870   -2.9210 C.2   111  GLU111      0.3649
     80  OE1       92.0480   71.5440   -1.8310 O.co2 111  GLU111     -0.2457
     81  OE2       92.0120   71.7780   -4.0240 O.co2 111  GLU111     -0.2457
     82  N         83.6430   82.1480    4.4180 N.3   150  ASN150     -0.1240
     83  CA        82.8000   81.0230    4.8180 C.3   150  ASN150      0.1653
     84  C         82.9830   80.6060    6.2830 C.2   150  ASN150      0.2266
     85  O         84.0230   80.0600    6.6490 O.2   150  ASN150     -0.2867
     86  CB        83.0940   79.8290    3.9000 C.3   150  ASN150      0.1155
     87  CG        82.1030   78.6970    4.0790 C.2   150  ASN150      0.2627
     88  OD1       81.2570   78.7400    4.9650 O.2   150  ASN150     -0.2716
     89  ND2       82.2050   77.6750    3.2350 N.am  150  ASN150     -0.0877
     90  N         82.1570   76.1240    7.0200 N.3   153  GLU153     -0.1231
     91  CA        83.0790   75.0010    6.9240 C.3   153  GLU153      0.1684
     92  C         84.2510   75.2600    7.8520 C.2   153  GLU153      0.2434
     93  O         84.9120   76.2810    7.7460 O.2   153  GLU153     -0.2733
     94  CB        83.5760   74.8500    5.4910 C.3   153  GLU153      0.0402
     95  CG        82.5060   74.4300    4.4980 C.3   153  GLU153      0.1161
     96  CD        81.9210   73.0730    4.8270 C.2   153  GLU153      0.3649
     97  OE1       82.6860   72.1720    5.2430 O.co2 153  GLU153     -0.2457
     98  OE2       80.6980   72.9050    4.6560 O.co2 153  GLU153     -0.2457
     99  N         84.5220   74.3360    8.7820 N.am  154  PRO154     -0.2718
    100  CA        85.6390   74.5290    9.7100 C.3   154  PRO154      0.1535
    101  C         86.9860   74.6600    8.9990 C.2   154  PRO154      0.2599
    102  O         87.9920   75.0290    9.6040 O.2   154  PRO154     -0.2715
    103  CB        85.5440   73.3020   10.6140 C.3   154  PRO154      0.0310
    104  CG        84.9870   72.2820    9.7120 C.3   154  PRO154      0.0237
    105  CD        83.8970   73.0230    8.9880 C.3   154  PRO154      0.0939
    106  N         86.9900   74.3660    7.7050 N.am  155  TYR155     -0.1960
    107  CA        88.1880   74.4660    6.8870 C.3   155  TYR155      0.1771
    108  C         88.7230   75.9010    6.8860 C.2   155  TYR155      0.2619
    109  O         89.9290   76.1220    7.0020 O.2   155  TYR155     -0.2715
    110  CB        87.8620   74.0580    5.4560 C.3   155  TYR155      0.0574
    111  CG        89.0400   74.0800    4.5180 C.ar  155  TYR155     -0.0198
    112  CD1       90.1270   73.2220    4.7110 C.ar  155  TYR155     -0.0009
    113  CD2       89.0700   74.9480    3.4260 C.ar  155  TYR155     -0.0009
    114  CE1       91.2120   73.2230    3.8420 C.ar  155  TYR155      0.0417
    115  CE2       90.1540   74.9570    2.5510 C.ar  155  TYR155      0.0417
    116  CZ        91.2220   74.0900    2.7650 C.ar  155  TYR155      0.1957
    117  OH        92.2960   74.0930    1.9010 O.3   155  TYR155     -0.2866
    118  N         87.8160   76.8700    6.7620 N.am  156  PHE156     -0.1974
    119  CA        88.1880   78.2770    6.7170 C.3   156  PHE156      0.1639
    120  C         88.4440   78.8900    8.0800 C.2   156  PHE156      0.2290
    121  O         89.1700   79.8710    8.1970 O.2   156  PHE156     -0.2864
    122  CB        87.1040   79.0920    6.0160 C.3   156  PHE156      0.0560
    123  CG        86.8260   78.6540    4.6060 C.ar  156  PHE156     -0.0200
    124  CD1       85.9730   77.5830    4.3500 C.ar  156  PHE156     -0.0042
    125  CD2       87.4190   79.3140    3.5310 C.ar  156  PHE156     -0.0042
    126  CE1       85.7140   77.1770    3.0450 C.ar  156  PHE156     -0.0003
    127  CE2       87.1680   78.9160    2.2230 C.ar  156  PHE156     -0.0003
    128  CZ        86.3140   77.8470    1.9780 C.ar  156  PHE156     -0.0000
    129  N         91.2130   77.9610   -6.2140 N.3   230  TRP230     -0.1241
    130  CA        90.0450   77.8010   -7.0780 C.3   230  TRP230      0.1605
    131  C         89.1900   79.0660   -7.1930 C.2   230  TRP230      0.2264
    132  O         88.5420   79.2940   -8.2170 O.2   230  TRP230     -0.2867
    133  CB        89.1990   76.6240   -6.5760 C.3   230  TRP230      0.0550
    134  CG        88.8720   76.6960   -5.1140 C.ar  230  TRP230      0.0003
    135  CD1       87.8490   77.3950   -4.5320 C.ar  230  TRP230      0.0946
    136  CD2       89.6160   76.1060   -4.0420 C.ar  230  TRP230      0.0152
    137  NE1       87.9150   77.2780   -3.1650 N.ar  230  TRP230     -0.2442
    138  CE2       88.9910   76.4930   -2.8380 C.ar  230  TRP230      0.0810
    139  CE3       90.7510   75.2880   -3.9840 C.ar  230  TRP230      0.0012
    140  CZ2       89.4640   76.0920   -1.5880 C.ar  230  TRP230      0.0191
    141  CZ3       91.2220   74.8860   -2.7360 C.ar  230  TRP230      0.0001
    142  CH2       90.5770   75.2890   -1.5560 C.ar  230  TRP230      0.0015
    143  N         95.7420   70.7210    2.2780 N.3   260  GLY260     -0.1225
    144  CA        95.2330   69.5340    1.6310 C.3   260  GLY260      0.1811
    145  C         95.7830   69.3350    0.2350 C.2   260  GLY260      0.2280
    146  O         96.1440   70.2960   -0.4510 O.2   260  GLY260     -0.2866
    147  N         97.1690   67.9910    6.2580 N.3   330  MET330     -0.1245
    148  CA        96.1460   67.2140    6.9460 C.3   330  MET330      0.1570
    149  C         96.4940   65.7390    7.0040 C.2   330  MET330      0.2261
    150  O         97.0730   65.1890    6.0630 O.2   330  MET330     -0.2867
    151  CB        94.7960   67.3300    6.2410 C.3   330  MET330      0.0387
    152  CG        94.2260   68.7140    6.1220 C.3   330  MET330      0.0595
    153  SD        92.6510   68.6000    5.2750 S.3   330  MET330     -0.1393
    154  CE        93.1530   68.1770    3.6850 C.3   330  MET330      0.0692
    155  N         86.5170   66.6530   11.7330 N.3   340  TRP340     -0.1241
    156  CA        85.8840   67.7300   10.9930 C.3   340  TRP340      0.1605
    157  C         84.4610   68.0080   11.4350 C.2   340  TRP340      0.2264
    158  O         84.0520   69.1630   11.5420 O.2   340  TRP340     -0.2867
    159  CB        85.9090   67.4220    9.5060 C.3   340  TRP340      0.0550
    160  CG        87.2390   67.6950    8.8600 C.ar  340  TRP340      0.0003
    161  CD1       87.9340   66.8550    8.0500 C.ar  340  TRP340      0.0946
    162  CD2       88.0000   68.9130    8.9200 C.ar  340  TRP340      0.0152
    163  NE1       89.0780   67.4650    7.5950 N.ar  340  TRP340     -0.2442
    164  CE2       89.1450   68.7290    8.1130 C.ar  340  TRP340      0.0810
    165  CE3       87.8230   70.1410    9.5720 C.ar  340  TRP340      0.0012
    166  CZ2       90.1140   69.7280    7.9370 C.ar  340  TRP340      0.0191
    167  CZ3       88.7820   71.1370    9.3970 C.ar  340  TRP340      0.0001
    168  CH2       89.9140   70.9220    8.5840 C.ar  340  TRP340      0.0015
    169  N         83.2240   71.3990   12.9670 N.3   344  ARG344     -0.1245
    170  CA        82.2160   72.0670   12.1430 C.3   344  ARG344      0.1563
    171  C         81.0420   72.4960   13.0060 C.2   344  ARG344      0.2260
    172  O         80.5490   73.6210   12.8900 O.2   344  ARG344     -0.2867
    173  CB        81.7350   71.1230   11.0320 C.3   344  ARG344      0.0307
    174  CG        80.6810   71.6970   10.0830 C.3   344  ARG344      0.0489
    175  CD        80.1920   70.6400    9.0660 C.3   344  ARG344      0.2205
    176  NE        81.1350   70.4230    7.9700 N.pl3 344  ARG344     -0.0865
    177  CZ        81.5680   69.2310    7.5640 C.cat 344  ARG344      0.5346
    178  NH1       81.1610   68.1070    8.1540 N.pl3 344  ARG344      0.1354
    179  NH2       82.4130   69.1600    6.5530 N.pl3 344  ARG344      0.1354
@<TRIPOS>BOND
     1    20    19    2
     2    19    18    1
     3    18    21    1
     4    18    17    1
     5    21    22    1
     6   132   131    2
     7     4     3    2
     8    17    11   am
     9    12    11    2
    10    11    10    1
    11     3     2    1
    12   131   130    1
    13    22    23    1
    14   130   133    1
    15   130   129    1
    16     1     2    1
    17     9    10    1
    18    10    13    1
    19    23    24    1
    20   133   134    1
    21     2     5    1
    22    13    14    1
    23    15    14   ar
    24    24    25    1
    25   134   135   ar
    26   134   136   ar
    27     5     6    1
    28    14    16   ar
    29   135   137   ar
    30    35    36    1
    31   136   139   ar
    32   136   138   ar
    33    81    79   ar
    34   139   141   ar
    35     6     7    2
    36     6     8   am
    37   137   138   ar
    38    36    37    1
    39    36    39    1
    40    79    78    1
    41    79    80   ar
    42    78    77    1
    43   138   140   ar
    44    38    37    2
    45   141   142   ar
    46    37    49   am
    47    39    40    1
    48    45    47   ar
    49    45    42   ar
    50    73    74    1
    51    77    74    1
    52    47    48   ar
    53    74    75    1
    54   140   142   ar
    55    49    50    1
    56    42    40   ar
    57    42    44   ar
    58    40    41   ar
    59    50    51    1
    60    50    53    1
    61    26    27    1
    62    48    46   ar
    63   146   145    2
    64    75    76    2
    65    51    52    2
    66    44    46   ar
    67    44    43   ar
    68    41    43   ar
    69   145   144    1
    70    27    28    1
    71    27    30    1
    72    33    32   ar
    73    28    29    2
    74    30    31    1
    75   144   143    1
    76   117   116    1
    77   128   127   ar
    78   128   126   ar
    79    32    31    1
    80    32    34   ar
    81   127   125   ar
    82   115   116   ar
    83   115   113   ar
    84   116   114   ar
    85    54    55    1
    86    64    65    2
    87    64    63    1
    88   126   124   ar
    89    66    63    1
    90    66    67    1
    91    60    59   ar
    92    89    87   am
    93   113   111   ar
    94    62    63    1
    95    62    56   am
    96   125   123   ar
    97   154   153    1
    98    68    67    1
    99    68    69    1
   100   114   112   ar
   101    86    87    1
   102    86    83    1
   103    87    88    2
   104    55    56    1
   105    55    58    1
   106   124   123   ar
   107    56    57    2
   108    59    58    1
   109    59    61   ar
   110    82    83    1
   111    95    96    1
   112    95    94    1
   113   111   112   ar
   114   111   110    1
   115   123   122    1
   116    69    70    2
   117    98    96   ar
   118    83    84    1
   119    96    97   ar
   120   153   152    1
   121   110   107    1
   122    94    91    1
   123    70    71    1
   124    70    72    1
   125   122   119    1
   126   150   149    2
   127   152   151    1
   128   151   148    1
   129   147   148    1
   130    84    85    2
   131   179   177    1
   132   119   118    1
   133   119   120    1
   134   118   108   am
   135   108   107    1
   136   108   109    2
   137   107   106    1
   138    91    90    1
   139    91    92    1
   140   148   149    1
   141   177   176    2
   142   177   178    1
   143   163   161   ar
   144   163   164   ar
   145   106   101   am
   146    93    92    2
   147    92    99   am
   148   166   164   ar
   149   166   168   ar
   150   176   175    1
   151   161   160   ar
   152   120   121    2
   153   164   162   ar
   154   168   167   ar
   155    99   105    1
   156    99   100    1
   157   160   162   ar
   158   160   159    1
   159   162   165   ar
   160   105   104    1
   161   101   102    2
   162   101   100    1
   163   175   174    1
   164   167   165   ar
   165   159   156    1
   166   100   103    1
   167   104   103    1
   168   174   173    1
   169   156   157    1
   170   156   155    1
   171   173   170    1
   172   157   158    2
   173   170   169    1
   174   170   171    1
   175   172   171    2
