@<TRIPOS>MOLECULE
tmp/3f5kB00.pdb
 283 277 0 0 0
SMALL
GASTEIGER

@<TRIPOS>ATOM
      1  N         -3.1370   -2.6200   -1.7490 N.3    25  GLN25      -0.1245
      2  CA        -2.3420   -1.3860   -1.9120 C.3    25  GLN25       0.1566
      3  C         -2.2330   -0.5050   -0.6630 C.2    25  GLN25       0.2260
      4  O         -1.2490    0.2320   -0.5220 O.2    25  GLN25      -0.2867
      5  CB        -2.8480   -0.5750   -3.1080 C.3    25  GLN25       0.0367
      6  CG        -2.6690   -1.3030   -4.4010 C.3    25  GLN25       0.0905
      7  CD        -3.1340   -0.4780   -5.6060 C.2    25  GLN25       0.2608
      8  OE1       -4.2940   -0.5680   -6.0210 O.2    25  GLN25      -0.2717
      9  NE2       -2.2070    0.2830   -6.1950 N.am   25  GLN25      -0.0878
     10  N         -9.9020   -6.8960   -6.2880 N.3   126  HIS126     -0.1226
     11  CA        -8.9630   -5.9550   -6.8850 C.3   126  HIS126      0.1752
     12  C         -7.6100   -6.6690   -7.0210 C.2   126  HIS126      0.2596
     13  O         -6.6730   -6.4000   -6.2630 O.2   126  HIS126     -0.2718
     14  CB        -8.8610   -4.7110   -5.9740 C.3   126  HIS126      0.0759
     15  CG        -8.4810   -3.4320   -6.6740 C.ar  126  HIS126      0.0818
     16  ND1       -9.1450   -2.2520   -6.7740 N.ar  126  HIS126     -0.2268
     17  CD2       -7.2660   -3.2410   -7.3120 C.ar  126  HIS126      0.1154
     18  CE1       -8.3380   -1.3850   -7.4700 C.ar  126  HIS126      0.1986
     19  NE2       -7.2110   -2.0000   -7.7820 N.ar  126  HIS126     -0.2212
     20  N         -7.5450   -7.6170   -7.9600 N.am  127  TYR127     -0.1976
     21  CA        -6.3190   -8.3680   -8.3300 C.3   127  TYR127      0.1639
     22  C         -5.8650   -9.4520   -7.3380 C.2   127  TYR127      0.2290
     23  O         -4.9670  -10.2410   -7.6580 O.2   127  TYR127     -0.2864
     24  CB        -5.1060   -7.4460   -8.5550 C.3   127  TYR127      0.0560
     25  CG        -5.2340   -6.3460   -9.5990 C.ar  127  TYR127     -0.0198
     26  CD1       -4.3160   -5.2950   -9.6070 C.ar  127  TYR127     -0.0009
     27  CD2       -6.2540   -6.3590  -10.5960 C.ar  127  TYR127     -0.0009
     28  CE1       -4.3870   -4.2670  -10.5360 C.ar  127  TYR127      0.0417
     29  CE2       -6.3320   -5.3330  -11.5740 C.ar  127  TYR127      0.0417
     30  CZ        -5.3830   -4.2890  -11.5270 C.ar  127  TYR127      0.1957
     31  OH        -5.3970   -3.2690  -12.4300 O.3   127  TYR127     -0.2866
     32  N        -12.3320   -5.1130  -10.4290 N.3   171  ASN171     -0.1225
     33  CA       -11.5710   -3.9670  -10.8930 C.3   171  ASN171      0.1785
     34  C        -10.6910   -4.3120  -12.0950 C.2   171  ASN171      0.2597
     35  O         -9.7730   -5.1410  -11.9880 O.2   171  ASN171     -0.2718
     36  CB       -10.6700   -3.4250   -9.7710 C.3   171  ASN171      0.1169
     37  CG        -9.8720   -2.2020  -10.2210 C.2   171  ASN171      0.2627
     38  OD1      -10.3900   -1.1100  -10.2680 O.2   171  ASN171     -0.2716
     39  ND2       -8.6030   -2.4090  -10.5720 N.am  171  ASN171     -0.0877
     40  N        -10.9770   -3.6850  -13.2330 N.am  172  GLN172     -0.1979
     41  CA       -10.1500   -3.8090  -14.4510 C.3   172  GLN172      0.1601
     42  C         -9.8200   -5.2580  -14.8500 C.2   172  GLN172      0.2287
     43  O         -8.6510   -5.6410  -14.8830 O.2   172  GLN172     -0.2864
     44  CB        -8.8440   -3.0020  -14.3170 C.3   172  GLN172      0.0394
     45  CG        -9.0780   -1.5740  -13.7950 C.3   172  GLN172      0.0908
     46  CD        -7.8710   -0.6400  -13.9060 C.2   172  GLN172      0.2608
     47  OE1       -8.0180    0.5650  -14.1110 O.2   172  GLN172     -0.2717
     48  NE2       -6.6720   -1.1910  -13.7500 N.am  172  GLN172     -0.0878
     49  N         -9.7660   -6.2390  -17.6970 N.3   174  ARG174     -0.1231
     50  CA        -8.8970   -6.1100  -18.9080 C.3   174  ARG174      0.1694
     51  C         -7.3970   -6.1920  -18.5490 C.2   174  ARG174      0.2591
     52  O         -6.6160   -6.8150  -19.2570 O.2   174  ARG174     -0.2718
     53  CB        -9.1330   -4.8190  -19.6770 C.3   174  ARG174      0.0321
     54  CG        -8.5730   -4.8580  -21.1340 C.3   174  ARG174      0.0489
     55  CD        -8.5730   -3.4550  -21.7070 C.3   174  ARG174      0.2205
     56  NE        -7.4000   -2.6760  -21.2730 N.pl3 174  ARG174     -0.0865
     57  CZ        -6.2380   -2.6690  -21.9190 C.cat 174  ARG174      0.5346
     58  NH1       -6.1060   -3.4190  -23.0030 N.pl3 174  ARG174      0.1354
     59  NH2       -5.2070   -1.9210  -21.4960 N.pl3 174  ARG174      0.1354
     60  N         -7.0270   -5.5450  -17.4450 N.am  175  ILE175     -0.1980
     61  CA        -5.6300   -5.4870  -17.0110 C.3   175  ILE175      0.1595
     62  C         -5.1950   -6.8190  -16.4150 C.2   175  ILE175      0.2287
     63  O         -4.0430   -7.2290  -16.6210 O.2   175  ILE175     -0.2864
     64  CB        -5.3960   -4.3030  -16.0310 C.3   175  ILE175      0.0276
     65  CG1       -5.7320   -2.9800  -16.7420 C.3   175  ILE175      0.0022
     66  CG2       -3.9600   -4.3340  -15.4100 C.3   175  ILE175      0.0022
     67  CD1       -4.8350   -2.6650  -17.9530 C.3   175  ILE175      0.0001
     68  N         -4.7130   -8.8380  -19.6680 N.3   178  LEU178     -0.1231
     69  CA        -3.5310   -8.3240  -20.3630 C.3   178  LEU178      0.1693
     70  C         -2.2200   -8.6610  -19.6280 C.2   178  LEU178      0.2591
     71  O         -1.3240   -9.3410  -20.1800 O.2   178  LEU178     -0.2718
     72  CB        -3.6260   -6.7920  -20.5910 C.3   178  LEU178      0.0284
     73  CG        -2.4450   -6.1020  -21.2930 C.3   178  LEU178      0.0019
     74  CD1       -2.3960   -6.4720  -22.7830 C.3   178  LEU178      0.0001
     75  CD2       -2.4800   -4.5750  -21.0820 C.3   178  LEU178      0.0001
     76  N         -2.1170   -8.2000  -18.3870 N.am  179  LEU179     -0.1980
     77  CA        -0.8380   -8.2810  -17.6770 C.3   179  LEU179      0.1596
     78  C         -0.5930   -9.6810  -17.1030 C.2   179  LEU179      0.2287
     79  O          0.5470  -10.1470  -17.0850 O.2   179  LEU179     -0.2864
     80  CB        -0.6990   -7.1650  -16.6290 C.3   179  LEU179      0.0297
     81  CG        -0.7730   -5.7280  -17.2050 C.3   179  LEU179      0.0022
     82  CD1       -0.5330   -4.6830  -16.1270 C.3   179  LEU179      0.0001
     83  CD2        0.1770   -5.4840  -18.3880 C.3   179  LEU179      0.0001
     84  N          0.8740  -10.3910  -21.5650 N.3   183  GLN183     -0.1245
     85  CA         2.2650  -10.0040  -21.3650 C.3   183  GLN183      0.1566
     86  C          2.9670  -10.8360  -20.2590 C.2   183  GLN183      0.2260
     87  O          4.1960  -10.9790  -20.2710 O.2   183  GLN183     -0.2867
     88  CB         2.3450   -8.5230  -21.0080 C.3   183  GLN183      0.0367
     89  CG         1.8110   -7.5870  -22.0610 C.3   183  GLN183      0.0905
     90  CD         2.0000   -6.1400  -21.6750 C.2   183  GLN183      0.2608
     91  OE1        2.7120   -5.8130  -20.7020 O.2   183  GLN183     -0.2717
     92  NE2        1.3830   -5.2610  -22.4260 N.am  183  GLN183     -0.0878
     93  N        -11.4520   -0.4120  -16.9710 N.3   239  ASP239     -0.1239
     94  CA       -10.5700    0.6580  -17.4270 C.3   239  ASP239      0.1674
     95  C        -10.9160    1.0480  -18.8650 C.2   239  ASP239      0.2266
     96  O        -11.2560    0.2020  -19.6980 O.2   239  ASP239     -0.2867
     97  CB        -9.0960    0.2730  -17.3390 C.3   239  ASP239      0.1410
     98  CG        -8.8070   -0.9870  -18.0440 C.2   239  ASP239      0.3668
     99  OD1       -9.2510   -2.0270  -17.5240 O.co2 239  ASP239     -0.2456
    100  OD2       -8.1160   -0.9540  -19.1110 O.co2 239  ASP239     -0.2456
    101  N         -9.1600    3.8760  -21.5420 N.3   241  ASN241     -0.1240
    102  CA        -8.4080    5.0260  -22.0090 C.3   241  ASN241      0.1653
    103  C         -8.8930    5.4240  -23.3990 C.2   241  ASN241      0.2266
    104  O         -9.3690    4.5790  -24.1650 O.2   241  ASN241     -0.2867
    105  CB        -6.9350    4.7310  -21.9880 C.3   241  ASN241      0.1155
    106  CG        -6.3870    4.6370  -20.5720 C.2   241  ASN241      0.2627
    107  OD1       -6.8190    5.3630  -19.6260 O.2   241  ASN241     -0.2716
    108  ND2       -5.4370    3.7440  -20.4090 N.am  241  ASN241     -0.0877
    109  N         -9.0700    6.5740  -27.2670 N.3   243  TYR243     -0.1241
    110  CA        -8.3220    6.3720  -28.5130 C.3   243  TYR243      0.1605
    111  C         -8.8990    7.3350  -29.5140 C.2   243  TYR243      0.2264
    112  O        -10.1010    7.3260  -29.7600 O.2   243  TYR243     -0.2867
    113  CB        -8.4830    4.9380  -29.0180 C.3   243  TYR243      0.0534
    114  CG        -7.8920    3.9210  -28.0740 C.ar  243  TYR243     -0.0201
    115  CD1       -8.7080    3.0670  -27.3220 C.ar  243  TYR243     -0.0009
    116  CD2       -6.5140    3.8330  -27.9010 C.ar  243  TYR243     -0.0009
    117  CE1       -8.1550    2.1140  -26.4380 C.ar  243  TYR243      0.0417
    118  CE2       -5.9570    2.9000  -27.0210 C.ar  243  TYR243      0.0417
    119  CZ        -6.7850    2.0510  -26.2960 C.ar  243  TYR243      0.1957
    120  OH        -6.1980    1.1440  -25.4530 O.3   243  TYR243     -0.2866
    121  N        -10.7760   -2.7460  -26.2010 N.3   263  HIS263     -0.1241
    122  CA       -10.4190   -2.2500  -24.8760 C.3   263  HIS263      0.1621
    123  C        -11.6400   -2.2770  -23.9420 C.2   263  HIS263      0.2264
    124  O        -11.6520   -2.9690  -22.9140 O.2   263  HIS263     -0.2867
    125  CB        -9.8460   -0.8180  -24.9810 C.3   263  HIS263      0.0745
    126  CG        -9.2460   -0.3130  -23.7020 C.ar  263  HIS263      0.0817
    127  ND1       -7.9410    0.1390  -23.6200 N.ar  263  HIS263     -0.2268
    128  CD2       -9.7470   -0.2430  -22.4430 C.ar  263  HIS263      0.1154
    129  CE1       -7.6790    0.4950  -22.3710 C.ar  263  HIS263      0.1986
    130  NE2       -8.7530    0.2630  -21.6350 N.ar  263  HIS263     -0.2212
    131  N        -12.5810    3.5350  -14.9740 N.3   309  ASN309     -0.1240
    132  CA       -11.2970    4.0780  -14.5730 C.3   309  ASN309      0.1653
    133  C        -10.7080    4.7790  -15.7920 C.2   309  ASN309      0.2266
    134  O        -10.3650    4.1180  -16.7830 O.2   309  ASN309     -0.2867
    135  CB       -10.3730    2.9790  -14.0930 C.3   309  ASN309      0.1155
    136  CG       -10.8380    2.3750  -12.7750 C.2   309  ASN309      0.2627
    137  OD1      -11.7920    2.8770  -12.1580 O.2   309  ASN309     -0.2716
    138  ND2      -10.1670    1.3140  -12.3340 N.am  309  ASN309     -0.0877
    139  N         -7.8570    7.4080  -17.2350 N.3   311  TYR311     -0.1227
    140  CA        -6.5780    8.0590  -16.9600 C.3   311  TYR311      0.1736
    141  C         -6.0080    8.8670  -18.1260 C.2   311  TYR311      0.2596
    142  O         -5.5040    9.9860  -17.9310 O.2   311  TYR311     -0.2718
    143  CB        -5.5330    7.0330  -16.5280 C.3   311  TYR311      0.0548
    144  CG        -5.7370    6.4950  -15.1170 C.ar  311  TYR311     -0.0200
    145  CD1       -6.4490    5.3090  -14.8870 C.ar  311  TYR311     -0.0009
    146  CD2       -5.1980    7.1610  -14.0280 C.ar  311  TYR311     -0.0009
    147  CE1       -6.6170    4.8200  -13.5640 C.ar  311  TYR311      0.0417
    148  CE2       -5.3640    6.7020  -12.7280 C.ar  311  TYR311      0.0417
    149  CZ        -6.0600    5.5210  -12.5040 C.ar  311  TYR311      0.1957
    150  OH        -6.1960    5.0630  -11.2010 O.3   311  TYR311     -0.2866
    151  N         -6.0640    8.2990  -19.3170 N.am  312  THR312     -0.1953
    152  CA        -5.2250    8.8100  -20.4050 C.3   312  THR312      0.1897
    153  C         -5.8270    8.5710  -21.7990 C.2   312  THR312      0.2313
    154  O         -6.9690    8.0710  -21.9220 O.2   312  THR312     -0.2863
    155  CB        -3.7150    8.2840  -20.2410 C.3   312  THR312      0.1794
    156  OG1       -2.8670    9.0160  -21.1270 O.3   312  THR312     -0.2208
    157  CG2       -3.5590    6.7610  -20.5030 C.3   312  THR312      0.0378
    158  N         -3.0800   -8.4410  -27.6380 N.3   330  SER330     -0.1217
    159  CA        -2.5930   -7.0940  -28.0210 C.3   330  SER330      0.1889
    160  C         -2.4230   -6.9600  -29.5370 C.2   330  SER330      0.2288
    161  O         -2.8330   -5.9570  -30.1370 O.2   330  SER330     -0.2866
    162  CB        -1.2620   -6.7860  -27.3300 C.3   330  SER330      0.2089
    163  OG        -1.4630   -6.6270  -25.9240 O.3   330  SER330     -0.2183
    164  N         -3.6070   -2.4480  -34.7030 N.3   335  VAL335     -0.1231
    165  CA        -3.4970   -0.9830  -34.6420 C.3   335  VAL335      0.1692
    166  C         -2.0780   -0.5810  -34.3040 C.2   335  VAL335      0.2593
    167  O         -1.2740   -1.3880  -33.8130 O.2   335  VAL335     -0.2718
    168  CB        -4.4590   -0.3190  -33.5750 C.3   335  VAL335      0.0266
    169  CG1       -5.9100   -0.6780  -33.8540 C.3   335  VAL335      0.0020
    170  CG2       -4.0370   -0.6810  -32.1470 C.3   335  VAL335      0.0020
    171  N         -1.7850    0.6990  -34.5240 N.am  336  THR336     -0.1939
    172  CA        -0.4940    1.2660  -34.2010 C.3   336  THR336      0.2028
    173  C         -0.7240    2.4500  -33.2570 C.2   336  THR336      0.2642
    174  O         -1.4480    3.3850  -33.6050 O.2   336  THR336     -0.2714
    175  CB         0.1940    1.7190  -35.5180 C.3   336  THR336      0.1808
    176  OG1        0.3980    0.5620  -36.3440 O.3   336  THR336     -0.2208
    177  CG2        1.5150    2.3950  -35.2280 C.3   336  THR336      0.0379
    178  N         -0.1400    2.3900  -32.0550 N.am  337  TYR337     -0.1973
    179  CA        -0.1850    3.4900  -31.0870 C.3   337  TYR337      0.1639
    180  C          0.6850    4.6540  -31.5410 C.2   337  TYR337      0.2290
    181  O          1.8220    4.4450  -31.9590 O.2   337  TYR337     -0.2864
    182  CB         0.3370    3.0430  -29.7100 C.3   337  TYR337      0.0560
    183  CG        -0.6030    2.1570  -28.9420 C.ar  337  TYR337     -0.0198
    184  CD1       -0.7590    0.8250  -29.2810 C.ar  337  TYR337     -0.0009
    185  CD2       -1.3600    2.6730  -27.8730 C.ar  337  TYR337     -0.0009
    186  CE1       -1.6320    0.0060  -28.5820 C.ar  337  TYR337      0.0417
    187  CE2       -2.2350    1.8630  -27.1590 C.ar  337  TYR337      0.0417
    188  CZ        -2.3590    0.5210  -27.5240 C.ar  337  TYR337      0.1957
    189  OH        -3.2160   -0.2940  -26.8250 O.3   337  TYR337     -0.2866
    190  N          1.7390    8.7200  -30.1710 N.3   339  PHE339     -0.1241
    191  CA         1.6400    9.6500  -29.0420 C.3   339  PHE339      0.1605
    192  C          1.9800   11.1010  -29.3940 C.2   339  PHE339      0.2264
    193  O          2.1550   11.9350  -28.5060 O.2   339  PHE339     -0.2867
    194  CB         2.4820    9.1420  -27.8500 C.3   339  PHE339      0.0534
    195  CG         2.0010    7.8300  -27.3190 C.ar  339  PHE339     -0.0203
    196  CD1        0.9460    7.7810  -26.4180 C.ar  339  PHE339     -0.0042
    197  CD2        2.5530    6.6430  -27.7810 C.ar  339  PHE339     -0.0042
    198  CE1        0.4690    6.5390  -25.9550 C.ar  339  PHE339     -0.0003
    199  CE2        2.0840    5.4050  -27.3340 C.ar  339  PHE339     -0.0003
    200  CZ         1.0550    5.3630  -26.4190 C.ar  339  PHE339     -0.0000
    201  N          3.0750    5.2070  -19.0890 N.3   354  TRP354     -0.1241
    202  CA         1.8200    5.0420  -19.8400 C.3   354  TRP354      0.1605
    203  C          0.8390    6.2010  -19.6470 C.2   354  TRP354      0.2264
    204  O         -0.1340    6.3030  -20.3750 O.2   354  TRP354     -0.2867
    205  CB         1.1350    3.7260  -19.4540 C.3   354  TRP354      0.0550
    206  CG         0.8290    3.5920  -17.9870 C.ar  354  TRP354      0.0003
    207  CD1        1.5940    2.9520  -17.0400 C.ar  354  TRP354      0.0946
    208  CD2       -0.3260    4.1080  -17.2920 C.ar  354  TRP354      0.0152
    209  NE1        0.9780    3.0390  -15.7990 N.ar  354  TRP354     -0.2442
    210  CE2       -0.1930    3.7420  -15.9280 C.ar  354  TRP354      0.0810
    211  CE3       -1.4660    4.8340  -17.6930 C.ar  354  TRP354      0.0012
    212  CZ2       -1.1510    4.1000  -14.9620 C.ar  354  TRP354      0.0191
    213  CZ3       -2.4320    5.1680  -16.7360 C.ar  354  TRP354      0.0001
    214  CH2       -2.2670    4.8110  -15.3970 C.ar  354  TRP354      0.0015
    215  N         -0.2210    9.6120  -20.0010 N.3   356  TYR356     -0.1241
    216  CA        -0.1690   10.9100  -20.6690 C.3   356  TYR356      0.1605
    217  C         -1.2940   11.7800  -20.1580 C.2   356  TYR356      0.2264
    218  O         -2.4450   11.3450  -20.1130 O.2   356  TYR356     -0.2867
    219  CB        -0.2730   10.7270  -22.2010 C.3   356  TYR356      0.0534
    220  CG         0.9360   10.0300  -22.7740 C.ar  356  TYR356     -0.0201
    221  CD1        1.0200    8.6310  -22.7480 C.ar  356  TYR356     -0.0009
    222  CD2        2.0040   10.7580  -23.3230 C.ar  356  TYR356     -0.0009
    223  CE1        2.1300    7.9580  -23.2580 C.ar  356  TYR356      0.0417
    224  CE2        3.1290   10.0880  -23.8450 C.ar  356  TYR356      0.0417
    225  CZ         3.1610    8.6960  -23.8110 C.ar  356  TYR356      0.1957
    226  OH         4.2400    8.0060  -24.2790 O.3   356  TYR356     -0.2866
    227  N        -12.0270    5.8260  -10.9460 N.3   382  GLU382     -0.1245
    228  CA       -10.6350    6.2410  -10.6780 C.3   382  GLU382      0.1567
    229  C        -10.2740    7.2660  -11.7130 C.2   382  GLU382      0.2260
    230  O        -10.6050    7.1070  -12.9360 O.2   382  GLU382     -0.2867
    231  CB        -9.6290    5.0690  -10.8350 C.3   382  GLU382      0.0388
    232  CG        -9.6160    4.0440   -9.6890 C.3   382  GLU382      0.1160
    233  CD        -8.6900    2.8170   -9.9350 C.2   382  GLU382      0.3649
    234  OE1       -7.6370    2.9420  -10.6270 O.co2 382  GLU382     -0.2457
    235  OE2       -9.0300    1.7050   -9.4550 O.co2 382  GLU382     -0.2457
    236  N         -8.3010    8.5820   -7.7200 N.3   429  TRP429     -0.1241
    237  CA        -7.2380    7.6200   -7.3500 C.3   429  TRP429      0.1605
    238  C         -5.9740    8.4650   -7.0810 C.2   429  TRP429      0.2264
    239  O         -5.4880    9.0910   -8.0110 O.2   429  TRP429     -0.2867
    240  CB        -6.9520    6.5730   -8.4700 C.3   429  TRP429      0.0550
    241  CG        -5.8620    5.6150   -7.9580 C.ar  429  TRP429      0.0003
    242  CD1       -4.5130    5.7780   -8.0730 C.ar  429  TRP429      0.0946
    243  CD2       -6.0600    4.4430   -7.1460 C.ar  429  TRP429      0.0152
    244  NE1       -3.8450    4.7640   -7.3990 N.ar  429  TRP429     -0.2442
    245  CE2       -4.7710    3.9100   -6.8570 C.ar  429  TRP429      0.0810
    246  CE3       -7.1950    3.7430   -6.7070 C.ar  429  TRP429      0.0012
    247  CZ2       -4.5850    2.7450   -6.0940 C.ar  429  TRP429      0.0191
    248  CZ3       -7.0100    2.5600   -5.9570 C.ar  429  TRP429      0.0001
    249  CH2       -5.7090    2.0960   -5.6390 C.ar  429  TRP429      0.0015
    250  N          2.0620    0.7750   -5.4440 N.3   436  GLU436     -0.1231
    251  CA         1.6410    0.8240   -6.8400 C.3   436  GLU436      0.1699
    252  C          2.1530   -0.3700   -7.6790 C.2   436  GLU436      0.2592
    253  O          2.8950   -0.2140   -8.6490 O.2   436  GLU436     -0.2718
    254  CB         2.0180    2.1910   -7.4600 C.3   436  GLU436      0.0402
    255  CG         1.5880    2.3940   -8.8990 C.3   436  GLU436      0.1161
    256  CD         0.1030    2.2140   -9.1880 C.2   436  GLU436      0.3649
    257  OE1       -0.7620    2.4250   -8.3010 O.co2 436  GLU436     -0.2457
    258  OE2       -0.1960    1.8730  -10.3670 O.co2 436  GLU436     -0.2457
    259  N          1.7160   -1.5600   -7.2850 N.am  437  TRP437     -0.1976
    260  CA         1.9850   -2.8010   -8.0120 C.3   437  TRP437      0.1640
    261  C          3.4570   -2.9700   -8.4010 C.2   437  TRP437      0.2290
    262  O          4.3180   -2.8970   -7.5260 O.2   437  TRP437     -0.2864
    263  CB         1.0240   -2.9390   -9.2010 C.3   437  TRP437      0.0576
    264  CG        -0.4170   -2.7550   -8.7830 C.ar  437  TRP437      0.0006
    265  CD1       -1.2780   -1.7820   -9.2210 C.ar  437  TRP437      0.0946
    266  CD2       -1.1430   -3.5440   -7.8280 C.ar  437  TRP437      0.0152
    267  NE1       -2.5150   -1.9390   -8.6150 N.ar  437  TRP437     -0.2442
    268  CE2       -2.4580   -3.0010   -7.7500 C.ar  437  TRP437      0.0810
    269  CE3       -0.8310   -4.6860   -7.0560 C.ar  437  TRP437      0.0012
    270  CZ2       -3.4560   -3.5500   -6.9200 C.ar  437  TRP437      0.0191
    271  CZ3       -1.8340   -5.2250   -6.2190 C.ar  437  TRP437      0.0001
    272  CH2       -3.1360   -4.6390   -6.1670 C.ar  437  TRP437      0.0015
    273  N          0.5510    8.2980   -6.1830 N.3   445  PHE445     -0.1241
    274  CA        -0.7460    8.7170   -6.7110 C.3   445  PHE445      0.1605
    275  C         -1.6510    9.5070   -5.7370 C.2   445  PHE445      0.2264
    276  O         -2.7120    9.9840   -6.1210 O.2   445  PHE445     -0.2867
    277  CB        -1.5450    7.4650   -7.1850 C.3   445  PHE445      0.0534
    278  CG        -1.2630    7.0810   -8.6110 C.ar  445  PHE445     -0.0203
    279  CD1       -1.8960    7.7570   -9.6720 C.ar  445  PHE445     -0.0042
    280  CD2       -0.3470    6.0480   -8.8950 C.ar  445  PHE445     -0.0042
    281  CE1       -1.6230    7.3970  -11.0150 C.ar  445  PHE445     -0.0003
    282  CE2       -0.0550    5.6630  -10.2300 C.ar  445  PHE445     -0.0003
    283  CZ        -0.6950    6.3290  -11.2890 C.ar  445  PHE445     -0.0000
@<TRIPOS>BOND
     1   176   175    1
     2   175   177    1
     3   175   172    1
     4   164   165    1
     5   165   166    1
     6   165   168    1
     7   171   166   am
     8   171   172    1
     9   166   167    2
    10   172   173    1
    11   169   168    1
    12   174   173    2
    13   168   170    1
    14   173   178   am
    15   178   179    1
    16   181   180    2
    17   180   179    1
    18   179   182    1
    19   190   191    1
    20   161   160    2
    21   112   111    2
    22   182   183    1
    23   160   159    1
    24   111   110    1
    25   192   191    1
    26   192   193    2
    27   184   183   ar
    28   184   186   ar
    29   191   194    1
    30   113   110    1
    31   113   114    1
    32   183   185   ar
    33   186   188   ar
    34   110   109    1
    35   114   116   ar
    36   114   115   ar
    37   159   158    1
    38   159   162    1
    39   116   118   ar
    40   185   187   ar
    41   194   195    1
    42   197   199   ar
    43   197   195   ar
    44   188   187   ar
    45   188   189    1
    46   199   200   ar
    47   162   163    1
    48   115   117   ar
    49   195   196   ar
    50   118   119   ar
    51   117   119   ar
    52   200   198   ar
    53   196   198   ar
    54   119   120    1
    55   121   122    1
    56   125   122    1
    57   125   126    1
    58   122   123    1
    59   226   225    1
    60   104   103    2
    61   123   124    2
    62   224   225   ar
    63   224   222   ar
    64   225   223   ar
    65   126   127   ar
    66   126   128   ar
    67   127   129   ar
    68   103   102    1
    69   222   220   ar
    70   223   221   ar
    71    58    57    1
    72    74    73    1
    73   220   221   ar
    74   220   219    1
    75   128   130   ar
    76    92    90   am
    77   129   130   ar
    78   219   216    1
    79    89    90    1
    80    89    88    1
    81   102   105    1
    82   102   101    1
    83   105   106    1
    84   154   153    2
    85    57    59    1
    86    57    56    2
    87   153   152    1
    88    55    56    1
    89    55    54    1
    90    90    91    2
    91    84    85    1
    92    85    88    1
    93    85    86    1
    94    73    75    1
    95    73    72    1
    96    54    53    1
    97   156   155    1
    98   216   217    1
    99   216   215    1
   100    72    69    1
   101   106   108   am
   102   106   107    2
   103   157   155    1
   104   152   155    1
   105   152   151    1
   106   204   203    2
   107    69    68    1
   108    69    70    1
   109    87    86    2
   110    71    70    2
   111   217   218    2
   112   202   203    1
   113   202   205    1
   114   202   201    1
   115    96    95    2
   116    53    50    1
   117    70    76   am
   118   205   206    1
   119   151   141   am
   120    52    51    2
   121   100    98   ar
   122    50    51    1
   123    50    49    1
   124    95    94    1
   125    51    60   am
   126    83    81    1
   127    76    77    1
   128   141   142    2
   129   141   140    1
   130    98    99   ar
   131    98    97    1
   132   206   208   ar
   133   206   207   ar
   134    67    65    1
   135   211   208   ar
   136   211   213   ar
   137    77    78    1
   138    77    80    1
   139    60    61    1
   140    94    97    1
   141    94    93    1
   142   208   210   ar
   143   139   140    1
   144    81    80    1
   145    81    82    1
   146    78    79    2
   147   207   209   ar
   148    61    62    1
   149    61    64    1
   150   140   143    1
   151   134   133    2
   152    65    64    1
   153   213   214   ar
   154    63    62    2
   155   143   144    1
   156    64    66    1
   157   210   209   ar
   158   210   212   ar
   159   133   132    1
   160   214   212   ar
   161   144   145   ar
   162   144   146   ar
   163   131   132    1
   164   145   147   ar
   165    43    42    2
   166    42    41    1
   167   132   135    1
   168    41    44    1
   169    41    40    1
   170    44    45    1
   171    47    46    2
   172   135   136    1
   173   146   148   ar
   174    46    45    1
   175    46    48   am
   176   147   149   ar
   177    40    34   am
   178   230   229    2
   179   136   138   am
   180   136   137    2
   181   148   149   ar
   182   149   150    1
   183    31    30    1
   184    34    35    2
   185    34    33    1
   186   229   228    1
   187    29    30   ar
   188    29    27   ar
   189    30    28   ar
   190   283   281   ar
   191   283   282   ar
   192   281   279   ar
   193   227   228    1
   194    33    32    1
   195    33    36    1
   196   231   228    1
   197   231   232    1
   198   234   233   ar
   199    27    25   ar
   200    39    37   am
   201    28    26   ar
   202   258   256   ar
   203    38    37    2
   204   282   280   ar
   205    37    36    1
   206   233   232    1
   207   233   235   ar
   208   279   278   ar
   209    26    25   ar
   210    25    24    1
   211   265   264   ar
   212   265   267   ar
   213   263   264    1
   214   263   260    1
   215   256   255    1
   216   256   257   ar
   217   255   254    1
   218   280   278   ar
   219   264   266   ar
   220   253   252    2
   221   267   268   ar
   222   278   277    1
   223    24    21    1
   224   240   241    1
   225   240   237    1
   226   261   260    1
   227   261   262    2
   228    21    20    1
   229    21    22    1
   230   242   241   ar
   231   242   244   ar
   232   260   259    1
   233   239   238    2
   234    20    12   am
   235   241   243   ar
   236   266   268   ar
   237   266   269   ar
   238    19    18   ar
   239    19    17   ar
   240   268   270   ar
   241   236   237    1
   242   252   259   am
   243   252   251    1
   244    23    22    2
   245    18    16   ar
   246   254   251    1
   247   244   245   ar
   248   237   238    1
   249    17    15   ar
   250   277   274    1
   251   243   245   ar
   252   243   246   ar
   253   269   271   ar
   254    12    11    1
   255    12    13    2
   256   270   272   ar
   257    11    10    1
   258    11    14    1
   259   245   247   ar
   260   251   250    1
   261    16    15   ar
   262   274   273    1
   263   274   275    1
   264   246   248   ar
   265    15    14    1
   266   271   272   ar
   267     9     7   am
   268   276   275    2
   269   247   249   ar
   270     8     7    2
   271   248   249   ar
   272     7     6    1
   273     6     5    1
   274     5     2    1
   275     2     1    1
   276     2     3    1
   277     3     4    2
