@<TRIPOS>MOLECULE
tmp/3f5mB00.pdb
 155 146 0 0 0
SMALL
GASTEIGER

@<TRIPOS>ATOM
      1  N         41.5640  -10.7080   43.3480 N.3    88  CYS88      -0.1221
      2  CA        42.9690  -10.4330   43.1440 C.3    88  CYS88       0.1808
      3  C         43.2760  -10.3100   41.6680 C.2    88  CYS88       0.2602
      4  O         42.4760  -10.7100   40.8270 O.2    88  CYS88      -0.2717
      5  CB        43.8230  -11.5520   43.7320 C.3    88  CYS88       0.0970
      6  SG        43.3570  -12.1660   45.3670 S.3    88  CYS88      -0.0800
      7  N         44.4440   -9.7640   41.3450 N.am   89  GLY89      -0.1942
      8  CA        44.7990   -9.5560   39.9490 C.3    89  GLY89       0.2014
      9  C         44.0800   -8.3750   39.2960 C.2    89  GLY89       0.2639
     10  O         43.5000   -7.5160   39.9700 O.2    89  GLY89      -0.2714
     11  N         44.1230   -8.3300   37.9700 N.am   90  GLY90      -0.1954
     12  CA        43.5440   -7.2280   37.2250 C.3    90  GLY90       0.1869
     13  C         42.0430   -7.1880   37.3860 C.2    90  GLY90       0.2309
     14  O         41.4560   -8.1280   37.8990 O.2    90  GLY90      -0.2863
     15  N         44.9720  -10.2170   48.2590 N.3   122  TYR122     -0.1241
     16  CA        45.4650  -11.0430   49.3510 C.3   122  TYR122      0.1605
     17  C         45.9960  -10.1620   50.4630 C.2   122  TYR122      0.2264
     18  O         45.9940  -10.5600   51.6320 O.2   122  TYR122     -0.2867
     19  CB        46.5120  -12.0500   48.8620 C.3   122  TYR122      0.0534
     20  CG        45.9300  -13.2670   48.1840 C.ar  122  TYR122     -0.0201
     21  CD1       44.7950  -13.8990   48.7000 C.ar  122  TYR122     -0.0009
     22  CD2       46.5210  -13.7970   47.0360 C.ar  122  TYR122     -0.0009
     23  CE1       44.2590  -15.0290   48.0950 C.ar  122  TYR122      0.0417
     24  CE2       45.9950  -14.9200   46.4240 C.ar  122  TYR122      0.0417
     25  CZ        44.8690  -15.5320   46.9720 C.ar  122  TYR122      0.1957
     26  OH        44.3290  -16.6340   46.3790 O.3   122  TYR122     -0.2866
     27  N         44.7390   -6.2800   44.4040 N.3   155  SER155     -0.1202
     28  CA        46.1500   -5.9540   44.5090 C.3   155  SER155      0.2020
     29  C         47.0310   -6.9870   43.8270 C.2   155  SER155      0.2619
     30  O         46.5660   -8.0470   43.3600 O.2   155  SER155     -0.2717
     31  CB        46.5770   -5.7750   45.9640 C.3   155  SER155      0.2103
     32  OG        46.7080   -7.0120   46.6290 O.3   155  SER155     -0.2182
     33  N         48.3080   -6.6370   43.7630 N.am  156  ARG156     -0.1965
     34  CA        49.3330   -7.4210   43.1090 C.3   156  ARG156      0.1729
     35  C         50.4060   -7.6940   44.1670 C.2   156  ARG156      0.2617
     36  O         50.5760   -6.9110   45.1100 O.2   156  ARG156     -0.2715
     37  CB        49.9270   -6.6000   41.9730 C.3   156  ARG156      0.0348
     38  CG        50.0120   -7.3100   40.6580 C.3   156  ARG156      0.0492
     39  CD        48.9610   -6.8390   39.6900 C.3   156  ARG156      0.2205
     40  NE        48.5840   -7.9220   38.7850 N.pl3 156  ARG156     -0.0865
     41  CZ        47.9010   -7.7720   37.6500 C.cat 156  ARG156      0.5346
     42  NH1       47.6040   -8.8380   36.9310 N.pl3 156  ARG156      0.1354
     43  NH2       47.5040   -6.5710   37.2330 N.pl3 156  ARG156      0.1354
     44  N         51.1270   -8.7980   44.0200 N.am  157  GLY157     -0.1941
     45  CA        52.1670   -9.1590   44.9750 C.3   157  GLY157      0.1998
     46  C         51.7150  -10.1260   46.0630 C.2   157  GLY157      0.2480
     47  O         50.5700  -10.0850   46.5240 O.2   157  GLY157     -0.2729
     48  N         52.6310  -10.9880   46.5140 N.am  158  PRO158     -0.2726
     49  CA        52.3150  -12.0840   47.4280 C.3   158  PRO158      0.1402
     50  C         52.1010  -11.6170   48.8670 C.2   158  PRO158      0.2269
     51  O         52.5310  -10.5400   49.2550 O.2   158  PRO158     -0.2865
     52  CB        53.5780  -12.9430   47.3780 C.3   158  PRO158      0.0296
     53  CG        54.5560  -12.2170   46.4880 C.3   158  PRO158      0.0237
     54  CD        54.0810  -10.8400   46.3310 C.3   158  PRO158      0.0939
     55  N         51.4840  -16.7710   53.6320 N.3   161  PRO161     -0.2116
     56  CA        50.3650  -17.7000   53.8110 C.3   161  PRO161      0.1372
     57  C         50.0220  -17.9110   55.2840 C.2   161  PRO161      0.2244
     58  O         48.8700  -18.1560   55.6400 O.2   161  PRO161     -0.2868
     59  CB        50.8930  -18.9920   53.1910 C.3   161  PRO161      0.0268
     60  CG        51.9360  -18.5390   52.2290 C.3   161  PRO161      0.0207
     61  CD        52.5930  -17.3750   52.8870 C.3   161  PRO161      0.0892
     62  N         47.9400  -15.0210   56.3580 N.3   164  MET164     -0.1245
     63  CA        46.6290  -15.0990   55.7360 C.3   164  MET164      0.1570
     64  C         45.7320  -16.0800   56.4480 C.2   164  MET164      0.2261
     65  O         44.5680  -15.7720   56.7180 O.2   164  MET164     -0.2867
     66  CB        46.7540  -15.4270   54.2480 C.3   164  MET164      0.0387
     67  CG        47.5150  -14.3500   53.4970 C.3   164  MET164      0.0595
     68  SD        47.1440  -14.3740   51.7640 S.3   164  MET164     -0.1393
     69  CE        48.3540  -15.4980   51.1230 C.3   164  MET164      0.0692
     70  N         42.7540  -14.7720   38.6550 N.3   181  GLY181     -0.1210
     71  CA        43.3330  -15.6510   37.6680 C.3   181  GLY181      0.1956
     72  C         44.2330  -16.7480   38.1740 C.2   181  GLY181      0.2612
     73  O         44.1240  -17.2340   39.3030 O.2   181  GLY181     -0.2717
     74  N         45.1270  -17.1450   37.2820 N.am  182  ASP182     -0.1959
     75  CA        46.1030  -18.1970   37.4960 C.3   182  ASP182      0.1840
     76  C         46.8760  -17.9480   38.7860 C.2   182  ASP182      0.2623
     77  O         46.9760  -18.8230   39.6520 O.2   182  ASP182     -0.2715
     78  CB        47.0580  -18.1650   36.3150 C.3   182  ASP182      0.1450
     79  CG        47.9860  -19.3190   36.2870 C.2   182  ASP182      0.3671
     80  OD1       47.4960  -20.4640   36.1920 O.co2 182  ASP182     -0.2456
     81  OD2       49.2140  -19.0760   36.3210 O.co2 182  ASP182     -0.2456
     82  N         47.4350  -16.7480   38.9080 N.am  183  GLY183     -0.1940
     83  CA        48.1700  -16.3950   40.1010 C.3   183  GLY183      0.2014
     84  C         47.3150  -16.5990   41.3420 C.2   183  GLY183      0.2639
     85  O         47.7320  -17.2520   42.3130 O.2   183  GLY183     -0.2714
     86  N         46.1070  -16.0360   41.3040 N.am  184  THR184     -0.1950
     87  CA        45.1930  -16.1140   42.4280 C.3   184  THR184      0.1897
     88  C         44.9680  -17.5390   42.8560 C.2   184  THR184      0.2313
     89  O         45.1070  -17.8660   44.0290 O.2   184  THR184     -0.2863
     90  CB        43.8570  -15.4720   42.1030 C.3   184  THR184      0.1794
     91  OG1       44.1100  -14.1620   41.5940 O.3   184  THR184     -0.2208
     92  CG2       42.9850  -15.3920   43.3720 C.3   184  THR184      0.0378
     93  N         46.7250  -20.3120   42.1910 N.3   186  ARG186     -0.1231
     94  CA        47.9500  -20.8530   42.7640 C.3   186  ARG186      0.1694
     95  C         48.1190  -20.4060   44.2340 C.2   186  ARG186      0.2592
     96  O         48.4830  -21.1940   45.0940 O.2   186  ARG186     -0.2718
     97  CB        49.1610  -20.4370   41.9380 C.3   186  ARG186      0.0321
     98  CG        49.2370  -21.1000   40.5790 C.3   186  ARG186      0.0489
     99  CD        50.3630  -20.5070   39.7560 C.3   186  ARG186      0.2205
    100  NE        50.2000  -20.7540   38.3290 N.pl3 186  ARG186     -0.0865
    101  CZ        50.7170  -21.7970   37.6900 C.cat 186  ARG186      0.5346
    102  NH1       50.5220  -21.9470   36.3810 N.pl3 186  ARG186      0.1354
    103  NH2       51.4290  -22.6910   38.3660 N.pl3 186  ARG186      0.1354
    104  N         47.8450  -19.1420   44.5280 N.am  187  GLY187     -0.1957
    105  CA        47.8350  -18.6890   45.9040 C.3   187  GLY187      0.1869
    106  C         46.8070  -19.4240   46.7450 C.2   187  GLY187      0.2309
    107  O         47.0360  -19.7410   47.9110 O.2   187  GLY187     -0.2863
    108  N         48.1600  -22.6450   47.9960 N.3   190  VAL190     -0.1245
    109  CA        49.0750  -22.4190   49.1050 C.3   190  VAL190      0.1561
    110  C         48.2710  -22.2030   50.3900 C.2   190  VAL190      0.2260
    111  O         48.5130  -22.8680   51.4020 O.2   190  VAL190     -0.2867
    112  CB        50.0180  -21.2370   48.8710 C.3   190  VAL190      0.0252
    113  CG1       50.7130  -20.8570   50.1600 C.3   190  VAL190      0.0019
    114  CG2       51.0380  -21.5680   47.8130 C.3   190  VAL190      0.0019
    115  N         38.9300  -15.8270   36.9710 N.3   209  LYS209     -0.1231
    116  CA        38.8290  -14.5020   36.3740 C.3   209  LYS209      0.1693
    117  C         39.8830  -14.3520   35.3130 C.2   209  LYS209      0.2592
    118  O         41.0650  -14.2220   35.5990 O.2   209  LYS209     -0.2718
    119  CB        39.0010  -13.4070   37.4240 C.3   209  LYS209      0.0285
    120  CG        39.0690  -12.0020   36.8550 C.3   209  LYS209      0.0035
    121  CD        39.7690  -11.0650   37.8270 C.3   209  LYS209      0.0206
    122  CE        41.2570  -11.2930   37.7840 C.3   209  LYS209      0.1093
    123  NZ        41.8040  -10.6560   36.5690 N.3   209  LYS209     -0.1314
    124  N         39.4490  -14.3760   34.0690 N.am  210  THR210     -0.1953
    125  CA        40.3380  -14.0830   32.9570 C.3   210  THR210      0.1897
    126  C         39.5160  -13.5040   31.8170 C.2   210  THR210      0.2313
    127  O         38.7360  -14.1980   31.1850 O.2   210  THR210     -0.2863
    128  CB        41.1230  -15.3330   32.5020 C.3   210  THR210      0.1794
    129  OG1       41.6670  -15.0980   31.1980 O.3   210  THR210     -0.2208
    130  CG2       40.2090  -16.5420   32.4530 C.3   210  THR210      0.0378
    131  N         53.6710   -9.2220   41.2210 N.3   320  SER320     -0.1217
    132  CA        53.2260  -10.5980   41.4130 C.3   320  SER320      0.1889
    133  C         54.1890  -11.5930   40.7890 C.2   320  SER320      0.2288
    134  O         54.1160  -12.8030   41.0590 O.2   320  SER320     -0.2866
    135  CB        51.8130  -10.7980   40.8610 C.3   320  SER320      0.2089
    136  OG        50.8480  -10.1440   41.6760 O.3   320  SER320     -0.2183
    137  N         54.6650  -11.5450   37.3900 N.3   322  ASN322     -0.1240
    138  CA        54.2650  -11.6430   35.9940 C.3   322  ASN322      0.1653
    139  C         55.2340  -10.8780   35.0950 C.2   322  ASN322      0.2266
    140  O         55.6800   -9.7740   35.4410 O.2   322  ASN322     -0.2867
    141  CB        52.8410  -11.1040   35.8120 C.3   322  ASN322      0.1155
    142  CG        51.8320  -11.8310   36.6680 C.2   322  ASN322      0.2627
    143  OD1       51.7730  -13.0580   36.6620 O.2   322  ASN322     -0.2716
    144  ND2       51.0310  -11.0760   37.4160 N.am  322  ASN322     -0.0877
    145  N         38.1240   -3.2350   30.6050 N.3   362  ARG362     -0.1245
    146  CA        38.1760   -4.0190   31.8320 C.3   362  ARG362      0.1563
    147  C         37.3800   -3.4250   32.9770 C.2   362  ARG362      0.2260
    148  O         36.9440   -4.1480   33.8900 O.2   362  ARG362     -0.2867
    149  CB        39.5920   -4.1670   32.3110 C.3   362  ARG362      0.0307
    150  CG        40.6030   -4.4840   31.3220 C.3   362  ARG362      0.0489
    151  CD        41.8470   -4.6100   32.1740 C.3   362  ARG362      0.2205
    152  NE        42.6200   -5.7230   31.7710 N.pl3 362  ARG362     -0.0865
    153  CZ        42.8340   -6.9460   32.2340 C.cat 362  ARG362      0.5346
    154  NH1       43.6050   -7.6140   31.4260 N.pl3 362  ARG362      0.1354
    155  NH2       42.4210   -7.5120   33.3670 N.pl3 362  ARG362      0.1354
@<TRIPOS>BOND
     1   145   146    1
     2   127   126    2
     3   129   128    1
     4   150   151    1
     5   150   149    1
     6   154   153    1
     7   152   151    1
     8   152   153    2
     9   126   125    1
    10   146   149    1
    11   146   147    1
    12   153   155    1
    13   130   128    1
    14   128   125    1
    15   125   124    1
    16   147   148    2
    17   124   117   am
    18   139   140    2
    19   139   138    1
    20   117   118    2
    21   117   116    1
    22   141   138    1
    23   141   142    1
    24   138   137    1
    25    80    79   ar
    26    79    78    1
    27    79    81   ar
    28    78    75    1
    29   116   115    1
    30   116   119    1
    31   102   101    1
    32   123   122    1
    33   143   142    2
    34   142   144   am
    35   120   119    1
    36   120   121    1
    37    42    41    1
    38    12    13    1
    39    12    11    1
    40    43    41    1
    41    74    75    1
    42    74    72   am
    43    13    14    2
    44    75    76    1
    45    41    40    2
    46    71    72    1
    47    71    70    1
    48   101   100    2
    49   101   103    1
    50   122   121    1
    51    11     9   am
    52    72    73    2
    53   100    99    1
    54    40    39    1
    55    76    82   am
    56    76    77    2
    57    82    83    1
    58     9     8    1
    59     9    10    2
    60    39    38    1
    61    99    98    1
    62     8     7    1
    63    83    84    1
    64    98    97    1
    65    38    37    1
    66   133   134    2
    67   133   132    1
    68     4     3    2
    69   135   132    1
    70   135   136    1
    71   131   132    1
    72    86    84   am
    73    86    87    1
    74    84    85    2
    75     7     3   am
    76    91    90    1
    77     3     2    1
    78    97    94    1
    79    37    34    1
    80    90    87    1
    81    90    92    1
    82    93    94    1
    83    87    88    1
    84    94    95    1
    85    88    89    2
    86    34    33    1
    87    34    35    1
    88     2     1    1
    89     2     5    1
    90    30    29    2
    91     5     6    1
    92    33    29   am
    93    29    28    1
    94    44    35   am
    95    44    45    1
    96    35    36    2
    97    95   104   am
    98    95    96    2
    99    27    28    1
   100    28    31    1
   101   104   105    1
   102    45    46    1
   103   105   106    1
   104    31    32    1
   105    46    48   am
   106    46    47    2
   107    54    53    1
   108    54    48    1
   109    26    25    1
   110    24    25   ar
   111    24    22   ar
   112    53    52    1
   113    48    49    1
   114   106   107    2
   115    25    23   ar
   116    22    20   ar
   117    52    49    1
   118    49    50    1
   119   114   112    1
   120   108   109    1
   121    23    21   ar
   122    20    21   ar
   123    20    19    1
   124    15    16    1
   125    19    16    1
   126    50    51    2
   127   112   109    1
   128   112   113    1
   129   109   110    1
   130    16    17    1
   131   110   111    2
   132    17    18    2
   133    69    68    1
   134    68    67    1
   135    60    61    1
   136    60    59    1
   137    61    55    1
   138    59    56    1
   139    67    66    1
   140    55    56    1
   141    56    57    1
   142    66    63    1
   143    57    58    2
   144    63    62    1
   145    63    64    1
   146    64    65    2
