@<TRIPOS>MOLECULE
tmp/3f5oF01.pdb
 84 79 0 0 0
SMALL
GASTEIGER

@<TRIPOS>ATOM
      1  N         29.3690   61.2280   19.7250 N.3    49  ASN49      -0.1240
      2  CA        28.1270   61.0750   18.9810 C.3    49  ASN49       0.1653
      3  C         28.0710   59.6600   18.3930 C.2    49  ASN49       0.2266
      4  O         28.9560   58.8150   18.6820 O.2    49  ASN49      -0.2867
      5  CB        28.0670   62.1330   17.8750 C.3    49  ASN49       0.1155
      6  CG        29.3330   62.1340   17.0320 C.2    49  ASN49       0.2627
      7  OD1       29.9540   61.0830   16.8300 O.2    49  ASN49      -0.2716
      8  ND2       29.7670   63.3080   16.6150 N.am   49  ASN49      -0.0877
      9  N         28.7350   58.7010   15.5250 N.3    51  ILE51      -0.1245
     10  CA        29.8670   58.4030   14.6230 C.3    51  ILE51       0.1561
     11  C         31.2400   58.3470   15.3000 C.2    51  ILE51       0.2260
     12  O         32.2810   58.2650   14.6180 O.2    51  ILE51      -0.2867
     13  CB        29.8690   59.2980   13.3640 C.3    51  ILE51       0.0252
     14  CG1       30.3140   60.7350   13.6820 C.3    51  ILE51       0.0019
     15  CG2       28.5380   59.2810   12.6780 C.3    51  ILE51       0.0019
     16  CD1       30.4910   61.5910   12.4070 C.3    51  ILE51       0.0001
     17  N         32.8820   60.4920   17.1940 N.3    53  THR53      -0.1203
     18  CA        33.6690   61.7220   17.4000 C.3    53  THR53       0.1994
     19  C         33.0090   62.5640   18.4840 C.2    53  THR53       0.2617
     20  O         31.8650   62.3050   18.8910 O.2    53  THR53      -0.2717
     21  CB        33.8250   62.5580   16.0870 C.3    53  THR53       0.1784
     22  OG1       32.5440   63.0710   15.6960 O.3    53  THR53      -0.2211
     23  CG2       34.4210   61.6650   14.9570 C.3    53  THR53       0.0376
     24  N         33.7330   63.5750   18.9460 N.am   54  LEU54      -0.1979
     25  CA        33.2280   64.4960   19.9670 C.3    54  LEU54       0.1596
     26  C         31.8780   65.0810   19.5310 C.2    54  LEU54       0.2287
     27  O         31.7540   65.6600   18.4390 O.2    54  LEU54      -0.2864
     28  CB        34.2540   65.6290   20.1940 C.3    54  LEU54       0.0297
     29  CG        33.8800   66.6670   21.2750 C.3    54  LEU54       0.0022
     30  CD1       33.6390   66.0520   22.7140 C.3    54  LEU54       0.0001
     31  CD2       34.9390   67.7660   21.3010 C.3    54  LEU54       0.0001
     32  N         28.9140   67.4600   18.9050 N.3    56  GLY56      -0.1225
     33  CA        28.8980   68.9190   18.7050 C.3    56  GLY56       0.1811
     34  C         28.1600   69.6770   19.8130 C.2    56  GLY56       0.2280
     35  O         28.4560   70.8530   20.0530 O.2    56  GLY56      -0.2866
     36  N         30.6910   69.9230   22.5750 N.3    59  THR59      -0.1218
     37  CA        31.5190   71.0690   22.2160 C.3    59  THR59       0.1862
     38  C         30.8640   72.4050   22.5940 C.2    59  THR59       0.2287
     39  O         31.5000   73.2620   23.1930 O.2    59  THR59      -0.2866
     40  CB        31.8650   71.0030   20.7310 C.3    59  THR59       0.1770
     41  OG1       32.6670   69.8330   20.5200 O.3    59  THR59      -0.2211
     42  CG2       32.6160   72.2830   20.2920 C.3    59  THR59       0.0375
     43  N         32.9090   74.3750   13.4680 N.3    89  TYR89      -0.1227
     44  CA        33.5110   73.0750   13.6820 C.3    89  TYR89       0.1736
     45  C         34.4510   72.7760   12.5120 C.2    89  TYR89       0.2595
     46  O         33.9870   72.5380   11.3820 O.2    89  TYR89      -0.2718
     47  CB        32.4300   71.9920   13.7500 C.3    89  TYR89       0.0548
     48  CG        31.4310   72.1690   14.8710 C.ar   89  TYR89      -0.0200
     49  CD1       30.2680   72.9150   14.6690 C.ar   89  TYR89      -0.0009
     50  CD2       31.6370   71.5660   16.1120 C.ar   89  TYR89      -0.0009
     51  CE1       29.3290   73.0650   15.6690 C.ar   89  TYR89       0.0417
     52  CE2       30.6980   71.7060   17.1370 C.ar   89  TYR89       0.0417
     53  CZ        29.5590   72.4660   16.9080 C.ar   89  TYR89       0.1957
     54  OH        28.6020   72.6230   17.8920 O.3    89  TYR89      -0.2866
     55  N         35.7530   72.7890   12.7990 N.am   90  MET90      -0.1965
     56  CA        36.8060   72.7210   11.7910 C.3    90  MET90       0.1736
     57  C         37.4110   71.3580   11.5580 C.2    90  MET90       0.2617
     58  O         37.7870   71.0420   10.4240 O.2    90  MET90      -0.2715
     59  CB        37.9010   73.7570   12.0740 C.3    90  MET90       0.0427
     60  CG        37.5120   75.0580   11.4930 C.3    90  MET90       0.0599
     61  SD        38.1260   76.4690   12.3710 S.3    90  MET90      -0.1393
     62  CE        37.1860   76.1310   13.8470 C.3    90  MET90       0.0692
     63  N         37.5090   70.5580   12.6170 N.am   91  SER91      -0.1936
     64  CA        38.0080   69.1920   12.4920 C.3    91  SER91       0.2040
     65  C         37.3680   68.3300   13.5500 C.2    91  SER91       0.2485
     66  O         36.9920   68.8410   14.6290 O.2    91  SER91      -0.2729
     67  CB        39.5450   69.1220   12.6020 C.3    91  SER91       0.2129
     68  OG        40.0060   69.5270   13.8750 O.3    91  SER91      -0.2179
     69  N         37.2180   67.0150   13.2550 N.am   92  PRO92      -0.2726
     70  CA        36.6820   66.1400   14.2970 C.3    92  PRO92       0.1402
     71  C         37.6780   65.8530   15.4200 C.2    92  PRO92       0.2269
     72  O         38.9110   65.8480   15.2050 O.2    92  PRO92      -0.2865
     73  CB        36.3550   64.8320   13.5450 C.3    92  PRO92       0.0296
     74  CG        37.2500   64.7830   12.4150 C.3    92  PRO92       0.0237
     75  CD        37.5300   66.2740   12.0160 C.3    92  PRO92       0.0939
     76  N         38.3900   62.6630   17.7160 N.3    94  LYS94      -0.1245
     77  CA        38.0290   61.2430   17.7740 C.3    94  LYS94       0.1561
     78  C         38.0680   60.7230   19.1930 C.2    94  LYS94       0.2260
     79  O         38.7670   61.2700   20.0480 O.2    94  LYS94      -0.2867
     80  CB        38.9510   60.4160   16.8640 C.3    94  LYS94       0.0271
     81  CG        39.0980   61.0380   15.4850 C.3    94  LYS94       0.0035
     82  CD        39.3660   59.9950   14.4080 C.3    94  LYS94       0.0206
     83  CE        39.0280   60.5810   13.0510 C.3    94  LYS94       0.1093
     84  NZ        37.6780   61.2500   13.0580 N.3    94  LYS94      -0.1314
@<TRIPOS>BOND
     1    58    57    2
     2    46    45    2
     3    60    59    1
     4    60    61    1
     5    57    56    1
     6    57    63   am
     7    56    59    1
     8    56    55    1
     9    75    74    1
    10    75    69    1
    11    61    62    1
    12    16    14    1
    13    74    73    1
    14    64    67    1
    15    64    63    1
    16    64    65    1
    17    45    55   am
    18    45    44    1
    19    67    68    1
    20    15    13    1
    21    83    84    1
    22    83    82    1
    23    69    65   am
    24    69    70    1
    25    13    14    1
    26    13    10    1
    27    43    44    1
    28    73    70    1
    29    65    66    2
    30    44    47    1
    31    47    48    1
    32    70    71    1
    33    82    81    1
    34    12    11    2
    35    10    11    1
    36    10     9    1
    37    49    48   ar
    38    49    51   ar
    39    48    50   ar
    40    23    21    1
    41    72    71    2
    42    81    80    1
    43    51    53   ar
    44    22    21    1
    45    21    18    1
    46    50    52   ar
    47     8     6   am
    48     7     6    2
    49    80    77    1
    50    53    52   ar
    51    53    54    1
    52     6     5    1
    53    17    18    1
    54    18    19    1
    55    76    77    1
    56    77    78    1
    57     5     2    1
    58     3     4    2
    59     3     2    1
    60    27    26    2
    61    19    20    2
    62    19    24   am
    63    33    32    1
    64    33    34    1
    65    24    25    1
    66     2     1    1
    67    78    79    2
    68    26    25    1
    69    34    35    2
    70    25    28    1
    71    28    29    1
    72    42    40    1
    73    41    40    1
    74    40    37    1
    75    29    31    1
    76    29    30    1
    77    37    36    1
    78    37    38    1
    79    38    39    2
