@<TRIPOS>MOLECULE
tmp/3f5oF05.pdb
 80 72 0 0 0
SMALL
GASTEIGER

@<TRIPOS>ATOM
      1  N         34.9110   74.1080   41.7460 N.3    10  VAL10      -0.1245
      2  CA        33.7500   74.1680   40.8430 C.3    10  VAL10       0.1561
      3  C         33.7020   72.9080   39.9750 C.2    10  VAL10       0.2260
      4  O         32.6560   72.2740   39.8390 O.2    10  VAL10      -0.2867
      5  CB        33.7730   75.4660   39.9810 C.3    10  VAL10       0.0252
      6  CG1       32.8330   75.3560   38.7560 C.3    10  VAL10       0.0019
      7  CG2       33.4460   76.6640   40.8390 C.3    10  VAL10       0.0019
      8  N         32.5610   69.9140   42.0280 N.3    13  ALA13      -0.1231
      9  CA        31.0950   69.9500   42.2110 C.3    13  ALA13       0.1694
     10  C         30.3510   69.4750   40.9560 C.2    13  ALA13       0.2591
     11  O         29.3560   68.7480   41.0500 O.2    13  ALA13      -0.2718
     12  CB        30.6360   71.3530   42.6080 C.3    13  ALA13       0.0304
     13  N         30.8560   69.8700   39.7830 N.am   14  MET14      -0.1979
     14  CA        30.2720   69.4420   38.5100 C.3    14  MET14       0.1605
     15  C         30.2770   67.9360   38.3800 C.2    14  MET14       0.2287
     16  O         29.2740   67.3450   38.0020 O.2    14  MET14      -0.2864
     17  CB        31.0230   70.0390   37.3200 C.3    14  MET14       0.0413
     18  CG        30.8600   71.5220   37.1550 C.3    14  MET14       0.0598
     19  SD        31.4870   72.0770   35.5440 S.3    14  MET14      -0.1393
     20  CE        32.8200   70.9010   35.2850 C.3    14  MET14       0.0692
     21  N         27.4150   66.4780   40.3160 N.3    17  ALA17      -0.1245
     22  CA        26.0990   67.0530   40.0410 C.3    17  ALA17       0.1562
     23  C         25.0960   66.0580   39.4160 C.2    17  ALA17       0.2260
     24  O         25.4840   65.1530   38.6860 O.2    17  ALA17      -0.2867
     25  CB        26.2620   68.2790   39.1180 C.3    17  ALA17       0.0290
     26  N         22.4890   67.6190   37.8770 N.3    19  ASN19      -0.1240
     27  CA        22.0740   68.4860   36.7880 C.3    19  ASN19       0.1653
     28  C         22.9860   68.3680   35.5370 C.2    19  ASN19       0.2266
     29  O         23.8740   67.5290   35.4840 O.2    19  ASN19      -0.2867
     30  CB        21.8470   69.9290   37.2500 C.3    19  ASN19       0.1155
     31  CG        23.1310   70.6680   37.6080 C.2    19  ASN19       0.2627
     32  OD1       24.2240   70.2770   37.2230 O.2    19  ASN19      -0.2716
     33  ND2       22.9910   71.7650   38.3520 N.am   19  ASN19      -0.0877
     34  N         25.3650   70.1650   34.3610 N.3    21  GLU21      -0.1245
     35  CA        26.8130   70.4270   34.5940 C.3    21  GLU21       0.1567
     36  C         27.6430   69.1400   34.7610 C.2    21  GLU21       0.2260
     37  O         28.8730   69.1520   34.5890 O.2    21  GLU21      -0.2867
     38  CB        27.0110   71.3340   35.8240 C.3    21  GLU21       0.0388
     39  CG        26.0380   72.5210   35.9510 C.3    21  GLU21       0.1160
     40  CD        26.2600   73.6910   34.9740 C.2    21  GLU21       0.3649
     41  OE1       25.5090   74.7050   35.0650 O.co2  21  GLU21      -0.2457
     42  OE2       27.1750   73.6190   34.1220 O.co2  21  GLU21      -0.2457
     43  N         30.4030   76.5530   29.1950 N.3    65  ASN65      -0.1240
     44  CA        30.8860   76.4630   30.5750 C.3    65  ASN65       0.1653
     45  C         32.2650   77.0680   30.7700 C.2    65  ASN65       0.2266
     46  O         32.4770   77.8090   31.7480 O.2    65  ASN65      -0.2867
     47  CB        30.8210   75.0530   31.1020 C.3    65  ASN65       0.1155
     48  CG        29.3890   74.5980   31.4260 C.2    65  ASN65       0.2627
     49  OD1       28.4050   75.2890   31.1510 O.2    65  ASN65      -0.2716
     50  ND2       29.2860   73.4200   32.0320 N.am   65  ASN65      -0.0877
     51  N         32.2110   80.7270   30.6660 N.3    68  THR68      -0.1203
     52  CA        31.6140   81.2050   31.9360 C.3    68  THR68       0.1994
     53  C         32.6760   81.1870   33.0590 C.2    68  THR68       0.2617
     54  O         32.7600   82.1300   33.8570 O.2    68  THR68      -0.2717
     55  CB        30.3400   80.4400   32.2550 C.3    68  THR68       0.1784
     56  OG1       29.4140   80.6520   31.1690 O.3    68  THR68      -0.2211
     57  CG2       29.6860   80.9600   33.5730 C.3    68  THR68       0.0376
     58  N         33.5220   80.1650   33.0600 N.am   69  MET69      -0.1979
     59  CA        34.6310   80.0880   34.0460 C.3    69  MET69       0.1605
     60  C         35.5850   81.2630   33.8860 C.2    69  MET69       0.2287
     61  O         36.0250   81.8570   34.8900 O.2    69  MET69      -0.2864
     62  CB        35.4080   78.8010   33.9200 C.3    69  MET69       0.0413
     63  CG        34.6410   77.5610   34.2920 C.3    69  MET69       0.0598
     64  SD        35.7090   76.1580   33.9880 S.3    69  MET69      -0.1393
     65  CE        34.6020   74.8340   34.4020 C.3    69  MET69       0.0692
     66  N         34.0360   84.1750   35.5870 N.3    72  LEU72      -0.1245
     67  CA        34.1930   84.0470   37.0460 C.3    72  LEU72       0.1561
     68  C         35.5880   84.5160   37.4900 C.2    72  LEU72       0.2260
     69  O         35.7580   85.0320   38.6130 O.2    72  LEU72      -0.2867
     70  CB        33.9820   82.5970   37.4770 C.3    72  LEU72       0.0270
     71  CG        32.5940   81.9720   37.2810 C.3    72  LEU72       0.0019
     72  CD1       32.6440   80.5230   37.7590 C.3    72  LEU72       0.0001
     73  CD2       31.5460   82.7730   38.0390 C.3    72  LEU72       0.0001
     74  N         28.9040   85.4450   36.4600 N.3    79  PRO79      -0.2116
     75  CA        28.8570   84.4730   35.3540 C.3    79  PRO79       0.1372
     76  C         27.8920   84.8670   34.2260 C.2    79  PRO79       0.2244
     77  O         28.0730   84.4190   33.1010 O.2    79  PRO79      -0.2868
     78  CB        28.4230   83.1790   36.0500 C.3    79  PRO79       0.0268
     79  CG        27.5320   83.6850   37.2250 C.3    79  PRO79       0.0207
     80  CD        28.1860   84.9610   37.6710 C.3    79  PRO79       0.0892
@<TRIPOS>BOND
     1    43    44    1
     2    44    45    1
     3    44    47    1
     4    51    52    1
     5    45    46    2
     6    47    48    1
     7    49    48    2
     8    56    55    1
     9    48    50   am
    10    52    55    1
    11    52    53    1
    12    55    57    1
    13    53    58   am
    14    53    54    2
    15    58    59    1
    16    77    76    2
    17    60    59    1
    18    60    61    2
    19    62    59    1
    20    62    63    1
    21    64    63    1
    22    64    65    1
    23    42    40   ar
    24    76    75    1
    25    34    35    1
    26    37    36    2
    27    35    36    1
    28    35    38    1
    29    40    41   ar
    30    40    39    1
    31    20    19    1
    32    75    78    1
    33    75    74    1
    34    29    28    2
    35    28    27    1
    36    19    18    1
    37    66    67    1
    38    38    39    1
    39    78    79    1
    40    74    80    1
    41    27    30    1
    42    27    26    1
    43    67    70    1
    44    67    68    1
    45    18    17    1
    46    32    31    2
    47    79    80    1
    48    30    31    1
    49    71    70    1
    50    71    72    1
    51    71    73    1
    52    17    14    1
    53    68    69    2
    54    31    33   am
    55    16    15    2
    56    15    14    1
    57    14    13    1
    58    24    23    2
    59     6     5    1
    60    25    22    1
    61    23    22    1
    62    13    10   am
    63     4     3    2
    64     3     2    1
    65     5     7    1
    66     5     2    1
    67    22    21    1
    68     2     1    1
    69    10    11    2
    70    10     9    1
    71     8     9    1
    72     9    12    1
