@<TRIPOS>MOLECULE
tmp/3f5oF02.pdb
 72 66 0 0 0
SMALL
GASTEIGER

@<TRIPOS>ATOM
      1  N         34.9110   74.1080   41.7460 N.3    10  VAL10      -0.1245
      2  CA        33.7500   74.1680   40.8430 C.3    10  VAL10       0.1561
      3  C         33.7020   72.9080   39.9750 C.2    10  VAL10       0.2260
      4  O         32.6560   72.2740   39.8390 O.2    10  VAL10      -0.2867
      5  CB        33.7730   75.4660   39.9810 C.3    10  VAL10       0.0252
      6  CG1       32.8330   75.3560   38.7560 C.3    10  VAL10       0.0019
      7  CG2       33.4460   76.6640   40.8390 C.3    10  VAL10       0.0019
      8  N         25.3650   70.1650   34.3610 N.3    21  GLU21      -0.1245
      9  CA        26.8130   70.4270   34.5940 C.3    21  GLU21       0.1567
     10  C         27.6430   69.1400   34.7610 C.2    21  GLU21       0.2260
     11  O         28.8730   69.1520   34.5890 O.2    21  GLU21      -0.2867
     12  CB        27.0110   71.3340   35.8240 C.3    21  GLU21       0.0388
     13  CG        26.0380   72.5210   35.9510 C.3    21  GLU21       0.1160
     14  CD        26.2600   73.6910   34.9740 C.2    21  GLU21       0.3649
     15  OE1       25.5090   74.7050   35.0650 O.co2  21  GLU21      -0.2457
     16  OE2       27.1750   73.6190   34.1220 O.co2  21  GLU21      -0.2457
     17  N         30.2650   77.0670   26.3250 N.3    64  ASP64      -0.1239
     18  CA        29.4160   77.7210   27.2940 C.3    64  ASP64       0.1674
     19  C         30.0190   77.7240   28.7030 C.2    64  ASP64       0.2266
     20  O         30.1550   78.8020   29.3140 O.2    64  ASP64      -0.2867
     21  CB        28.0870   76.9740   27.3040 C.3    64  ASP64       0.1410
     22  CG        26.9880   77.7080   28.0310 C.2    64  ASP64       0.3668
     23  OD1       27.2400   78.6960   28.7530 O.co2  64  ASP64      -0.2456
     24  OD2       25.8280   77.2490   27.8690 O.co2  64  ASP64      -0.2456
     25  N         32.2110   80.7270   30.6660 N.3    68  THR68      -0.1218
     26  CA        31.6140   81.2050   31.9360 C.3    68  THR68       0.1862
     27  C         32.6760   81.1870   33.0590 C.2    68  THR68       0.2287
     28  O         32.7600   82.1300   33.8570 O.2    68  THR68      -0.2866
     29  CB        30.3400   80.4400   32.2550 C.3    68  THR68       0.1770
     30  OG1       29.4140   80.6520   31.1690 O.3    68  THR68      -0.2211
     31  CG2       29.6860   80.9600   33.5730 C.3    68  THR68       0.0375
     32  N         34.0360   84.1750   35.5870 N.3    72  LEU72      -0.1245
     33  CA        34.1930   84.0470   37.0460 C.3    72  LEU72       0.1561
     34  C         35.5880   84.5160   37.4900 C.2    72  LEU72       0.2260
     35  O         35.7580   85.0320   38.6130 O.2    72  LEU72      -0.2867
     36  CB        33.9820   82.5970   37.4770 C.3    72  LEU72       0.0270
     37  CG        32.5940   81.9720   37.2810 C.3    72  LEU72       0.0019
     38  CD1       32.6440   80.5230   37.7590 C.3    72  LEU72       0.0001
     39  CD2       31.5460   82.7730   38.0390 C.3    72  LEU72       0.0001
     40  N         28.9040   85.4450   36.4600 N.3    79  PRO79      -0.2102
     41  CA        28.8570   84.4730   35.3540 C.3    79  PRO79       0.1504
     42  C         27.8920   84.8670   34.2260 C.2    79  PRO79       0.2576
     43  O         28.0730   84.4190   33.1010 O.2    79  PRO79      -0.2718
     44  CB        28.4230   83.1790   36.0500 C.3    79  PRO79       0.0282
     45  CG        27.5320   83.6850   37.2250 C.3    79  PRO79       0.0208
     46  CD        28.1860   84.9610   37.6710 C.3    79  PRO79       0.0893
     47  N         26.8870   85.6990   34.5200 N.am   80  GLY80      -0.1943
     48  CA        25.8650   86.0930   33.5160 C.3    80  GLY80       0.2014
     49  C         24.9560   84.9710   33.0330 C.2    80  GLY80       0.2639
     50  O         25.0020   83.8160   33.5410 O.2    80  GLY80      -0.2714
     51  N         24.0960   85.3040   32.0690 N.am   81  VAL81      -0.1963
     52  CA        23.2710   84.2830   31.4130 C.3    81  VAL81       0.1727
     53  C         23.5170   84.4500   29.9030 C.2    81  VAL81       0.2616
     54  O         23.7180   85.5690   29.4120 O.2    81  VAL81      -0.2715
     55  CB        21.7330   84.4540   31.6970 C.3    81  VAL81       0.0290
     56  CG1       21.4200   84.1900   33.1620 C.3    81  VAL81       0.0023
     57  CG2       21.2390   85.8490   31.2650 C.3    81  VAL81       0.0023
     58  N         23.4610   83.3400   29.1980 N.am   82  SER82      -0.1950
     59  CA        23.7370   83.3600   27.7470 C.3    82  SER82       0.1924
     60  C         22.7460   84.1840   26.9580 C.2    82  SER82       0.2314
     61  O         21.5180   84.0790   27.1900 O.2    82  SER82      -0.2863
     62  CB        23.7490   81.9360   27.2080 C.3    82  SER82       0.2116
     63  OG        24.6810   81.1100   27.8920 O.3    82  SER82      -0.2180
     64  N         27.1680   87.1210   26.9570 N.3   135  LYS135     -0.1245
     65  CA        26.3440   86.8930   28.1360 C.3   135  LYS135      0.1561
     66  C         25.8660   88.2260   28.6720 C.2   135  LYS135      0.2260
     67  O         26.5220   89.2470   28.4870 O.2   135  LYS135     -0.2867
     68  CB        27.1360   86.1560   29.2150 C.3   135  LYS135      0.0271
     69  CG        27.6760   84.8120   28.7280 C.3   135  LYS135      0.0035
     70  CD        28.0710   83.8760   29.8540 C.3   135  LYS135      0.0206
     71  CE        26.8430   83.0920   30.3540 C.3   135  LYS135      0.1093
     72  NZ        27.1700   82.2330   31.5520 N.3   135  LYS135     -0.1314
@<TRIPOS>BOND
     1    17    18    1
     2    64    65    1
     3    60    61    2
     4    60    59    1
     5    62    59    1
     6    62    63    1
     7    18    21    1
     8    18    19    1
     9    21    22    1
    10    59    58    1
    11    24    22   ar
    12    22    23   ar
    13    65    66    1
    14    65    68    1
    15    67    66    2
    16    19    20    2
    17    69    68    1
    18    69    70    1
    19    58    53   am
    20    54    53    2
    21    70    71    1
    22    53    52    1
    23    71    72    1
    24    25    26    1
    25    30    29    1
    26    57    55    1
    27    52    55    1
    28    52    51    1
    29    55    56    1
    30    26    29    1
    31    26    27    1
    32    51    49   am
    33    29    31    1
    34    49    48    1
    35    49    50    2
    36    27    28    2
    37    43    42    2
    38    48    47    1
    39    16    14   ar
    40    42    47   am
    41    42    41    1
    42     8     9    1
    43    11    10    2
    44     9    10    1
    45     9    12    1
    46    14    15   ar
    47    14    13    1
    48    41    44    1
    49    41    40    1
    50    32    33    1
    51    12    13    1
    52    44    45    1
    53    40    46    1
    54    33    36    1
    55    33    34    1
    56    45    46    1
    57    37    36    1
    58    37    38    1
    59    37    39    1
    60    34    35    2
    61     6     5    1
    62     4     3    2
    63     3     2    1
    64     5     7    1
    65     5     2    1
    66     2     1    1
