@<TRIPOS>MOLECULE
tmp/3f5pH00.pdb
 210 197 0 0 0
SMALL
GASTEIGER

@<TRIPOS>ATOM
      1  N         54.2930  114.6140  108.6410 N.3    24  ARG24      -0.1245
      2  CA        54.8290  114.1760  107.3520 C.3    24  ARG24       0.1563
      3  C         53.7650  113.8580  106.3020 C.2    24  ARG24       0.2260
      4  O         52.7200  113.3010  106.6210 O.2    24  ARG24      -0.2867
      5  CB        55.7810  112.9790  107.5460 C.3    24  ARG24       0.0307
      6  CG        55.2280  111.8000  108.3680 C.3    24  ARG24       0.0489
      7  CD        54.9720  110.5620  107.5050 C.3    24  ARG24       0.2205
      8  NE        54.8590  109.3470  108.3160 N.pl3  24  ARG24      -0.0865
      9  CZ        54.8360  108.1060  107.8310 C.cat  24  ARG24       0.5346
     10  NH1       54.9150  107.8940  106.5210 N.pl3  24  ARG24       0.1354
     11  NH2       54.7380  107.0720  108.6620 N.pl3  24  ARG24       0.1354
     12  N         51.5110  112.1150  103.5720 N.3    26  LEU26      -0.1231
     13  CA        51.1030  110.7330  103.3600 C.3    26  LEU26       0.1693
     14  C         50.8940  110.5010  101.8670 C.2    26  LEU26       0.2593
     15  O         51.0340  109.3750  101.3750 O.2    26  LEU26      -0.2718
     16  CB        49.8160  110.4220  104.1220 C.3    26  LEU26       0.0284
     17  CG        49.9160  110.5130  105.6410 C.3    26  LEU26       0.0019
     18  CD1       48.5390  110.3610  106.2670 C.3    26  LEU26       0.0001
     19  CD2       50.8600  109.4570  106.1540 C.3    26  LEU26       0.0001
     20  N         50.5640  111.5750  101.1500 N.am   27  GLY27      -0.1942
     21  CA        50.3320  111.5010   99.7180 C.3    27  GLY27       0.2014
     22  C         49.2210  112.4170   99.2440 C.2    27  GLY27       0.2639
     23  O         48.6720  113.2110  100.0190 O.2    27  GLY27      -0.2714
     24  N         48.8820  112.3000   97.9620 N.am   28  GLN28      -0.1963
     25  CA        47.8380  113.1350   97.3700 C.3    28  GLN28       0.1733
     26  C         46.4380  112.7410   97.8260 C.2    28  GLN28       0.2617
     27  O         46.1790  111.5960   98.2250 O.2    28  GLN28      -0.2715
     28  CB        47.9230  113.1310   95.8380 C.3    28  GLN28       0.0408
     29  CG        47.7180  114.5070   95.2370 C.3    28  GLN28       0.0908
     30  CD        48.4960  115.5770   95.9890 C.2    28  GLN28       0.2608
     31  OE1       49.4060  115.2690   96.7660 O.2    28  GLN28      -0.2717
     32  NE2       48.1340  116.8430   95.7680 N.am   28  GLN28      -0.0878
     33  N         45.5380  113.7160   97.7690 N.am   29  GLY29      -0.1940
     34  CA        44.1510  113.5230   98.1470 C.3    29  GLY29       0.2014
     35  C         43.2510  114.2620   97.1840 C.2    29  GLY29       0.2640
     36  O         43.6700  115.2310   96.5410 O.2    29  GLY29      -0.2714
     37  N         42.0100  113.8020   97.0830 N.am   30  SER30      -0.1935
     38  CA        41.0530  114.3800   96.1490 C.3    30  SER30       0.2055
     39  C         41.1900  115.8980   95.9350 C.2    30  SER30       0.2643
     40  O         41.3220  116.3610   94.8000 O.2    30  SER30      -0.2714
     41  CB        39.6190  114.0020   96.5380 C.3    30  SER30       0.2130
     42  OG        39.4100  114.0730   97.9360 O.3    30  SER30      -0.2179
     43  N         41.1810  116.6670   97.0190 N.am   31  PHE31      -0.1973
     44  CA        41.1300  118.1330   96.9040 C.3    31  PHE31       0.1639
     45  C         42.4110  118.8100   97.3980 C.2    31  PHE31       0.2290
     46  O         42.4990  120.0410   97.4600 O.2    31  PHE31      -0.2864
     47  CB        39.9180  118.6970   97.6670 C.3    31  PHE31       0.0560
     48  CG        38.5900  118.1080   97.2470 C.ar   31  PHE31      -0.0200
     49  CD1       38.0090  117.0650   97.9600 C.ar   31  PHE31      -0.0042
     50  CD2       37.9180  118.6030   96.1390 C.ar   31  PHE31      -0.0042
     51  CE1       36.7880  116.5290   97.5710 C.ar   31  PHE31      -0.0003
     52  CE2       36.6920  118.0680   95.7490 C.ar   31  PHE31      -0.0003
     53  CZ        36.1310  117.0330   96.4660 C.ar   31  PHE31      -0.0000
     54  N         47.3350  115.1990  101.7620 N.3    34  VAL34      -0.1245
     55  CA        47.1490  114.6090  103.0800 C.3    34  VAL34       0.1561
     56  C         48.4670  114.5330  103.8630 C.2    34  VAL34       0.2260
     57  O         49.5180  114.2190  103.3090 O.2    34  VAL34      -0.2867
     58  CB        46.5500  113.1860  103.0030 C.3    34  VAL34       0.0252
     59  CG1       45.9320  112.8200  104.3460 C.3    34  VAL34       0.0019
     60  CG2       45.5110  113.0760  101.8950 C.3    34  VAL34       0.0019
     61  N         44.7880  111.9940  110.2580 N.3    52  ALA52      -0.1245
     62  CA        45.1950  112.4270  108.9350 C.3    52  ALA52       0.1562
     63  C         44.6740  113.8430  108.7610 C.2    52  ALA52       0.2260
     64  O         43.5580  114.1550  109.1790 O.2    52  ALA52      -0.2867
     65  CB        44.6260  111.4990  107.8710 C.3    52  ALA52       0.0290
     66  N         44.1030  116.9460  105.8770 N.3    54  LYS54      -0.1245
     67  CA        44.1340  117.3530  104.4880 C.3    54  LYS54       0.1561
     68  C         44.2440  118.8760  104.4220 C.2    54  LYS54       0.2260
     69  O         43.6390  119.5840  105.2320 O.2    54  LYS54      -0.2867
     70  CB        42.9020  116.8190  103.7540 C.3    54  LYS54       0.0271
     71  CG        42.9740  116.9370  102.2520 C.3    54  LYS54       0.0035
     72  CD        41.9810  115.9990  101.5900 C.3    54  LYS54       0.0206
     73  CE        42.1530  115.9690  100.0870 C.3    54  LYS54       0.1093
     74  NZ        41.4040  114.8340   99.5080 N.3    54  LYS54      -0.1314
     75  N         33.6950  120.0230   98.0670 N.3    68  PHE68      -0.1241
     76  CA        34.5000  119.3410   99.0830 C.3    68  PHE68       0.1605
     77  C         33.8980  119.5330  100.4690 C.2    68  PHE68       0.2264
     78  O         33.6840  118.5680  101.1980 O.2    68  PHE68      -0.2867
     79  CB        35.9640  119.8330   99.0410 C.3    68  PHE68       0.0534
     80  CG        36.7960  119.4320  100.2460 C.ar   68  PHE68      -0.0203
     81  CD1       38.0290  120.0240  100.4880 C.ar   68  PHE68      -0.0042
     82  CD2       36.3440  118.4710  101.1360 C.ar   68  PHE68      -0.0042
     83  CE1       38.7910  119.6530  101.5900 C.ar   68  PHE68      -0.0003
     84  CE2       37.0910  118.1060  102.2350 C.ar   68  PHE68      -0.0003
     85  CZ        38.3200  118.6930  102.4620 C.ar   68  PHE68      -0.0000
     86  N         30.5930  117.2840  100.6730 N.3    71  GLU71      -0.1231
     87  CA        30.9640  115.9030  100.9410 C.3    71  GLU71       0.1699
     88  C         31.1720  115.7210  102.4440 C.2    71  GLU71       0.2592
     89  O         30.4590  114.9540  103.0950 O.2    71  GLU71      -0.2718
     90  CB        32.2790  115.5720  100.2340 C.3    71  GLU71       0.0402
     91  CG        32.1750  114.8380   98.9230 C.3    71  GLU71       0.1161
     92  CD        33.4810  114.1060   98.6150 C.2    71  GLU71       0.3649
     93  OE1       34.0050  114.2300   97.4800 O.co2  71  GLU71      -0.2457
     94  OE2       33.9960  113.4210   99.5330 O.co2  71  GLU71      -0.2457
     95  N         32.1660  116.4290  102.9760 N.am   72  ALA72      -0.1980
     96  CA        32.5430  116.3410  104.3800 C.3    72  ALA72       0.1597
     97  C         31.3510  116.5440  105.3180 C.2    72  ALA72       0.2287
     98  O         31.3190  116.0320  106.4360 O.2    72  ALA72      -0.2864
     99  CB        33.6310  117.3590  104.6870 C.3    72  ALA72       0.0319
    100  N         29.7300  113.1760  105.9450 N.3    75  MET75      -0.1245
    101  CA        30.6150  112.4570  106.8590 C.3    75  MET75       0.1570
    102  C         30.1530  112.6540  108.2880 C.2    75  MET75       0.2261
    103  O         29.8230  111.6970  108.9960 O.2    75  MET75      -0.2867
    104  CB        32.0240  113.0400  106.7690 C.3    75  MET75       0.0387
    105  CG        32.7590  112.7830  105.4880 C.3    75  MET75       0.0595
    106  SD        33.5290  111.1650  105.5270 S.3    75  MET75      -0.1393
    107  CE        34.3440  111.1500  103.9100 C.3    75  MET75       0.0692
    108  N         35.2850  105.3210  108.7990 N.3    84  VAL84      -0.1245
    109  CA        36.3430  106.2640  109.1010 C.3    84  VAL84       0.1561
    110  C         35.6720  107.5790  109.4780 C.2    84  VAL84       0.2260
    111  O         34.9150  108.1500  108.7000 O.2    84  VAL84      -0.2867
    112  CB        37.2960  106.4440  107.9120 C.3    84  VAL84       0.0252
    113  CG1       38.5490  107.2070  108.3400 C.3    84  VAL84       0.0019
    114  CG2       37.6830  105.0920  107.3330 C.3    84  VAL84       0.0019
    115  N         35.1370  111.5500  110.5990 N.3    86  LEU86      -0.1245
    116  CA        35.6280  112.9160  110.5040 C.3    86  LEU86       0.1561
    117  C         35.6440  113.5210  111.9080 C.2    86  LEU86       0.2260
    118  O         34.6240  113.5410  112.6030 O.2    86  LEU86      -0.2867
    119  CB        34.7500  113.7320  109.5570 C.3    86  LEU86       0.0270
    120  CG        35.0910  115.2160  109.3870 C.3    86  LEU86       0.0019
    121  CD1       35.0840  115.6190  107.9270 C.3    86  LEU86       0.0001
    122  CD2       34.1290  116.0840  110.1800 C.3    86  LEU86       0.0001
    123  N         41.1130  119.6040  107.1690 N.3    98  VAL98      -0.1245
    124  CA        40.1140  118.6050  107.5500 C.3    98  VAL98       0.1561
    125  C         40.7670  117.4970  108.3570 C.2    98  VAL98       0.2260
    126  O         41.7820  116.9300  107.9520 O.2    98  VAL98      -0.2867
    127  CB        39.3830  118.0160  106.3420 C.3    98  VAL98       0.0252
    128  CG1       38.1570  117.2660  106.8070 C.3    98  VAL98       0.0019
    129  CG2       38.9840  119.1220  105.3940 C.3    98  VAL98       0.0019
    130  N         40.6450  113.9240  109.7660 N.3   100  MET100     -0.1230
    131  CA        40.0800  112.5810  109.7030 C.3   100  MET100      0.1702
    132  C         40.8270  111.6300  110.6140 C.2   100  MET100      0.2592
    133  O         42.0200  111.7970  110.8490 O.2   100  MET100     -0.2718
    134  CB        40.1470  112.0470  108.2730 C.3   100  MET100      0.0401
    135  CG        39.2700  112.7860  107.2690 C.3   100  MET100      0.0596
    136  SD        37.5220  112.6490  107.6470 S.3   100  MET100     -0.1393
    137  CE        37.2380  110.8950  107.3930 C.3   100  MET100      0.0692
    138  N         40.1000  110.6440  111.1280 N.am  101  GLU101     -0.1966
    139  CA        40.6810  109.5370  111.8730 C.3   101  GLU101      0.1733
    140  C         41.8650  108.9560  111.1080 C.2   101  GLU101      0.2616
    141  O         41.7690  108.7320  109.9040 O.2   101  GLU101     -0.2715
    142  CB        39.6270  108.4550  112.0750 C.3   101  GLU101      0.0429
    143  CG        40.1710  107.1580  112.6420 C.3   101  GLU101      0.1163
    144  CD        39.0890  106.1200  112.8970 C.2   101  GLU101      0.3649
    145  OE1       39.4350  104.9230  113.0080 O.co2 101  GLU101     -0.2457
    146  OE2       37.8950  106.4880  112.9760 O.co2 101  GLU101     -0.2457
    147  N         42.9850  108.7320  111.7880 N.am  102  LEU102     -0.1963
    148  CA        44.1660  108.2150  111.1050 C.3   102  LEU102      0.1728
    149  C         44.0270  106.6970  110.8960 C.2   102  LEU102      0.2616
    150  O         43.6570  105.9640  111.8230 O.2   102  LEU102     -0.2715
    151  CB        45.4320  108.5320  111.8990 C.3   102  LEU102      0.0311
    152  CG        46.7690  108.6670  111.1600 C.3   102  LEU102      0.0022
    153  CD1       47.8750  108.0300  111.9840 C.3   102  LEU102      0.0001
    154  CD2       46.7340  108.0700  109.7610 C.3   102  LEU102      0.0001
    155  N         44.2950  106.2410  109.6730 N.am  103  MET103     -0.1963
    156  CA        44.2580  104.8230  109.3480 C.3   103  MET103      0.1736
    157  C         45.6550  104.3710  108.9170 C.2   103  MET103      0.2617
    158  O         45.9700  104.2960  107.7290 O.2   103  MET103     -0.2715
    159  CB        43.2290  104.5440  108.2530 C.3   103  MET103      0.0427
    160  CG        41.7930  104.9190  108.6150 C.3   103  MET103      0.0599
    161  SD        41.0200  103.9280  109.9190 S.3   103  MET103     -0.1393
    162  CE        40.6020  102.4360  109.0520 C.3   103  MET103      0.0692
    163  N         46.4720  104.0380  109.9080 N.am  104  THR104     -0.1937
    164  CA        47.9070  103.8610  109.7320 C.3   104  THR104      0.2028
    165  C         48.3640  102.9110  108.6260 C.2   104  THR104      0.2642
    166  O         49.4890  103.0370  108.1550 O.2   104  THR104     -0.2714
    167  CB        48.5660  103.4000  111.0410 C.3   104  THR104      0.1808
    168  OG1       48.0960  102.0860  111.3680 O.3   104  THR104     -0.2208
    169  CG2       48.2460  104.3560  112.1750 C.3   104  THR104      0.0379
    170  N         47.5250  101.9630  108.2140 N.am  105  ARG105     -0.1963
    171  CA        47.9640  100.9600  107.2330 C.3   105  ARG105      0.1729
    172  C         47.3850  101.1510  105.8370 C.2   105  ARG105      0.2616
    173  O         47.4990  100.2650  104.9930 O.2   105  ARG105     -0.2715
    174  CB        47.6620   99.5440  107.7240 C.3   105  ARG105      0.0348
    175  CG        48.2190   99.2470  109.0930 C.3   105  ARG105      0.0492
    176  CD        47.9910   97.8000  109.4940 C.3   105  ARG105      0.2205
    177  NE        48.5380   97.5560  110.8200 N.pl3 105  ARG105     -0.0865
    178  CZ        49.7900   97.1760  111.0480 C.cat 105  ARG105      0.5346
    179  NH1       50.6210   96.9650  110.0350 N.pl3 105  ARG105      0.1354
    180  NH2       50.2030   96.9890  112.2890 N.pl3 105  ARG105      0.1354
    181  N         46.7550  102.3000  105.5990 N.am  106  GLY106     -0.1955
    182  CA        46.3500  102.6780  104.2540 C.3   106  GLY106      0.1869
    183  C         45.1430  101.9220  103.7380 C.2   106  GLY106      0.2309
    184  O         44.3170  101.4370  104.5140 O.2   106  GLY106     -0.2863
    185  N         45.8100   98.1140   98.8080 N.3   110  SER110     -0.1217
    186  CA        47.2590   98.1230   98.9590 C.3   110  SER110      0.1889
    187  C         47.7000   97.0800   99.9680 C.2   110  SER110      0.2288
    188  O         48.5720   96.2460   99.6880 O.2   110  SER110     -0.2866
    189  CB        47.7230   99.5070   99.4010 C.3   110  SER110      0.2089
    190  OG        47.6480  100.4290   98.3310 O.3   110  SER110     -0.2183
    191  N         39.8190  101.4730  104.4410 N.3   158  MET158     -0.1245
    192  CA        41.0730  101.7420  105.1350 C.3   158  MET158      0.1570
    193  C         41.3580  100.7160  106.2220 C.2   158  MET158      0.2261
    194  O         40.4380  100.1230  106.7760 O.2   158  MET158     -0.2867
    195  CB        41.0010  103.1320  105.7420 C.3   158  MET158      0.0387
    196  CG        40.5660  104.1700  104.7450 C.3   158  MET158      0.0595
    197  SD        41.9720  104.7080  103.7590 S.3   158  MET158     -0.1393
    198  CE        42.6470  105.9000  104.8920 C.3   158  MET158      0.0692
    199  N         35.2200  104.0160  103.9520 N.3   168  GLY168     -0.1210
    200  CA        36.0610  105.1920  103.9450 C.3   168  GLY168      0.1956
    201  C         35.7830  106.3520  103.0240 C.2   168  GLY168      0.2611
    202  O         35.9800  107.5020  103.4200 O.2   168  GLY168     -0.2717
    203  N         35.3440  106.0800  101.8010 N.am  169  ASP169     -0.1973
    204  CA        35.3270  107.1470  100.8170 C.3   169  ASP169      0.1709
    205  C         33.9390  107.3500  100.2520 C.2   169  ASP169      0.2293
    206  O         33.4230  106.4880   99.5370 O.2   169  ASP169     -0.2864
    207  CB        36.3360  106.8470   99.7120 C.3   169  ASP169      0.1436
    208  CG        36.4700  107.9830   98.7150 C.2   169  ASP169      0.3671
    209  OD1       35.7550  108.9990   98.8550 O.co2 169  ASP169     -0.2456
    210  OD2       37.2950  107.8590   97.7830 O.co2 169  ASP169     -0.2456
@<TRIPOS>BOND
     1    40    39    2
     2    29    28    1
     3    29    30    1
     4    52    50   ar
     5    52    53   ar
     6    32    30   am
     7    28    25    1
     8    39    38    1
     9    39    43   am
    10    30    31    2
    11    50    48   ar
    12    38    41    1
    13    38    37    1
    14    53    51   ar
    15    41    42    1
    16    36    35    2
    17    44    43    1
    18    44    45    1
    19    44    47    1
    20    37    35   am
    21    35    34    1
    22    48    47    1
    23    48    49   ar
    24    25    26    1
    25    25    24    1
    26    45    46    2
    27    93    92   ar
    28    51    49   ar
    29    33    26   am
    30    33    34    1
    31   210   208   ar
    32    26    27    2
    33    24    22   am
    34    75    76    1
    35   190   189    1
    36    92    91    1
    37    92    94   ar
    38   208   209   ar
    39   208   207    1
    40   185   186    1
    41    91    90    1
    42   186   189    1
    43   186   187    1
    44    79    76    1
    45    79    80    1
    46    76    77    1
    47    22    21    1
    48    22    23    2
    49    74    73    1
    50   206   205    2
    51   188   187    2
    52   207   204    1
    53    21    20    1
    54    73    72    1
    55    90    87    1
    56    80    81   ar
    57    80    82   ar
    58   205   204    1
    59    77    78    2
    60    81    83   ar
    61    86    87    1
    62   204   203    1
    63    87    88    1
    64    82    84   ar
    65    20    14   am
    66    15    14    2
    67    83    85   ar
    68    72    71    1
    69    54    55    1
    70   203   201   am
    71    14    13    1
    72    60    58    1
    73    84    85   ar
    74    71    70    1
    75    88    95   am
    76    88    89    2
    77    95    96    1
    78    58    55    1
    79    58    59    1
    80   201   202    2
    81   201   200    1
    82    55    56    1
    83    57    56    2
    84    13    12    1
    85    13    16    1
    86   183   182    1
    87   183   184    2
    88    70    67    1
    89   197   196    1
    90   197   198    1
    91   107   106    1
    92   200   199    1
    93    16    17    1
    94   182   181    1
    95    96    99    1
    96    96    97    1
    97    68    67    1
    98    68    69    2
    99   191   192    1
   100    67    66    1
   101   196   195    1
   102   173   172    2
   103   192   195    1
   104   192   193    1
   105    97    98    2
   106   129   127    1
   107   105   106    1
   108   105   104    1
   109   181   172   am
   110    17    19    1
   111    17    18    1
   112   172   171    1
   113   100   101    1
   114   193   194    2
   115     3     4    2
   116     3     2    1
   117   127   128    1
   118   127   124    1
   119    10     9    1
   120   104   101    1
   121   101   102    1
   122   123   124    1
   123   171   174    1
   124   171   170    1
   125   135   136    1
   126   135   134    1
   127   114   112    1
   128     2     5    1
   129     2     1    1
   130   137   136    1
   131     7     8    1
   132     7     6    1
   133     5     6    1
   134   124   125    1
   135   174   175    1
   136   158   157    2
   137     9     8    2
   138     9    11    1
   139    65    62    1
   140   112   113    1
   141   112   109    1
   142   121   120    1
   143   126   125    2
   144   166   165    2
   145   170   165   am
   146   159   160    1
   147   159   156    1
   148   134   131    1
   149   102   103    2
   150   160   161    1
   151   165   164    1
   152   111   110    2
   153    63    62    1
   154    63    64    2
   155   108   109    1
   156   157   156    1
   157   157   163   am
   158    62    61    1
   159   162   161    1
   160   175   176    1
   161   109   110    1
   162   156   155    1
   163   120   119    1
   164   120   122    1
   165   176   177    1
   166   119   116    1
   167   155   149   am
   168   131   130    1
   169   131   132    1
   170   164   163    1
   171   164   167    1
   172   154   152    1
   173   141   140    2
   174   179   178    1
   175   116   115    1
   176   116   117    1
   177   132   133    2
   178   132   138   am
   179   177   178    2
   180   149   148    1
   181   149   150    2
   182   167   168    1
   183   167   169    1
   184   178   180    1
   185   148   147    1
   186   148   151    1
   187   140   147   am
   188   140   139    1
   189   138   139    1
   190   152   151    1
   191   152   153    1
   192   139   142    1
   193   117   118    2
   194   142   143    1
   195   143   144    1
   196   144   146   ar
   197   144   145   ar
