@<TRIPOS>MOLECULE
tmp/3f61A00.pdb
 177 164 0 0 0
SMALL
GASTEIGER

@<TRIPOS>ATOM
      1  N        -15.7850   21.6390   -8.1090 N.3    17  LEU17      -0.1231
      2  CA       -16.2100   21.1470   -9.4050 C.3    17  LEU17       0.1693
      3  C        -16.4410   19.6330   -9.4260 C.2    17  LEU17       0.2593
      4  O        -17.2590   19.1230  -10.1840 O.2    17  LEU17      -0.2718
      5  CB       -15.1380   21.5100  -10.4320 C.3    17  LEU17       0.0284
      6  CG       -14.9420   23.0050  -10.6390 C.3    17  LEU17       0.0019
      7  CD1      -13.7800   23.2100  -11.5750 C.3    17  LEU17       0.0001
      8  CD2      -16.2260   23.6360  -11.2310 C.3    17  LEU17       0.0001
      9  N        -15.7210   18.8930   -8.5880 N.am   18  GLY18      -0.1942
     10  CA       -15.7650   17.4380   -8.6990 C.3    18  GLY18       0.2014
     11  C        -14.8340   16.8000   -7.6820 C.2    18  GLY18       0.2639
     12  O        -14.1160   17.5100   -6.9690 O.2    18  GLY18      -0.2714
     13  N        -14.8890   15.4790   -7.5830 N.am   19  PHE19      -0.1959
     14  CA       -13.9710   14.7420   -6.6870 C.3    19  PHE19       0.1771
     15  C        -13.7630   13.3660   -7.2400 C.2    19  PHE19       0.2620
     16  O        -14.5460   12.8870   -8.0480 O.2    19  PHE19      -0.2715
     17  CB       -14.5250   14.5990   -5.2570 C.3    19  PHE19       0.0574
     18  CG       -15.7460   13.7040   -5.1720 C.ar   19  PHE19      -0.0200
     19  CD1      -15.6340   12.3540   -4.7940 C.ar   19  PHE19      -0.0042
     20  CD2      -17.0000   14.2090   -5.5100 C.ar   19  PHE19      -0.0042
     21  CE1      -16.7580   11.5150   -4.7550 C.ar   19  PHE19      -0.0003
     22  CE2      -18.1380   13.3800   -5.4700 C.ar   19  PHE19      -0.0003
     23  CZ       -18.0060   12.0310   -5.0900 C.ar   19  PHE19      -0.0000
     24  N        -12.7130   12.7090   -6.7730 N.am   20  GLY20      -0.1940
     25  CA       -12.4730   11.3280   -7.0940 C.3    20  GLY20       0.2014
     26  C        -12.0040   10.6260   -5.8240 C.2    20  GLY20       0.2639
     27  O        -12.2570   11.0770   -4.7140 O.2    20  GLY20      -0.2714
     28  N        -11.3200    9.5070   -6.0090 N.am   21  GLY21      -0.1939
     29  CA       -10.9310    8.6510   -4.9050 C.3    21  GLY21       0.2014
     30  C         -9.7880    9.2480   -4.1130 C.2    21  GLY21       0.2639
     31  O         -9.5090    8.8050   -3.0050 O.2    21  GLY21      -0.2714
     32  N         -9.1380   10.2810   -4.6530 N.am   22  MET22      -0.1963
     33  CA        -8.0110   10.8880   -3.9390 C.3    22  MET22       0.1736
     34  C         -8.1320   12.4130   -3.8300 C.2    22  MET22       0.2617
     35  O         -7.6160   12.9940   -2.8960 O.2    22  MET22      -0.2715
     36  CB        -6.6720   10.5140   -4.6300 C.3    22  MET22       0.0427
     37  CG        -5.4560   11.2290   -4.0470 C.3    22  MET22       0.0599
     38  SD        -3.9300   10.4970   -4.7220 S.3    22  MET22      -0.1393
     39  CE        -4.0260   11.0340   -6.4160 C.3    22  MET22       0.0692
     40  N         -8.8090   13.0670   -4.7910 N.am   23  SER23      -0.1950
     41  CA        -8.6590   14.5170   -4.9540 C.3    23  SER23       0.1924
     42  C        -10.0030   15.2180   -4.9920 C.2    23  SER23       0.2314
     43  O        -11.0330   14.5770   -5.3100 O.2    23  SER23      -0.2863
     44  CB        -7.9530   14.8310   -6.2790 C.3    23  SER23       0.2116
     45  OG        -6.6780   14.1980   -6.3260 O.3    23  SER23      -0.2180
     46  N        -11.5760   18.7630   -6.9010 N.3    25  VAL25      -0.1245
     47  CA       -11.2180   19.7240   -7.9330 C.3    25  VAL25       0.1561
     48  C        -12.0950   20.9850   -7.7790 C.2    25  VAL25       0.2260
     49  O        -13.3370   20.9030   -7.7530 O.2    25  VAL25      -0.2867
     50  CB       -11.3530   19.1150   -9.3260 C.3    25  VAL25       0.0252
     51  CG1      -10.9460   20.1560  -10.3890 C.3    25  VAL25       0.0019
     52  CG2      -10.4540   17.8530   -9.4700 C.3    25  VAL25       0.0019
     53  N         -8.6110   25.2370  -12.8320 N.3    38  ALA38      -0.1245
     54  CA        -9.1130   24.1700  -11.9450 C.3    38  ALA38       0.1562
     55  C         -7.9390   23.7440  -11.0720 C.2    38  ALA38       0.2260
     56  O         -6.8440   23.5210  -11.5830 O.2    38  ALA38      -0.2867
     57  CB        -9.6290   22.9920  -12.7380 C.3    38  ALA38       0.0290
     58  N         -6.6670   20.9180   -8.5690 N.3    40  LYS40      -0.1245
     59  CA        -6.8700   19.5860   -8.0530 C.3    40  LYS40       0.1561
     60  C         -6.0670   19.4950   -6.7450 C.2    40  LYS40       0.2260
     61  O         -4.8580   19.6690   -6.7570 O.2    40  LYS40      -0.2867
     62  CB        -6.3950   18.5440   -9.0830 C.3    40  LYS40       0.0271
     63  CG        -6.3210   17.1200   -8.5210 C.3    40  LYS40       0.0035
     64  CD        -5.8900   16.1010   -9.5650 C.3    40  LYS40       0.0206
     65  CE        -7.0220   15.8970  -10.5830 C.3    40  LYS40       0.1093
     66  NZ        -6.7210   14.7240  -11.4850 N.3    40  LYS40      -0.1314
     67  N         -6.6120   18.7730  -21.6080 N.3    72  VAL72      -0.1245
     68  CA        -6.4980   19.6890  -20.4670 C.3    72  VAL72       0.1561
     69  C         -5.0250   19.9670  -20.1700 C.2    72  VAL72       0.2260
     70  O         -4.2740   19.0430  -19.8050 O.2    72  VAL72      -0.2867
     71  CB        -7.2120   19.0820  -19.2240 C.3    72  VAL72       0.0252
     72  CG1       -6.9940   19.9200  -17.9490 C.3    72  VAL72       0.0019
     73  CG2       -8.7160   18.9440  -19.5290 C.3    72  VAL72       0.0019
     74  N         -4.5850   23.2950  -13.2380 N.3    92  MET92      -0.1230
     75  CA        -4.7510   22.9530  -14.6260 C.3    92  MET92       0.1702
     76  C         -5.7990   23.7940  -15.3100 C.2    92  MET92       0.2592
     77  O         -6.5200   24.5750  -14.6860 O.2    92  MET92      -0.2718
     78  CB        -5.1110   21.4830  -14.7530 C.3    92  MET92       0.0401
     79  CG        -6.3890   21.1420  -14.0940 C.3    92  MET92       0.0596
     80  SD        -6.6610   19.3580  -13.8630 S.3    92  MET92      -0.1393
     81  CE        -5.8120   19.0170  -12.3570 C.3    92  MET92       0.0692
     82  N         -5.8940   23.5670  -16.6070 N.am   93  GLU93      -0.1979
     83  CA        -6.9260   24.1690  -17.4360 C.3    93  GLU93       0.1602
     84  C         -8.3330   23.8190  -16.8950 C.2    93  GLU93       0.2287
     85  O         -8.6690   22.6360  -16.6710 O.2    93  GLU93      -0.2864
     86  CB        -6.7490   23.6820  -18.8690 C.3    93  GLU93       0.0415
     87  CG        -7.8050   24.1820  -19.7830 C.3    93  GLU93       0.1163
     88  CD        -7.6510   23.6370  -21.2040 C.2    93  GLU93       0.3649
     89  OE1       -8.6610   23.7470  -21.9270 O.co2  93  GLU93      -0.2457
     90  OE2       -6.5570   23.1290  -21.5870 O.co2  93  GLU93      -0.2457
     91  N        -12.1800   23.2940  -17.3070 N.3    95  VAL95      -0.1245
     92  CA       -13.2540   22.9690  -18.2530 C.3    95  VAL95       0.1561
     93  C        -14.5960   23.2100  -17.5880 C.2    95  VAL95       0.2260
     94  O        -14.8930   22.6310  -16.5460 O.2    95  VAL95      -0.2867
     95  CB       -13.1680   21.4880  -18.6990 C.3    95  VAL95       0.0252
     96  CG1      -14.3040   21.1580  -19.6910 C.3    95  VAL95       0.0019
     97  CG2      -11.8180   21.2130  -19.3340 C.3    95  VAL95       0.0019
     98  N        -18.2380   15.4420  -17.2710 N.3    99  THR99      -0.1218
     99  CA       -17.4750   14.2810  -17.7210 C.3    99  THR99       0.1862
    100  C        -18.4130   13.2850  -18.4100 C.2    99  THR99       0.2287
    101  O        -19.6210   13.3420  -18.2110 O.2    99  THR99      -0.2866
    102  CB       -16.7960   13.5250  -16.5590 C.3    99  THR99       0.1770
    103  OG1      -17.8040   12.8930  -15.7470 O.3    99  THR99      -0.2211
    104  CG2      -15.9130   14.4520  -15.7240 C.3    99  THR99       0.0375
    105  N        -18.6240   10.2570  -17.5420 N.3   101  ARG101     -0.1231
    106  CA       -19.1830    9.5790  -16.4000 C.3   101  ARG101      0.1694
    107  C        -20.4550   10.2930  -15.9280 C.2   101  ARG101      0.2592
    108  O        -21.4650    9.6200  -15.6520 O.2   101  ARG101     -0.2718
    109  CB       -18.1800    9.5900  -15.2710 C.3   101  ARG101      0.0321
    110  CG       -18.6680    8.8670  -14.0460 C.3   101  ARG101      0.0489
    111  CD       -17.5390    8.7230  -13.0510 C.3   101  ARG101      0.2205
    112  NE       -17.9510    7.9290  -11.9090 N.pl3 101  ARG101     -0.0865
    113  CZ       -18.3270    8.4570  -10.7520 C.cat 101  ARG101      0.5346
    114  NH1      -18.3460    9.7740  -10.6030 N.pl3 101  ARG101      0.1354
    115  NH2      -18.6900    7.6750   -9.7430 N.pl3 101  ARG101      0.1354
    116  N        -20.3930   11.6260  -15.8270 N.am  102  ASP102     -0.1974
    117  CA       -21.5660   12.4530  -15.4570 C.3   102  ASP102      0.1709
    118  C        -22.7220   12.1990  -16.4520 C.2   102  ASP102      0.2293
    119  O        -23.8640   11.9220  -16.0590 O.2   102  ASP102     -0.2864
    120  CB       -21.2370   13.9620  -15.4700 C.3   102  ASP102      0.1436
    121  CG       -20.2880   14.4190  -14.3230 C.2   102  ASP102      0.3671
    122  OD1      -19.6270   15.4900  -14.4870 O.co2 102  ASP102     -0.2456
    123  OD2      -20.2060   13.7270  -13.2920 O.co2 102  ASP102     -0.2456
    124  N         -4.8580    5.8210  -18.2260 N.3   138  ASP138     -0.1239
    125  CA        -6.0420    5.8240  -17.3630 C.3   138  ASP138      0.1674
    126  C         -7.2560    6.3910  -18.1190 C.2   138  ASP138      0.2266
    127  O         -8.0130    7.1970  -17.5920 O.2   138  ASP138     -0.2867
    128  CB        -5.7280    6.6390  -16.0880 C.3   138  ASP138      0.1410
    129  CG        -6.8130    6.5450  -15.0190 C.2   138  ASP138      0.3668
    130  OD1       -6.9540    7.5270  -14.2590 O.co2 138  ASP138     -0.2456
    131  OD2       -7.4950    5.5000  -14.9280 O.co2 138  ASP138     -0.2456
    132  N        -10.7800    6.6350  -19.1350 N.3   140  LYS140     -0.1245
    133  CA       -12.0110    6.2260  -18.4520 C.3   140  LYS140      0.1561
    134  C        -12.9910    7.3870  -18.5750 C.2   140  LYS140      0.2260
    135  O        -12.5900    8.5280  -18.9160 O.2   140  LYS140     -0.2867
    136  CB       -11.7570    5.8880  -16.9600 C.3   140  LYS140      0.0271
    137  CG       -11.2410    7.0700  -16.1360 C.3   140  LYS140      0.0035
    138  CD       -10.7810    6.6390  -14.7450 C.3   140  LYS140      0.0206
    139  CE       -10.5570    7.8690  -13.8470 C.3   140  LYS140      0.1093
    140  NZ       -10.0380    7.4280  -12.5160 N.3   140  LYS140     -0.1314
    141  N        -14.4850    9.3900  -16.4690 N.3   142  ALA142     -0.1231
    142  CA       -14.2560   10.6220  -15.6940 C.3   142  ALA142      0.1694
    143  C        -13.0830   11.4740  -16.2050 C.2   142  ALA142      0.2592
    144  O        -12.8970   12.6340  -15.7760 O.2   142  ALA142     -0.2718
    145  CB       -14.0320   10.3120  -14.2310 C.3   142  ALA142      0.0304
    146  N        -12.2520   10.8860  -17.0620 N.am  143  ASN143     -0.1974
    147  CA       -11.1360   11.6140  -17.6530 C.3   143  ASN143      0.1688
    148  C        -11.4230   12.2160  -19.0230 C.2   143  ASN143      0.2292
    149  O        -10.5170   12.6970  -19.7100 O.2   143  ASN143     -0.2864
    150  CB        -9.8490   10.7440  -17.6730 C.3   143  ASN143      0.1181
    151  CG        -9.1700   10.6960  -16.2890 C.2   143  ASN143      0.2629
    152  OD1       -9.3660   11.6080  -15.4830 O.2   143  ASN143     -0.2716
    153  ND2       -8.3780    9.6450  -16.0140 N.am  143  ASN143     -0.0877
    154  N        -14.1110   15.0330  -20.7820 N.3   145  MET145     -0.1245
    155  CA       -15.2020   15.9700  -20.5350 C.3   145  MET145      0.1570
    156  C        -15.7040   16.5630  -21.8520 C.2   145  MET145      0.2261
    157  O        -14.9710   16.6410  -22.8390 O.2   145  MET145     -0.2867
    158  CB       -14.7750   17.0970  -19.5960 C.3   145  MET145      0.0387
    159  CG       -14.6350   16.6810  -18.1120 C.3   145  MET145      0.0595
    160  SD       -14.0950   18.0640  -17.0780 S.3   145  MET145     -0.1393
    161  CE       -15.6530   18.9000  -16.7530 C.3   145  MET145      0.0692
    162  N         -8.1190   14.4080  -20.1160 N.3   155  MET155     -0.1230
    163  CA        -7.2370   14.8930  -19.0800 C.3   155  MET155      0.1702
    164  C         -6.5710   13.7700  -18.2940 C.2   155  MET155      0.2592
    165  O         -6.9590   12.5970  -18.4180 O.2   155  MET155     -0.2718
    166  CB        -8.0170   15.7990  -18.1320 C.3   155  MET155      0.0401
    167  CG        -9.0400   15.0330  -17.3180 C.3   155  MET155      0.0596
    168  SD       -10.2380   16.2000  -16.6620 S.3   155  MET155     -0.1393
    169  CE       -11.2300   16.4640  -18.1300 C.3   155  MET155      0.0692
    170  N         -5.5710   14.1500  -17.5010 N.am  156  ASP156     -0.1974
    171  CA        -4.8820   13.2410  -16.5470 C.3   156  ASP156      0.1709
    172  C         -4.1130   12.1450  -17.2500 C.2   156  ASP156      0.2293
    173  O         -4.3420   10.9520  -17.0170 O.2   156  ASP156     -0.2864
    174  CB        -5.8670   12.6820  -15.5020 C.3   156  ASP156      0.1436
    175  CG        -6.5270   13.8010  -14.6770 C.2   156  ASP156      0.3671
    176  OD1       -5.9070   14.8850  -14.5410 O.co2 156  ASP156     -0.2456
    177  OD2       -7.6520   13.6010  -14.1540 O.co2 156  ASP156     -0.2456
@<TRIPOS>BOND
     1   157   156    2
     2    89    88   ar
     3   156   155    1
     4    67    68    1
     5    90    88   ar
     6    88    87    1
     7   154   155    1
     8   155   158    1
     9    68    69    1
    10    68    71    1
    11    69    70    2
    12   162   163    1
    13    87    86    1
    14   149   148    2
    15    96    95    1
    16   158   159    1
    17    73    71    1
    18    97    95    1
    19    71    72    1
    20   132   133    1
    21   163   164    1
    22   163   166    1
    23   148   147    1
    24   135   134    2
    25    86    83    1
    26    95    92    1
    27   134   133    1
    28   133   136    1
    29   165   164    2
    30   100   101    2
    31   100    99    1
    32   164   170   am
    33    92    93    1
    34    92    91    1
    35   124   125    1
    36   166   167    1
    37   169   168    1
    38   126   127    2
    39   126   125    1
    40   159   160    1
    41    99    98    1
    42    99   102    1
    43   150   147    1
    44   150   151    1
    45   147   146    1
    46    93    94    2
    47   105   106    1
    48   170   171    1
    49    83    84    1
    50    83    82    1
    51   125   128    1
    52   167   168    1
    53   172   173    2
    54   172   171    1
    55   160   161    1
    56   146   143   am
    57   136   137    1
    58    84    85    2
    59    82    76   am
    60   102   103    1
    61   102   104    1
    62   171   174    1
    63   141   142    1
    64   118   119    2
    65   118   117    1
    66   106   107    1
    67   106   109    1
    68   151   153   am
    69   151   152    2
    70   143   144    2
    71   143   142    1
    72   137   138    1
    73   128   129    1
    74   107   116   am
    75   107   108    2
    76   116   117    1
    77   142   145    1
    78   174   175    1
    79   120   117    1
    80   120   121    1
    81    76    77    2
    82    76    75    1
    83   109   110    1
    84   129   131   ar
    85   129   130   ar
    86    78    75    1
    87    78    79    1
    88   138   139    1
    89   175   176   ar
    90   175   177   ar
    91    75    74    1
    92   122   121   ar
    93   121   123   ar
    94    79    80    1
    95   110   111    1
    96    80    81    1
    97   139   140    1
    98   111   112    1
    99    53    54    1
   100    57    54    1
   101    54    55    1
   102   112   113    2
   103    56    55    2
   104     7     6    1
   105    66    65    1
   106     8     6    1
   107   113   114    1
   108   113   115    1
   109     6     5    1
   110    65    64    1
   111     5     2    1
   112    51    50    1
   113     4     3    2
   114    64    63    1
   115    52    50    1
   116     3     2    1
   117     3     9   am
   118     2     1    1
   119    50    47    1
   120    62    63    1
   121    62    59    1
   122    10     9    1
   123    10    11    1
   124    58    59    1
   125    59    60    1
   126    16    15    2
   127    47    48    1
   128    47    46    1
   129    48    49    2
   130    11    13   am
   131    11    12    2
   132    13    14    1
   133    15    24   am
   134    15    14    1
   135    25    24    1
   136    25    26    1
   137    61    60    2
   138    14    17    1
   139    39    38    1
   140    45    44    1
   141    44    41    1
   142    28    26   am
   143    28    29    1
   144    26    27    2
   145    20    22   ar
   146    20    18   ar
   147    22    23   ar
   148    43    42    2
   149    17    18    1
   150    18    19   ar
   151    23    21   ar
   152    42    41    1
   153    41    40    1
   154    29    30    1
   155    19    21   ar
   156    40    34   am
   157    38    37    1
   158    32    30   am
   159    32    33    1
   160    36    37    1
   161    36    33    1
   162    30    31    2
   163    33    34    1
   164    34    35    2
