@<TRIPOS>MOLECULE
tmp/3f63A00.pdb
 178 174 0 0 0
SMALL
GASTEIGER

@<TRIPOS>ATOM
      1  N         -1.3070   15.3270   40.9250 N.3     6  LEU6       -0.1245
      2  CA        -1.0360   16.2420   42.0320 C.3     6  LEU6        0.1561
      3  C         -2.3020   17.0830   42.2160 C.2     6  LEU6        0.2260
      4  O         -2.9440   17.4500   41.2280 O.2     6  LEU6       -0.2867
      5  CB         0.1440   17.1710   41.7190 C.3     6  LEU6        0.0270
      6  CG         1.5490   16.5450   41.7880 C.3     6  LEU6        0.0019
      7  CD1        2.5960   17.5260   41.2740 C.3     6  LEU6        0.0001
      8  CD2        1.9140   16.0730   43.1990 C.3     6  LEU6        0.0001
      9  N         -2.6090   20.4700   40.2450 N.3     9  SER9       -0.1217
     10  CA        -2.7360   20.4090   38.7960 C.3     9  SER9        0.1889
     11  C         -4.1810   20.5510   38.3080 C.2     9  SER9        0.2288
     12  O         -5.0320   19.6930   38.6060 O.2     9  SER9       -0.2866
     13  CB        -2.1270   19.0930   38.2870 C.3     9  SER9        0.2089
     14  OG        -2.4260   18.8840   36.9250 O.3     9  SER9       -0.2183
     15  N         -5.4800   20.0850   35.1950 N.3    11  PRO11      -0.2116
     16  CA        -6.0310   18.9290   34.4620 C.3    11  PRO11       0.1372
     17  C         -6.3040   17.7070   35.3570 C.2    11  PRO11       0.2244
     18  O         -7.2530   16.9760   35.1000 O.2    11  PRO11      -0.2868
     19  CB        -4.9630   18.6240   33.4020 C.3    11  PRO11       0.0268
     20  CG        -3.7090   19.2510   33.8850 C.3    11  PRO11       0.0207
     21  CD        -4.1420   20.4630   34.7050 C.3    11  PRO11       0.0892
     22  N          6.4500   16.0320   40.2940 N.3    33  LEU33      -0.1231
     23  CA         7.1180   16.4860   39.0680 C.3    33  LEU33       0.1693
     24  C          8.4340   17.2040   39.3680 C.2    33  LEU33       0.2591
     25  O          9.4540   16.9310   38.7310 O.2    33  LEU33      -0.2718
     26  CB         6.1900   17.3930   38.2520 C.3    33  LEU33       0.0284
     27  CG         4.7630   16.8710   37.9960 C.3    33  LEU33       0.0019
     28  CD1        3.9300   17.9050   37.2470 C.3    33  LEU33       0.0001
     29  CD2        4.8020   15.5410   37.2460 C.3    33  LEU33       0.0001
     30  N          8.4120   18.1020   40.3530 N.am   34  MET34      -0.1979
     31  CA         9.6360   18.7860   40.7840 C.3    34  MET34       0.1605
     32  C         10.7330   17.7950   41.2090 C.2    34  MET34       0.2287
     33  O         11.9300   18.1050   41.1080 O.2    34  MET34      -0.2864
     34  CB         9.3470   19.7950   41.9030 C.3    34  MET34       0.0413
     35  CG         8.4030   20.9330   41.5280 C.3    34  MET34       0.0598
     36  SD         9.0180   22.0430   40.2310 S.3    34  MET34      -0.1393
     37  CE         7.5850   23.0950   39.9800 C.3    34  MET34       0.0692
     38  N          7.8580   11.6430   37.4430 N.3    38  HIS38      -0.1241
     39  CA         7.2790   11.4010   36.1210 C.3    38  HIS38       0.1621
     40  C          8.3330   10.9760   35.0860 C.2    38  HIS38       0.2264
     41  O          7.9850   10.5630   33.9740 O.2    38  HIS38      -0.2867
     42  CB         6.5200   12.6500   35.6450 C.3    38  HIS38       0.0745
     43  CG         7.3850   13.8660   35.4860 C.ar   38  HIS38       0.0817
     44  ND1        8.2600   14.2980   36.4620 N.ar   38  HIS38      -0.2268
     45  CD2        7.4930   14.7520   34.4660 C.ar   38  HIS38       0.1154
     46  CE1        8.8780   15.3910   36.0450 C.ar   38  HIS38       0.1986
     47  NE2        8.4300   15.6870   34.8360 N.ar   38  HIS38      -0.2212
     48  N          5.1350   10.4310   27.3160 N.3    49  GLN49      -0.1231
     49  CA         4.9400   11.8800   27.3680 C.3    49  GLN49       0.1698
     50  C          5.1280   12.4390   28.7970 C.2    49  GLN49       0.2592
     51  O          5.0690   13.6540   29.0090 O.2    49  GLN49      -0.2718
     52  CB         3.5740   12.2520   26.7850 C.3    49  GLN49       0.0381
     53  CG         3.4670   13.6790   26.2670 C.3    49  GLN49       0.0905
     54  CD         2.1590   13.9480   25.5370 C.2    49  GLN49       0.2608
     55  OE1        1.5170   13.0350   25.0160 O.2    49  GLN49      -0.2717
     56  NE2        1.7620   15.2040   25.5010 N.am   49  GLN49      -0.0878
     57  N          5.3610   11.5450   29.7660 N.am   50  HIS50      -0.1962
     58  CA         5.7070   11.9310   31.1510 C.3    50  HIS50       0.1787
     59  C          4.9140   13.1280   31.7010 C.2    50  HIS50       0.2620
     60  O          5.4770   14.1690   32.0800 O.2    50  HIS50      -0.2715
     61  CB         7.2350   12.0920   31.3330 C.3    50  HIS50       0.0785
     62  CG         7.8970   13.0360   30.3680 C.ar   50  HIS50       0.0821
     63  ND1        7.6640   14.3960   30.3740 N.ar   50  HIS50      -0.2267
     64  CD2        8.8190   12.8190   29.3960 C.ar   50  HIS50       0.1154
     65  CE1        8.4070   14.9740   29.4450 C.ar   50  HIS50       0.1986
     66  NE2        9.1030   14.0400   28.8250 N.ar   50  HIS50      -0.2212
     67  N          3.5930   12.9890   31.7210 N.am   51  CYS51      -0.1954
     68  CA         2.7350   14.0640   32.1980 C.3    51  CYS51       0.1843
     69  C          1.5920   13.5440   33.0460 C.2    51  CYS51       0.2625
     70  O          1.2160   12.3590   32.9710 O.2    51  CYS51      -0.2714
     71  CB         2.2020   14.8990   31.0300 C.3    51  CYS51       0.0997
     72  SG         1.2580   13.9600   29.8060 S.3    51  CYS51      -0.0797
     73  N          1.0680   14.4320   33.8780 N.am   52  ILE52      -0.1964
     74  CA        -0.0840   14.1220   34.7080 C.3    52  ILE52       0.1712
     75  C         -1.2680   15.0390   34.3470 C.2    52  ILE52       0.2458
     76  O         -1.0700   16.2000   34.0040 O.2    52  ILE52      -0.2730
     77  CB         0.2850   14.1490   36.2240 C.3    52  ILE52       0.0289
     78  CG1        0.8100   15.5300   36.6710 C.3    52  ILE52       0.0022
     79  CG2        1.3030   13.0240   36.5520 C.3    52  ILE52       0.0023
     80  CD1        1.0130   15.6530   38.2040 C.3    52  ILE52       0.0001
     81  N         -2.5060   14.5210   34.4200 N.am   53  PRO53      -0.2727
     82  CA        -2.8760   13.1910   34.9250 C.3    53  PRO53       0.1402
     83  C         -2.5760   12.0350   33.9660 C.2    53  PRO53       0.2269
     84  O         -2.5960   12.2020   32.7400 O.2    53  PRO53      -0.2865
     85  CB        -4.3930   13.3110   35.1100 C.3    53  PRO53       0.0296
     86  CG        -4.8140   14.3120   34.0270 C.3    53  PRO53       0.0237
     87  CD        -3.6850   15.3140   34.0020 C.3    53  PRO53       0.0939
     88  N         -3.7730   13.1030   28.8710 N.3    65  GLU65      -0.1231
     89  CA        -4.6000   14.2510   28.4600 C.3    65  GLU65       0.1699
     90  C         -5.9310   14.1740   29.1970 C.2    65  GLU65       0.2593
     91  O         -6.7740   13.2890   28.9310 O.2    65  GLU65      -0.2718
     92  CB        -4.8060   14.3630   26.9420 C.3    65  GLU65       0.0402
     93  CG        -5.9070   15.3850   26.5340 C.3    65  GLU65       0.1161
     94  CD        -5.7030   16.8040   27.0780 C.2    65  GLU65       0.3649
     95  OE1       -6.6610   17.3550   27.6600 O.co2  65  GLU65      -0.2457
     96  OE2       -4.6110   17.3800   26.9070 O.co2  65  GLU65      -0.2457
     97  N         -6.0830   15.0880   30.1450 N.am   66  SER66      -0.1938
     98  CA        -7.2480   15.1200   31.0320 C.3    66  SER66       0.2055
     99  C         -8.5630   15.0640   30.2610 C.2    66  SER66       0.2642
    100  O         -9.4820   14.3780   30.6840 O.2    66  SER66      -0.2714
    101  CB        -7.2020   16.3670   31.9140 C.3    66  SER66       0.2130
    102  OG        -7.2580   17.5540   31.1360 O.3    66  SER66      -0.2179
    103  N         -8.6450   15.7570   29.1190 N.am   67  ARG67      -0.1977
    104  CA        -9.9350   15.8850   28.4330 C.3    67  ARG67       0.1597
    105  C        -10.2900   14.6060   27.6780 C.2    67  ARG67       0.2287
    106  O        -11.4670   14.2840   27.5220 O.2    67  ARG67      -0.2864
    107  CB        -9.9890   17.1560   27.5700 C.3    67  ARG67       0.0334
    108  CG        -9.8170   18.4290   28.4380 C.3    67  ARG67       0.0492
    109  CD        -9.2620   19.5960   27.6400 C.3    67  ARG67       0.2205
    110  NE        -8.8740   20.7320   28.5000 N.pl3  67  ARG67      -0.0865
    111  CZ        -7.6680   20.8640   29.0630 C.cat  67  ARG67       0.5346
    112  NH1       -6.7300   19.9280   28.8790 N.pl3  67  ARG67       0.1354
    113  NH2       -7.3920   21.9320   29.8090 N.pl3  67  ARG67       0.1354
    114  N         -7.9110   23.8440   26.6150 N.3   107  VAL107     -0.1245
    115  CA        -6.5040   23.4110   26.5640 C.3   107  VAL107      0.1561
    116  C         -5.6030   24.3860   25.7910 C.2   107  VAL107      0.2260
    117  O         -4.4820   24.6640   26.2360 O.2   107  VAL107     -0.2867
    118  CB        -6.3510   21.9490   26.0240 C.3   107  VAL107      0.0252
    119  CG1       -6.5670   21.8730   24.5100 C.3   107  VAL107      0.0019
    120  CG2       -4.9780   21.4010   26.3870 C.3   107  VAL107      0.0019
    121  N         -6.3780   27.7070   29.3610 N.3   111  TYR111     -0.1241
    122  CA        -5.2870   27.2590   30.2300 C.3   111  TYR111      0.1605
    123  C         -3.9290   27.6370   29.6290 C.2   111  TYR111      0.2264
    124  O         -3.0340   28.0490   30.3690 O.2   111  TYR111     -0.2867
    125  CB        -5.3190   25.7500   30.5600 C.3   111  TYR111      0.0534
    126  CG        -4.3710   25.4760   31.7090 C.ar  111  TYR111     -0.0201
    127  CD1       -4.7600   25.7120   33.0260 C.ar  111  TYR111     -0.0009
    128  CD2       -3.0400   25.1020   31.4690 C.ar  111  TYR111     -0.0009
    129  CE1       -3.8780   25.5330   34.0880 C.ar  111  TYR111      0.0417
    130  CE2       -2.1430   24.9140   32.5190 C.ar  111  TYR111      0.0417
    131  CZ        -2.5680   25.1340   33.8270 C.ar  111  TYR111      0.1957
    132  OH        -1.6900   24.9660   34.8670 O.3   111  TYR111     -0.2866
    133  N          3.4620   31.0890   34.3430 N.3   119  TYR119     -0.1241
    134  CA         4.5870   30.1520   34.5420 C.3   119  TYR119      0.1605
    135  C          5.9610   30.8300   34.6190 C.2   119  TYR119      0.2264
    136  O          6.7580   30.4500   35.4770 O.2   119  TYR119     -0.2867
    137  CB         4.6090   29.0230   33.5040 C.3   119  TYR119      0.0534
    138  CG         3.5980   27.8970   33.7050 C.ar  119  TYR119     -0.0201
    139  CD1        2.4810   28.0420   34.5430 C.ar  119  TYR119     -0.0009
    140  CD2        3.7410   26.7010   33.0110 C.ar  119  TYR119     -0.0009
    141  CE1        1.5530   26.9940   34.6980 C.ar  119  TYR119      0.0417
    142  CE2        2.8220   25.6720   33.1470 C.ar  119  TYR119      0.0417
    143  CZ         1.7390   25.8190   33.9930 C.ar  119  TYR119      0.1957
    144  OH         0.8430   24.7800   34.1100 O.3   119  TYR119     -0.2866
    145  N          7.7070   29.7870   38.0400 N.3   123  PHE123     -0.1241
    146  CA         8.6570   28.6940   37.8150 C.3   123  PHE123      0.1605
    147  C          9.9940   29.2200   37.3090 C.2   123  PHE123      0.2264
    148  O         10.1000   30.3810   36.9020 O.2   123  PHE123     -0.2867
    149  CB         8.0950   27.6620   36.8260 C.3   123  PHE123      0.0534
    150  CG         6.7900   27.0320   37.2570 C.ar  123  PHE123     -0.0203
    151  CD1        5.7500   26.8670   36.3390 C.ar  123  PHE123     -0.0042
    152  CD2        6.6020   26.5960   38.5720 C.ar  123  PHE123     -0.0042
    153  CE1        4.5380   26.2710   36.7190 C.ar  123  PHE123     -0.0003
    154  CE2        5.3970   26.0130   38.9680 C.ar  123  PHE123     -0.0003
    155  CZ         4.3620   25.8480   38.0450 C.ar  123  PHE123     -0.0000
    156  N         -2.3020   24.7790   44.6350 N.3   212  PHE212     -0.1241
    157  CA        -1.5490   25.4450   43.5470 C.3   212  PHE212      0.1605
    158  C         -1.1670   26.8760   43.9100 C.2   212  PHE212      0.2264
    159  O         -0.1670   27.4070   43.4220 O.2   212  PHE212     -0.2867
    160  CB        -2.3070   25.4210   42.2290 C.3   212  PHE212      0.0534
    161  CG        -1.4320   25.6510   41.0270 C.ar  212  PHE212     -0.0203
    162  CD1       -0.5070   24.6860   40.6310 C.ar  212  PHE212     -0.0042
    163  CD2       -1.5210   26.8370   40.2960 C.ar  212  PHE212     -0.0042
    164  CE1        0.3090   24.8840   39.5090 C.ar  212  PHE212     -0.0003
    165  CE2       -0.6990   27.0550   39.1820 C.ar  212  PHE212     -0.0003
    166  CZ         0.2120   26.0720   38.7860 C.ar  212  PHE212     -0.0000
    167  N          2.4210   28.4210   44.8150 N.3   215  TYR215     -0.1241
    168  CA         3.3420   29.0620   43.8710 C.3   215  TYR215      0.1605
    169  C          3.2090   30.5900   43.8290 C.2   215  TYR215      0.2264
    170  O          4.0830   31.2750   43.2830 O.2   215  TYR215     -0.2867
    171  CB         3.1890   28.4630   42.4710 C.3   215  TYR215      0.0534
    172  CG         3.6330   27.0210   42.3910 C.ar  215  TYR215     -0.0201
    173  CD1        4.9550   26.6620   42.6660 C.ar  215  TYR215     -0.0009
    174  CD2        2.7270   26.0130   42.0590 C.ar  215  TYR215     -0.0009
    175  CE1        5.3720   25.3240   42.6010 C.ar  215  TYR215      0.0417
    176  CE2        3.1350   24.6710   41.9880 C.ar  215  TYR215      0.0417
    177  CZ         4.4560   24.3420   42.2620 C.ar  215  TYR215      0.1957
    178  OH         4.8480   23.0210   42.1910 O.3   215  TYR215     -0.2866
@<TRIPOS>BOND
     1   119   118    1
     2    55    54    2
     3    56    54   am
     4    54    53    1
     5   116   117    2
     6   116   115    1
     7   118   120    1
     8   118   115    1
     9    53    52    1
    10    93    92    1
    11    93    94    1
    12   115   114    1
    13    52    49    1
    14    96    94   ar
    15    92    89    1
    16    94    95   ar
    17    48    49    1
    18    49    50    1
    19   106   105    2
    20   107   104    1
    21   107   108    1
    22   109   108    1
    23   109   110    1
    24   105   104    1
    25   104   103    1
    26    89    88    1
    27    89    90    1
    28   110   111    2
    29    50    51    2
    30    50    57   am
    31    66    64   ar
    32    66    65   ar
    33   112   111    1
    34    91    90    2
    35   111   113    1
    36   103    99   am
    37    90    97   am
    38   121   122    1
    39    64    62   ar
    40    65    63   ar
    41   123   122    1
    42   123   124    2
    43    57    58    1
    44    72    71    1
    45    97    98    1
    46   122   125    1
    47    99   100    2
    48    99    98    1
    49    62    63   ar
    50    62    61    1
    51   125   126    1
    52    71    68    1
    53    98   101    1
    54   102   101    1
    55    58    61    1
    56    58    59    1
    57   128   126   ar
    58   128   130   ar
    59    59    67   am
    60    59    60    2
    61   126   127   ar
    62    67    68    1
    63    68    69    1
    64   130   131   ar
    65    84    83    2
    66    70    69    2
    67   140   142   ar
    68   140   138   ar
    69   127   129   ar
    70    69    73   am
    71   142   143   ar
    72    19    20    1
    73    19    16    1
    74   137   138    1
    75   137   134    1
    76   138   139   ar
    77   131   129   ar
    78   131   132    1
    79    73    74    1
    80    20    21    1
    81    83    82    1
    82    41    40    2
    83   143   144    1
    84   143   141   ar
    85    87    86    1
    86    87    81    1
    87    76    75    2
    88    86    85    1
    89   133   134    1
    90    75    81   am
    91    75    74    1
    92    81    82    1
    93    16    15    1
    94    16    17    1
    95    45    47   ar
    96    45    43   ar
    97   134   135    1
    98   139   141   ar
    99   135   136    2
   100    21    15    1
   101    74    77    1
   102    47    46   ar
   103    82    85    1
   104    40    39    1
   105    18    17    2
   106    43    42    1
   107    43    44   ar
   108    42    39    1
   109    46    44   ar
   110    39    38    1
   111    77    79    1
   112    77    78    1
   113   151   153   ar
   114   151   150   ar
   115    78    80    1
   116   153   155   ar
   117   149   150    1
   118   149   146    1
   119   148   147    2
   120    14    13    1
   121    29    27    1
   122    28    27    1
   123   150   152   ar
   124   147   146    1
   125   146   145    1
   126    27    26    1
   127   155   154   ar
   128    26    23    1
   129    13    10    1
   130    11    12    2
   131    11    10    1
   132   152   154   ar
   133    25    24    2
   134   166   165   ar
   135   166   164   ar
   136    10     9    1
   137    23    24    1
   138    23    22    1
   139   165   163   ar
   140    24    30   am
   141   164   162   ar
   142    37    36    1
   143    36    35    1
   144   163   161   ar
   145    30    31    1
   146   162   161   ar
   147    31    32    1
   148    31    34    1
   149     1     2    1
   150   161   160    1
   151    33    32    2
   152     4     3    2
   153     7     6    1
   154    35    34    1
   155     5     6    1
   156     5     2    1
   157     6     8    1
   158   176   174   ar
   159   176   177   ar
   160     2     3    1
   161   174   172   ar
   162   178   177    1
   163   160   157    1
   164   177   175   ar
   165   172   171    1
   166   172   173   ar
   167   171   168    1
   168   175   173   ar
   169   170   169    2
   170   159   158    2
   171   157   158    1
   172   157   156    1
   173   169   168    1
   174   168   167    1
