@<TRIPOS>MOLECULE
tmp/3f64A00.pdb
 99 96 0 0 0
SMALL
GASTEIGER

@<TRIPOS>ATOM
      1  N         32.5780   44.9260   16.5050 N.3    36  ALA36      -0.1231
      2  CA        33.7720   45.5810   15.9940 C.3    36  ALA36       0.1694
      3  C         34.9840   45.5140   16.9460 C.2    36  ALA36       0.2592
      4  O         36.1050   45.8230   16.5480 O.2    36  ALA36      -0.2718
      5  CB        33.4670   47.0370   15.6390 C.3    36  ALA36       0.0304
      6  N         34.7610   45.1210   18.2010 N.am   37  ASN37      -0.1974
      7  CA        35.8120   45.2460   19.2260 C.3    37  ASN37       0.1688
      8  C         36.0450   43.9500   20.0070 C.2    37  ASN37       0.2292
      9  O         35.5510   43.7970   21.1270 O.2    37  ASN37      -0.2864
     10  CB        35.4670   46.4090   20.1780 C.3    37  ASN37       0.1181
     11  CG        35.0590   47.6840   19.4270 C.2    37  ASN37       0.2629
     12  OD1       33.8760   48.0910   19.4340 O.2    37  ASN37      -0.2716
     13  ND2       36.0200   48.3090   18.7730 N.am   37  ASN37      -0.0877
     14  N         35.4870   39.5020    8.7890 N.3    81  ASP81      -0.1225
     15  CA        35.7250   40.7870    9.4590 C.3    81  ASP81       0.1805
     16  C         34.3940   41.4090    9.8940 C.2    81  ASP81       0.2598
     17  O         33.3230   40.9500    9.5150 O.2    81  ASP81      -0.2718
     18  CB        36.4670   41.7150    8.5000 C.3    81  ASP81       0.1424
     19  CG        37.1190   42.9180    9.1880 C.2    81  ASP81       0.3668
     20  OD1       37.3660   42.8650   10.4150 O.co2  81  ASP81      -0.2456
     21  OD2       37.3810   43.9240    8.4740 O.co2  81  ASP81      -0.2456
     22  N         34.4790   42.4720   10.6860 N.am   82  THR82      -0.1939
     23  CA        33.3180   43.0960   11.2990 C.3    82  THR82       0.2028
     24  C         32.1360   43.3720   10.3650 C.2    82  THR82       0.2642
     25  O         31.0080   42.9840   10.6640 O.2    82  THR82      -0.2714
     26  CB        33.7490   44.4210   11.9150 C.3    82  THR82       0.1808
     27  OG1       34.8810   44.1840   12.7560 O.3    82  THR82      -0.2208
     28  CG2       32.6090   45.0590   12.6900 C.3    82  THR82       0.0379
     29  N         32.3870   44.0480    9.2470 N.am   83  LYS83      -0.1977
     30  CA        31.2890   44.4410    8.3500 C.3    83  LYS83       0.1596
     31  C         30.7250   43.2250    7.6060 C.2    83  LYS83       0.2287
     32  O         31.4770   42.4130    7.0770 O.2    83  LYS83      -0.2864
     33  CB        31.7340   45.5400    7.3700 C.3    83  LYS83       0.0298
     34  CG        32.0110   46.8960    8.0040 C.3    83  LYS83       0.0038
     35  CD        32.2220   47.9590    6.9190 C.3    83  LYS83       0.0206
     36  CE        32.8750   49.2380    7.4460 C.3    83  LYS83       0.1093
     37  NZ        32.4450   49.5810    8.8200 N.3    83  LYS83      -0.1314
     38  N         31.7930   41.8370    4.1320 N.3    86  ARG86      -0.1245
     39  CA        33.1080   41.1530    4.0650 C.3    86  ARG86       0.1563
     40  C         33.0990   39.6510    4.4400 C.2    86  ARG86       0.2260
     41  O         34.1560   39.0060    4.4750 O.2    86  ARG86      -0.2867
     42  CB        34.1220   41.8680    4.9560 C.3    86  ARG86       0.0307
     43  CG        34.0960   43.3770    4.8500 C.3    86  ARG86       0.0489
     44  CD        35.2960   43.9060    4.1280 C.3    86  ARG86       0.2205
     45  NE        35.7930   45.0610    4.8670 N.pl3  86  ARG86      -0.0865
     46  CZ        35.3380   46.3020    4.7120 C.cat  86  ARG86       0.5346
     47  NH1       34.3920   46.5730    3.8080 N.pl3  86  ARG86       0.1354
     48  NH2       35.8460   47.2750    5.4490 N.pl3  86  ARG86       0.1354
     49  N         39.4300   36.1870    6.8270 N.3    99  PHE99      -0.1241
     50  CA        39.8430   37.5880    6.7040 C.3    99  PHE99       0.1605
     51  C         41.3470   37.6220    6.5430 C.2    99  PHE99       0.2264
     52  O         42.0990   37.2400    7.4520 O.2    99  PHE99      -0.2867
     53  CB        39.3910   38.4340    7.9180 C.3    99  PHE99       0.0534
     54  CG        39.9110   39.8670    7.9190 C.ar   99  PHE99      -0.0203
     55  CD1       39.8080   40.6780    6.7850 C.ar   99  PHE99      -0.0042
     56  CD2       40.4570   40.4200    9.0780 C.ar   99  PHE99      -0.0042
     57  CE1       40.2770   42.0080    6.7950 C.ar   99  PHE99      -0.0003
     58  CE2       40.9240   41.7430    9.1020 C.ar   99  PHE99      -0.0003
     59  CZ        40.8250   42.5490    7.9650 C.ar   99  PHE99      -0.0000
     60  N         45.0340   42.8210    8.4840 N.3   102  TRP102     -0.1241
     61  CA        45.6330   44.1410    8.3540 C.3   102  TRP102      0.1605
     62  C         46.6120   44.3860    9.4810 C.2   102  TRP102      0.2264
     63  O         46.7060   43.5900   10.4100 O.2   102  TRP102     -0.2867
     64  CB        44.5440   45.2120    8.3940 C.3   102  TRP102      0.0550
     65  CG        43.8900   45.4130    9.7440 C.ar  102  TRP102      0.0003
     66  CD1       43.1780   44.4910   10.4740 C.ar  102  TRP102      0.0946
     67  CD2       43.8550   46.6280   10.4950 C.ar  102  TRP102      0.0152
     68  NE1       42.7210   45.0620   11.6400 N.ar  102  TRP102     -0.2442
     69  CE2       43.1220   46.3750   11.6710 C.ar  102  TRP102      0.0810
     70  CE3       44.3850   47.9130   10.2870 C.ar  102  TRP102      0.0012
     71  CZ2       42.9000   47.3580   12.6360 C.ar  102  TRP102      0.0191
     72  CZ3       44.1590   48.8880   11.2510 C.ar  102  TRP102      0.0001
     73  CH2       43.4230   48.6060   12.4020 C.ar  102  TRP102      0.0015
     74  N         44.0260   50.3760   17.9160 N.3   110  SER110     -0.1202
     75  CA        42.7150   50.1810   17.3170 C.3   110  SER110      0.2020
     76  C         42.1510   48.8640   17.8290 C.2   110  SER110      0.2619
     77  O         42.5960   48.3630   18.8740 O.2   110  SER110     -0.2717
     78  CB        42.8080   50.1970   15.7860 C.3   110  SER110      0.2103
     79  OG        41.5100   50.1790   15.1910 O.3   110  SER110     -0.2182
     80  N         41.1780   48.3070   17.1020 N.am  111  THR111     -0.1938
     81  CA        40.5900   47.0150   17.4500 C.3   111  THR111      0.2028
     82  C         40.4060   46.1170   16.2130 C.2   111  THR111      0.2642
     83  O         40.3500   46.6000   15.0720 O.2   111  THR111     -0.2714
     84  CB        39.2090   47.1500   18.1490 C.3   111  THR111      0.1808
     85  OG1       38.3020   47.8500   17.2860 O.3   111  THR111     -0.2208
     86  CG2       39.3030   47.8750   19.5170 C.3   111  THR111      0.0379
     87  N         40.3040   44.8160   16.4600 N.am  112  GLN112     -0.1963
     88  CA        39.9440   43.8210   15.4390 C.3   112  GLN112      0.1733
     89  C         38.5960   43.2220   15.8410 C.2   112  GLN112      0.2616
     90  O         38.4000   42.8610   16.9990 O.2   112  GLN112     -0.2715
     91  CB        41.0210   42.7260   15.3760 C.3   112  GLN112      0.0408
     92  CG        40.6990   41.5680   14.4210 C.3   112  GLN112      0.0908
     93  CD        40.5280   42.0390   12.9700 C.2   112  GLN112      0.2608
     94  OE1       41.3740   42.7520   12.4310 O.2   112  GLN112     -0.2717
     95  NE2       39.4470   41.6150   12.3360 N.am  112  GLN112     -0.0878
     96  N         37.6520   43.1610   14.9060 N.am  113  GLY113     -0.1955
     97  CA        36.3190   42.6590   15.2220 C.3   113  GLY113      0.1869
     98  C         35.9990   41.4960   14.3170 C.2   113  GLY113      0.2309
     99  O         36.8980   40.9300   13.6790 O.2   113  GLY113     -0.2863
@<TRIPOS>BOND
     1    47    46    1
     2    39    38    1
     3    39    40    1
     4    39    42    1
     5    44    43    1
     6    44    45    1
     7    40    41    2
     8    46    45    2
     9    46    48    1
    10    43    42    1
    11    51    50    1
    12    51    52    2
    13    50    49    1
    14    50    53    1
    15    55    57   ar
    16    55    54   ar
    17    57    59   ar
    18    35    36    1
    19    35    34    1
    20    32    31    2
    21    33    34    1
    22    33    30    1
    23    36    37    1
    24    31    30    1
    25    53    54    1
    26    54    56   ar
    27    59    58   ar
    28    30    29    1
    29    61    64    1
    30    61    60    1
    31    61    62    1
    32    64    65    1
    33    21    19   ar
    34    18    19    1
    35    18    15    1
    36    14    15    1
    37    56    58   ar
    38    19    20   ar
    39    29    24   am
    40    15    16    1
    41    62    63    2
    42    17    16    2
    43    65    66   ar
    44    65    67   ar
    45    16    22   am
    46    70    67   ar
    47    70    72   ar
    48    24    25    2
    49    24    23    1
    50    66    68   ar
    51    67    69   ar
    52    22    23    1
    53    72    73   ar
    54    23    26    1
    55    68    69   ar
    56    69    71   ar
    57    26    28    1
    58    26    27    1
    59    95    93   am
    60    73    71   ar
    61    94    93    2
    62    93    92    1
    63    99    98    2
    64    98    97    1
    65    92    91    1
    66    96    97    1
    67    96    89   am
    68    83    82    2
    69    79    78    1
    70    91    88    1
    71    88    89    1
    72    88    87    1
    73     5     2    1
    74    78    75    1
    75    89    90    2
    76     2     1    1
    77     2     3    1
    78    82    87   am
    79    82    81    1
    80     4     3    2
    81     3     6   am
    82    80    81    1
    83    80    76   am
    84    85    84    1
    85    75    76    1
    86    75    74    1
    87    81    84    1
    88    76    77    2
    89    84    86    1
    90     6     7    1
    91    13    11   am
    92     7     8    1
    93     7    10    1
    94    11    12    2
    95    11    10    1
    96     8     9    2
