@<TRIPOS>MOLECULE
tmp/3f66B00.pdb
 156 149 0 0 0
SMALL
GASTEIGER

@<TRIPOS>ATOM
      1  N        -18.1830   -1.8580   -5.3880 N.3    23  ILE23      -0.1231
      2  CA       -17.3260   -1.6500   -4.2330 C.3    23  ILE23       0.1692
      3  C        -16.5810   -0.3400   -4.4250 C.2    23  ILE23       0.2593
      4  O        -16.4980    0.4780   -3.5140 O.2    23  ILE23      -0.2718
      5  CB       -16.3330   -2.8280   -3.9970 C.3    23  ILE23       0.0266
      6  CG1      -17.0950   -4.1260   -3.6650 C.3    23  ILE23       0.0019
      7  CG2      -15.3440   -2.4610   -2.8650 C.3    23  ILE23       0.0020
      8  CD1      -16.2310   -5.3560   -3.6460 C.3    23  ILE23       0.0001
      9  N        -16.0570   -0.1400   -5.6220 N.am   24  GLY24      -0.1942
     10  CA       -15.2260    1.0030   -5.9310 C.3    24  GLY24       0.2014
     11  C        -14.7110    1.0320   -7.3540 C.2    24  GLY24       0.2638
     12  O        -14.9530    0.1270   -8.1310 O.2    24  GLY24      -0.2714
     13  N        -13.9350    2.0730   -7.6660 N.am   25  ARG25      -0.1977
     14  CA       -13.5420    2.3980   -9.0380 C.3    25  ARG25       0.1597
     15  C        -12.0630    2.7870   -9.1590 C.2    25  ARG25       0.2287
     16  O        -11.5590    3.5300   -8.3170 O.2    25  ARG25      -0.2864
     17  CB       -14.3960    3.5930   -9.5010 C.3    25  ARG25       0.0334
     18  CG       -14.5790    3.7420  -11.0000 C.3    25  ARG25       0.0492
     19  CD       -15.5810    4.8780  -11.2910 C.3    25  ARG25       0.2205
     20  NE       -16.1280    4.8090  -12.6460 N.pl3  25  ARG25      -0.0865
     21  CZ       -16.8710    5.7590  -13.2110 C.cat  25  ARG25       0.5346
     22  NH1      -17.1630    6.8760  -12.5480 N.pl3  25  ARG25       0.1354
     23  NH2      -17.3260    5.5920  -14.4490 N.pl3  25  ARG25       0.1354
     24  N        -14.7110   -2.2460   -9.5290 N.3    31  VAL31      -0.1245
     25  CA       -14.5600   -3.3500   -8.5770 C.3    31  VAL31       0.1561
     26  C        -15.9330   -3.6430   -7.9770 C.2    31  VAL31       0.2260
     27  O        -16.6220   -2.7380   -7.4590 O.2    31  VAL31      -0.2867
     28  CB       -13.5630   -3.0290   -7.4290 C.3    31  VAL31       0.0252
     29  CG1      -13.3320   -4.2480   -6.5600 C.3    31  VAL31       0.0019
     30  CG2      -12.2740   -2.5690   -7.9800 C.3    31  VAL31       0.0019
     31  N        -13.9830   -9.9220   -4.3100 N.3    43  ALA43      -0.1245
     32  CA       -14.0160   -8.6400   -5.0210 C.3    43  ALA43       0.1562
     33  C        -13.5500   -8.9620   -6.4280 C.2    43  ALA43       0.2260
     34  O        -12.5850   -9.7250   -6.5990 O.2    43  ALA43      -0.2867
     35  CB       -13.0730   -7.6690   -4.3800 C.3    43  ALA43       0.0290
     36  N        -12.5440   -7.3000  -10.1810 N.3    45  LYS45      -0.1245
     37  CA       -12.1750   -6.1500  -10.9710 C.3    45  LYS45       0.1561
     38  C        -12.1640   -6.4650  -12.4590 C.2    45  LYS45       0.2260
     39  O        -11.5070   -7.4050  -12.9200 O.2    45  LYS45      -0.2867
     40  CB       -10.7960   -5.6320  -10.5980 C.3    45  LYS45       0.0271
     41  CG       -10.4400   -4.3770  -11.3890 C.3    45  LYS45       0.0035
     42  CD        -9.3740   -3.5610  -10.7310 C.3    45  LYS45       0.0206
     43  CE        -9.1710   -2.2620  -11.4390 C.3    45  LYS45       0.1093
     44  NZ        -7.8180   -1.7590  -11.0610 N.3    45  LYS45      -0.1314
     45  N         -1.6140   -8.6490   -0.5320 N.3    69  LEU69      -0.1245
     46  CA        -2.8590   -9.0420   -1.1930 C.3    69  LEU69       0.1561
     47  C         -2.6840  -10.2270   -2.1230 C.2    69  LEU69       0.2260
     48  O         -1.7870  -10.2200   -3.0140 O.2    69  LEU69      -0.2867
     49  CB        -3.4870   -7.8880   -1.9450 C.3    69  LEU69       0.0270
     50  CG        -4.9170   -8.1260   -2.3360 C.3    69  LEU69       0.0019
     51  CD1       -5.8040   -8.1960   -1.1080 C.3    69  LEU69       0.0001
     52  CD2       -5.4060   -7.0640   -3.3500 C.3    69  LEU69       0.0001
     53  N        -10.1810  -11.1930   -6.5210 N.3    83  LEU83      -0.1231
     54  CA        -9.3870  -10.7630   -5.3630 C.3    83  LEU83       0.1678
     55  C        -10.1590  -10.9530   -4.0660 C.2    83  LEU83       0.2434
     56  O        -11.3830  -11.0040   -4.0890 O.2    83  LEU83      -0.2733
     57  CB        -8.9970   -9.2880   -5.5060 C.3    83  LEU83       0.0284
     58  CG        -8.2500   -8.9330   -6.7980 C.3    83  LEU83       0.0019
     59  CD1       -8.3160   -7.4500   -7.0870 C.3    83  LEU83       0.0001
     60  CD2       -6.8260   -9.3810   -6.6210 C.3    83  LEU83       0.0001
     61  N         -9.4340  -11.0510   -2.9240 N.am   84  PRO84      -0.2718
     62  CA       -10.0770  -11.2460   -1.6210 C.3    84  PRO84       0.1535
     63  C        -10.8130   -9.9950   -1.2280 C.2    84  PRO84       0.2599
     64  O        -10.3360   -8.8970   -1.5120 O.2    84  PRO84      -0.2715
     65  CB        -8.9060  -11.4920   -0.6690 C.3    84  PRO84       0.0310
     66  CG        -7.7130  -11.6510   -1.5140 C.3    84  PRO84       0.0237
     67  CD        -7.9700  -11.0060   -2.8120 C.3    84  PRO84       0.0939
     68  N        -11.9810  -10.1600   -0.6310 N.am   85  TYR85      -0.1960
     69  CA       -12.7330   -9.0310   -0.1080 C.3    85  TYR85       0.1771
     70  C        -12.0670   -8.6090    1.1910 C.2    85  TYR85       0.2619
     71  O        -11.7090   -9.4560    2.0160 O.2    85  TYR85      -0.2715
     72  CB       -14.2150   -9.3970    0.1460 C.3    85  TYR85       0.0574
     73  CG       -15.0440   -8.2650    0.6060 C.ar   85  TYR85      -0.0198
     74  CD1      -15.5330   -7.3470   -0.3080 C.ar   85  TYR85      -0.0009
     75  CD2      -15.3640   -8.0910    1.9600 C.ar   85  TYR85      -0.0009
     76  CE1      -16.2770   -6.3060    0.0810 C.ar   85  TYR85       0.0417
     77  CE2      -16.1220   -7.0450    2.3700 C.ar   85  TYR85       0.0417
     78  CZ       -16.5640   -6.1520    1.4190 C.ar   85  TYR85       0.1957
     79  OH       -17.3300   -5.1060    1.7780 O.3    85  TYR85      -0.2866
     80  N        -11.8730   -7.3040    1.3340 N.am   86  MET86      -0.1963
     81  CA       -11.2710   -6.7070    2.5290 C.3    86  MET86       0.1736
     82  C        -12.2720   -5.9250    3.3470 C.2    86  MET86       0.2616
     83  O        -12.5280   -4.8010    3.0230 O.2    86  MET86      -0.2715
     84  CB       -10.0790   -5.8270    2.0690 C.3    86  MET86       0.0427
     85  CG        -9.0150   -6.5890    1.3600 C.3    86  MET86       0.0599
     86  SD        -7.9630   -7.4540    2.5220 S.3    86  MET86      -0.1393
     87  CE        -7.8920   -9.0950    1.9140 C.3    86  MET86       0.0692
     88  N        -12.7980   -6.4870    4.4450 N.am   87  LYS87      -0.1963
     89  CA       -13.8770   -5.8680    5.2140 C.3    87  LYS87       0.1728
     90  C        -13.7060   -4.4170    5.5100 C.2    87  LYS87       0.2616
     91  O        -14.6600   -3.6160    5.4340 O.2    87  LYS87      -0.2715
     92  CB       -13.9780   -6.6180    6.5340 C.3    87  LYS87       0.0311
     93  CG       -15.0700   -6.1790    7.4740 C.3    87  LYS87       0.0038
     94  CD       -15.1770   -7.1000    8.6630 C.3    87  LYS87       0.0206
     95  CE       -16.3520   -6.7380    9.5810 C.3    87  LYS87       0.1093
     96  NZ       -16.2950   -7.6120   10.8370 N.3    87  LYS87      -0.1314
     97  N        -12.4900   -4.0740    5.9450 N.am   88  HIS88      -0.1959
     98  CA       -12.2330   -2.7600    6.4800 C.3    88  HIS88       0.1787
     99  C        -11.6380   -1.7840    5.4530 C.2    88  HIS88       0.2621
    100  O        -11.2500   -0.6830    5.8040 O.2    88  HIS88      -0.2715
    101  CB       -11.4090   -2.8960    7.7820 C.3    88  HIS88       0.0785
    102  CG       -12.2130   -3.4700    8.9140 C.ar   88  HIS88       0.0821
    103  ND1      -13.3330   -2.8290    9.3990 N.ar   88  HIS88      -0.2267
    104  CD2      -12.1180   -4.6450    9.5920 C.ar   88  HIS88       0.1154
    105  CE1      -13.8520   -3.5630   10.3790 C.ar   88  HIS88       0.1986
    106  NE2      -13.1680   -4.6930   10.4710 N.ar   88  HIS88      -0.2212
    107  N        -11.5680   -2.1880    4.1840 N.am   89  GLY89      -0.1940
    108  CA       -11.2220   -1.2890    3.0960 C.3    89  GLY89       0.2014
    109  C         -9.7430   -0.9000    3.0760 C.2    89  GLY89       0.2638
    110  O         -8.8920   -1.6460    3.5200 O.2    89  GLY89      -0.2714
    111  N         -9.4390    0.2710    2.5190 N.am   90  ASP90      -0.1971
    112  CA        -8.0880    0.7740    2.5230 C.3    90  ASP90       0.1709
    113  C         -7.6940    1.3280    3.8720 C.2    90  ASP90       0.2293
    114  O         -8.5070    1.8930    4.6330 O.2    90  ASP90      -0.2864
    115  CB        -7.8470    1.7910    1.4200 C.3    90  ASP90       0.1436
    116  CG        -8.4460    3.1220    1.7180 C.2    90  ASP90       0.3671
    117  OD1       -9.6220    3.2990    1.3920 O.co2  90  ASP90      -0.2456
    118  OD2       -7.7260    3.9930    2.2650 O.co2  90  ASP90      -0.2456
    119  N         -8.3170    5.2760    4.6570 N.3    93  ASN93      -0.1240
    120  CA        -9.7120    5.5330    5.0280 C.3    93  ASN93       0.1653
    121  C        -10.0620    4.9780    6.4300 C.2    93  ASN93       0.2266
    122  O        -10.7390    5.6110    7.1940 O.2    93  ASN93      -0.2867
    123  CB       -10.6270    4.9880    3.9600 C.3    93  ASN93       0.1155
    124  CG       -10.9350    6.0120    2.8640 C.2    93  ASN93       0.2627
    125  OD1      -10.8640    5.6970    1.6760 O.2    93  ASN93      -0.2716
    126  ND2      -11.2860    7.2330    3.2630 N.am   93  ASN93      -0.0877
    127  N         -4.6280   -2.5800    2.2680 N.3   137  MET137     -0.1245
    128  CA        -5.9940   -2.9340    2.6740 C.3   137  MET137      0.1570
    129  C         -5.9980   -3.6050    4.0220 C.2   137  MET137      0.2261
    130  O         -4.9550   -4.0820    4.4790 O.2   137  MET137     -0.2867
    131  CB        -6.6530   -3.8660    1.6610 C.3   137  MET137      0.0387
    132  CG        -6.6190   -3.4190    0.2010 C.3   137  MET137      0.0595
    133  SD        -7.5580   -1.9010   -0.0660 S.3   137  MET137     -0.1393
    134  CE        -9.1790   -2.6130    0.0050 C.3   137  MET137      0.0692
    135  N         -1.3870   -3.7350   -1.1920 N.3   147  ALA147     -0.1245
    136  CA        -2.1870   -3.9680   -2.3990 C.3   147  ALA147      0.1562
    137  C         -1.7110   -3.1020   -3.5650 C.2   147  ALA147      0.2260
    138  O         -0.5140   -2.7380   -3.6300 O.2   147  ALA147     -0.2867
    139  CB        -3.6700   -3.7260   -2.0650 C.3   147  ALA147      0.0290
    140  N         -3.8960   -5.8280   -9.6440 N.3   152  ALA152     -0.1245
    141  CA        -4.6470   -4.8040   -8.9070 C.3   152  ALA152      0.1562
    142  C         -4.1100   -3.3750   -9.0550 C.2   152  ALA152      0.2260
    143  O         -4.6950   -2.4560   -8.4950 O.2   152  ALA152     -0.2867
    144  CB        -4.7160   -5.1740   -7.4590 C.3   152  ALA152      0.0290
    145  N         -6.5150    4.8070   -7.8640 N.3   156  TYR156     -0.1241
    146  CA        -7.7900    4.7600   -7.1830 C.3   156  TYR156      0.1605
    147  C         -8.1910    6.1220   -6.5770 C.2   156  TYR156      0.2264
    148  O         -9.3690    6.4020   -6.4880 O.2   156  TYR156     -0.2867
    149  CB        -7.7820    3.6530   -6.1000 C.3   156  TYR156      0.0534
    150  CG        -7.6400    2.2470   -6.6440 C.ar  156  TYR156     -0.0201
    151  CD1       -8.7380    1.5560   -7.1590 C.ar  156  TYR156     -0.0009
    152  CD2       -6.4040    1.5980   -6.6200 C.ar  156  TYR156     -0.0009
    153  CE1       -8.5790    0.2390   -7.6730 C.ar  156  TYR156      0.0417
    154  CE2       -6.2490    0.3230   -7.0910 C.ar  156  TYR156      0.0417
    155  CZ        -7.3350   -0.3620   -7.6160 C.ar  156  TYR156      0.1957
    156  OH        -7.1570   -1.6400   -8.1100 O.3   156  TYR156     -0.2866
@<TRIPOS>BOND
     1    23    21    1
     2    21    20    2
     3    21    22    1
     4    39    38    2
     5    20    19    1
     6    38    37    1
     7    43    44    1
     8    43    42    1
     9    41    42    1
    10    41    40    1
    11    19    18    1
    12    18    17    1
    13    37    40    1
    14    37    36    1
    15   140   141    1
    16    24    25    1
    17    17    14    1
    18    15    14    1
    19    15    16    2
    20   142   141    1
    21   142   143    2
    22    14    13    1
    23   141   144    1
    24    25    26    1
    25    25    28    1
    26    12    11    2
    27   156   155    1
    28    30    28    1
    29    26    27    2
    30   145   146    1
    31   153   155   ar
    32   153   151   ar
    33    13    11   am
    34   155   154   ar
    35    28    29    1
    36    11    10    1
    37   146   147    1
    38   146   149    1
    39   151   150   ar
    40   154   152   ar
    41    59    58    1
    42    58    60    1
    43    58    57    1
    44   150   152   ar
    45   150   149    1
    46    34    33    2
    47   147   148    2
    48    53    54    1
    49    33    32    1
    50    10     9    1
    51     9     3   am
    52    57    54    1
    53     1     2    1
    54    54    55    1
    55    32    35    1
    56    32    31    1
    57     3     2    1
    58     3     4    2
    59     2     5    1
    60    56    55    2
    61    55    61   am
    62     5     6    1
    63     5     7    1
    64     6     8    1
    65   138   137    2
    66   137   136    1
    67    52    50    1
    68    48    47    2
    69    61    67    1
    70    61    62    1
    71    67    66    1
    72   136   139    1
    73   136   135    1
    74    50    49    1
    75    50    51    1
    76    47    46    1
    77    49    46    1
    78    62    63    1
    79    62    65    1
    80    66    65    1
    81    64    63    2
    82    63    68   am
    83    46    45    1
    84    68    69    1
    85    74    76   ar
    86    74    73   ar
    87    69    72    1
    88    69    70    1
    89   133   134    1
    90   133   132    1
    91    76    78   ar
    92    72    73    1
    93   132   131    1
    94    73    75   ar
    95    70    80   am
    96    70    71    2
    97    80    81    1
    98    85    84    1
    99    85    86    1
   100   117   116   ar
   101    78    79    1
   102    78    77   ar
   103   115   116    1
   104   115   112    1
   105   131   128    1
   106   125   124    2
   107   116   118   ar
   108    87    86    1
   109    75    77   ar
   110    84    81    1
   111   127   128    1
   112   111   112    1
   113   111   109   am
   114   112   113    1
   115    81    82    1
   116   128   129    1
   117   124   126   am
   118   124   123    1
   119    83    82    2
   120   109   108    1
   121   109   110    2
   122   108   107    1
   123    82    88   am
   124   113   114    2
   125   123   120    1
   126   129   130    2
   127   107    99   am
   128    88    89    1
   129   119   120    1
   130   120   121    1
   131    89    90    1
   132    89    92    1
   133    91    90    2
   134    99   100    2
   135    99    98    1
   136    90    97   am
   137    97    98    1
   138   121   122    2
   139    98   101    1
   140    92    93    1
   141    93    94    1
   142   101   102    1
   143    94    95    1
   144   102   103   ar
   145   102   104   ar
   146   103   105   ar
   147    95    96    1
   148   104   106   ar
   149   105   106   ar
