@<TRIPOS>MOLECULE
tmp/3f68B01.pdb
 214 215 0 0 0
SMALL
GASTEIGER

@<TRIPOS>ATOM
      1  N         22.6520   -6.0430   18.3580 N.3    43  HIS43      -0.1241
      2  CA        22.5510   -7.4150   17.8520 C.3    43  HIS43       0.1621
      3  C         21.8090   -7.4900   16.5220 C.2    43  HIS43       0.2264
      4  O         21.9070   -8.5410   15.8700 O.2    43  HIS43      -0.2867
      5  CB        21.9000   -8.3560   18.8700 C.3    43  HIS43       0.0745
      6  CG        20.4100   -8.3260   18.9690 C.ar   43  HIS43       0.0817
      7  ND1       19.7690   -7.5990   19.9530 N.ar   43  HIS43      -0.2268
      8  CD2       19.4100   -8.9210   18.2620 C.ar   43  HIS43       0.1154
      9  CE1       18.4570   -7.7410   19.8320 C.ar   43  HIS43       0.1986
     10  NE2       18.2090   -8.5410   18.8030 N.ar   43  HIS43      -0.2212
     11  N         25.8950  -10.1550   15.2900 N.3    47  TYR47      -0.1241
     12  CA        25.6810  -11.2700   16.2040 C.3    47  TYR47       0.1605
     13  C         26.3330  -12.5630   15.7060 C.2    47  TYR47       0.2264
     14  O         25.7060  -13.4840   15.1720 O.2    47  TYR47      -0.2867
     15  CB        24.1830  -11.4320   16.4560 C.3    47  TYR47       0.0534
     16  CG        23.8750  -12.3520   17.6170 C.ar   47  TYR47      -0.0201
     17  CD1       24.2730  -12.0120   18.9010 C.ar   47  TYR47      -0.0009
     18  CD2       23.2050  -13.5450   17.4050 C.ar   47  TYR47      -0.0009
     19  CE1       23.9830  -12.8720   19.9590 C.ar   47  TYR47       0.0417
     20  CE2       22.9160  -14.4080   18.4520 C.ar   47  TYR47       0.0417
     21  CZ        23.3160  -14.0470   19.7260 C.ar   47  TYR47       0.1957
     22  OH        23.0420  -14.8950   20.7710 O.3    47  TYR47      -0.2866
     23  N         25.1430  -16.2300   15.0360 N.3    50  TRP50      -0.1241
     24  CA        24.1840  -16.5280   13.9700 C.3    50  TRP50       0.1605
     25  C         24.7800  -16.1510   12.6170 C.2    50  TRP50       0.2264
     26  O         24.0780  -16.0600   11.6090 O.2    50  TRP50      -0.2867
     27  CB        22.8600  -15.7800   14.1570 C.3    50  TRP50       0.0550
     28  CG        22.0490  -16.3800   15.2720 C.ar   50  TRP50       0.0003
     29  CD1       22.3420  -17.5120   15.9840 C.ar   50  TRP50       0.0946
     30  CD2       20.8170  -15.8840   15.8060 C.ar   50  TRP50       0.0152
     31  NE1       21.3710  -17.7570   16.9290 N.ar   50  TRP50      -0.2442
     32  CE2       20.4240  -16.7660   16.8350 C.ar   50  TRP50       0.0810
     33  CE3       20.0120  -14.7790   15.5110 C.ar   50  TRP50       0.0012
     34  CZ2       19.2560  -16.5740   17.5700 C.ar   50  TRP50       0.0191
     35  CZ3       18.8540  -14.5910   16.2430 C.ar   50  TRP50       0.0001
     36  CH2       18.4880  -15.4820   17.2600 C.ar   50  TRP50       0.0015
     37  N         25.7960  -13.3030   11.9540 N.3    52  LYS52      -0.1245
     38  CA        25.1620  -12.0360   11.5660 C.3    52  LYS52       0.1561
     39  C         26.1810  -10.9180   11.7410 C.2    52  LYS52       0.2260
     40  O         26.6480  -10.6460   12.8420 O.2    52  LYS52      -0.2867
     41  CB        23.8830  -11.7960   12.3640 C.3    52  LYS52       0.0271
     42  CG        22.8950  -10.8330   11.7290 C.3    52  LYS52       0.0035
     43  CD        22.1930   -9.9520   12.7460 C.3    52  LYS52       0.0206
     44  CE        20.7100  -10.2720   12.8190 C.3    52  LYS52       0.1093
     45  NZ        20.3390  -10.9700   14.0800 N.3    52  LYS52      -0.1314
     46  N         28.1730   -9.3810   23.0160 N.3    92  TRP92      -0.1227
     47  CA        27.3510  -10.3930   22.3560 C.3    92  TRP92       0.1737
     48  C         27.7380  -11.7810   22.8560 C.2    92  TRP92       0.2595
     49  O         27.0060  -12.7360   22.5990 O.2    92  TRP92      -0.2718
     50  CB        27.5480  -10.3610   20.8530 C.3    92  TRP92       0.0564
     51  CG        28.9810  -10.4150   20.3890 C.ar   92  TRP92       0.0003
     52  CD1       29.7500   -9.2980   20.1700 C.ar   92  TRP92       0.0946
     53  CD2       29.8170  -11.5420   20.0940 C.ar   92  TRP92       0.0152
     54  NE1       31.0110   -9.6600   19.7540 N.ar   92  TRP92      -0.2442
     55  CE2       31.0760  -11.0370   19.7000 C.ar   92  TRP92       0.0810
     56  CE3       29.6700  -12.9290   20.1090 C.ar   92  TRP92       0.0012
     57  CZ2       32.1360  -11.8720   19.3380 C.ar   92  TRP92       0.0191
     58  CZ3       30.7110  -13.7720   19.7520 C.ar   92  TRP92       0.0001
     59  CH2       31.9430  -13.2310   19.3670 C.ar   92  TRP92       0.0015
     60  N         28.8950  -11.8680   23.5300 N.am   93  ARG93      -0.1966
     61  CA        29.3670  -13.1830   23.9690 C.3    93  ARG93       0.1729
     62  C         28.5480  -13.7950   25.0940 C.2    93  ARG93       0.2616
     63  O         28.1730  -14.9700   25.0940 O.2    93  ARG93      -0.2715
     64  CB        30.8300  -13.0740   24.4310 C.3    93  ARG93       0.0348
     65  CG        31.7990  -13.0780   23.2630 C.3    93  ARG93       0.0492
     66  CD        33.2450  -13.2350   23.7150 C.3    93  ARG93       0.2205
     67  NE        34.1200  -12.9870   22.5600 N.pl3  93  ARG93      -0.0865
     68  CZ        34.6390  -14.0070   21.8720 C.cat  93  ARG93       0.5346
     69  NH1       34.3600  -15.2470   22.2520 N.pl3  93  ARG93       0.1354
     70  NH2       35.4230  -13.7620   20.8340 N.pl3  93  ARG93       0.1354
     71  N         28.2540  -12.9940   26.1170 N.am   94  GLU94      -0.1963
     72  CA        27.5790  -13.5610   27.2720 C.3    94  GLU94       0.1733
     73  C         26.1250  -13.1450   27.4090 C.2    94  GLU94       0.2616
     74  O         25.2400  -14.0020   27.5030 O.2    94  GLU94      -0.2715
     75  CB        28.3420  -13.1470   28.5310 C.3    94  GLU94       0.0429
     76  CG        27.7840  -13.8650   29.7590 C.3    94  GLU94       0.1163
     77  CD        28.0510  -13.0550   31.0170 C.2    94  GLU94       0.3649
     78  OE1       28.9420  -12.1780   30.9700 O.co2  94  GLU94      -0.2457
     79  OE2       27.3610  -13.3010   32.0240 O.co2  94  GLU94      -0.2457
     80  N         25.8250  -11.8410   27.4260 N.am   95  ASN95      -0.1958
     81  CA        24.4320  -11.4890   27.7410 C.3    95  ASN95       0.1819
     82  C         23.8330  -10.3260   26.9770 C.2    95  ASN95       0.2621
     83  O         22.7450   -9.8650   27.3680 O.2    95  ASN95      -0.2715
     84  CB        24.4000  -11.2020   29.2480 C.3    95  ASN95       0.1195
     85  CG        25.3400  -10.1060   29.6870 C.2    95  ASN95       0.2630
     86  OD1       26.0130   -9.4480   28.8850 O.2    95  ASN95      -0.2716
     87  ND2       25.3870   -9.8730   30.9990 N.am   95  ASN95      -0.0877
     88  N         24.4430   -9.7990   25.9330 N.am   96  LEU96      -0.1977
     89  CA        23.9090   -8.6390   25.1920 C.3    96  LEU96       0.1596
     90  C         23.9850   -7.3460   25.9900 C.2    96  LEU96       0.2287
     91  O         23.2460   -6.3690   25.7540 O.2    96  LEU96      -0.2864
     92  CB        22.4740   -8.9110   24.7220 C.3    96  LEU96       0.0297
     93  CG        22.2340   -9.3360   23.2780 C.3    96  LEU96       0.0022
     94  CD1       23.3000  -10.2950   22.7740 C.3    96  LEU96       0.0001
     95  CD2       20.8620   -9.9790   23.0910 C.3    96  LEU96       0.0001
     96  N         20.2540  -15.8870   32.9690 N.3   170  ILE170     -0.1245
     97  CA        21.2480  -14.9650   32.4160 C.3   170  ILE170      0.1561
     98  C         21.6760  -13.9130   33.4310 C.2   170  ILE170      0.2260
     99  O         20.8940  -13.5060   34.3040 O.2   170  ILE170     -0.2867
    100  CB        20.6910  -14.2620   31.1560 C.3   170  ILE170      0.0252
    101  CG1       20.2870  -15.2470   30.0500 C.3   170  ILE170      0.0019
    102  CG2       21.6640  -13.2340   30.6170 C.3   170  ILE170      0.0019
    103  CD1       21.4790  -16.0700   29.5860 C.3   170  ILE170      0.0001
    104  N          3.9560   -8.9360   24.8840 N.3   190  ASP190     -0.1225
    105  CA         5.4250   -8.9700   24.8830 C.3   190  ASP190      0.1805
    106  C          5.8880   -8.6060   23.4790 C.2   190  ASP190      0.2598
    107  O          5.0800   -8.6740   22.5480 O.2   190  ASP190     -0.2718
    108  CB         5.9310  -10.3550   25.2720 C.3   190  ASP190      0.1424
    109  CG         7.4000  -10.5500   25.5470 C.2   190  ASP190      0.3668
    110  OD1        8.1630   -9.5620   25.5860 O.co2 190  ASP190     -0.2456
    111  OD2        7.8580  -11.7130   25.7510 O.co2 190  ASP190     -0.2456
    112  N          7.1630   -8.2770   23.3610 N.am  191  ALA191     -0.1966
    113  CA         7.8600   -8.2060   22.0970 C.3   191  ALA191      0.1728
    114  C          8.1720   -9.6230   21.6190 C.2   191  ALA191      0.2616
    115  O          8.1240  -10.5490   22.4160 O.2   191  ALA191     -0.2715
    116  CB         9.1690   -7.4460   22.1830 C.3   191  ALA191      0.0334
    117  N          8.4770   -9.7570   20.3350 N.am  192  CYS192     -0.1954
    118  CA         8.8560  -11.0930   19.8290 C.3   192  CYS192      0.1843
    119  C          9.8040  -10.9270   18.6470 C.2   192  CYS192      0.2625
    120  O         10.2140   -9.8080   18.3120 O.2   192  CYS192     -0.2714
    121  CB         7.5970  -11.8760   19.5160 C.3   192  CYS192      0.0997
    122  SG         7.6750  -13.6740   19.3870 S.3   192  CYS192     -0.0797
    123  N         10.1910  -12.0310   18.0230 N.am  193  GLU193     -0.1977
    124  CA        11.0940  -12.0360   16.8880 C.3   193  GLU193      0.1602
    125  C         10.6540  -11.0200   15.8310 C.2   193  GLU193      0.2287
    126  O          9.5050  -11.1030   15.3950 O.2   193  GLU193     -0.2864
    127  CB        11.1430  -13.4250   16.2420 C.3   193  GLU193      0.0415
    128  CG        12.5100  -13.9730   15.8950 C.3   193  GLU193      0.1163
    129  CD        12.5360  -14.8410   14.6510 C.2   193  GLU193      0.3649
    130  OE1       11.4910  -15.3980   14.2470 O.co2 193  GLU193     -0.2457
    131  OE2       13.6250  -14.9820   14.0470 O.co2 193  GLU193     -0.2457
    132  N         12.9720   -6.6570   17.8580 N.3   196  SER196     -0.1217
    133  CA        14.2980   -6.2490   18.2900 C.3   196  SER196      0.1889
    134  C         14.7210   -4.9220   17.6910 C.2   196  SER196      0.2288
    135  O         14.4490   -4.7100   16.5120 O.2   196  SER196     -0.2866
    136  CB        15.3920   -7.2370   17.8320 C.3   196  SER196      0.2089
    137  OG        15.3510   -8.4120   18.6070 O.3   196  SER196     -0.2183
    138  N         14.3050   -2.6570   22.4700 N.3   216  VAL216     -0.1231
    139  CA        13.9440   -4.0800   22.5420 C.3   216  VAL216      0.1692
    140  C         15.2140   -4.8920   22.3760 C.2   216  VAL216      0.2593
    141  O         15.8410   -4.7320   21.3200 O.2   216  VAL216     -0.2718
    142  CB        12.9030   -4.4450   21.4710 C.3   216  VAL216      0.0266
    143  CG1       12.4880   -5.9180   21.5300 C.3   216  VAL216      0.0020
    144  CG2       11.6730   -3.5620   21.6230 C.3   216  VAL216      0.0020
    145  N         15.5410   -5.7340   23.3700 N.am  217  SER217     -0.1938
    146  CA        16.8560   -6.3740   23.2630 C.3   217  SER217      0.2055
    147  C         16.8000   -7.8940   23.2860 C.2   217  SER217      0.2643
    148  O         17.3330   -8.5200   22.3560 O.2   217  SER217     -0.2714
    149  CB        17.7290   -5.8480   24.4150 C.3   217  SER217      0.2130
    150  OG        18.9740   -6.5130   24.4470 O.3   217  SER217     -0.2179
    151  N         16.2110   -8.5330   24.3000 N.am  218  TRP218     -0.1959
    152  CA        16.1180   -9.9890   24.3090 C.3   218  TRP218      0.1771
    153  C         15.0450  -10.5050   25.2590 C.2   218  TRP218      0.2620
    154  O         14.5270   -9.8710   26.1740 O.2   218  TRP218     -0.2715
    155  CB        17.4670  -10.6670   24.6460 C.3   218  TRP218      0.0590
    156  CG        18.0120  -10.3210   25.9960 C.ar  218  TRP218      0.0006
    157  CD1       18.7730   -9.2450   26.3380 C.ar  218  TRP218      0.0946
    158  CD2       17.8350  -11.0720   27.2180 C.ar  218  TRP218      0.0152
    159  NE1       19.0850   -9.2600   27.6860 N.ar  218  TRP218     -0.2442
    160  CE2       18.5150  -10.3850   28.2390 C.ar  218  TRP218      0.0810
    161  CE3       17.1600  -12.2600   27.5180 C.ar  218  TRP218      0.0012
    162  CZ2       18.5530  -10.8400   29.5610 C.ar  218  TRP218      0.0191
    163  CZ3       17.1970  -12.7110   28.8410 C.ar  218  TRP218      0.0001
    164  CH2       17.8810  -12.0060   29.8310 C.ar  218  TRP218      0.0015
    165  N         14.7210  -11.7820   24.9910 N.am  219  GLY219     -0.1940
    166  CA        13.8030  -12.5070   25.8400 C.3   219  GLY219      0.2014
    167  C         13.9690  -14.0000   25.5560 C.2   219  GLY219      0.2639
    168  O         14.5590  -14.3650   24.5370 O.2   219  GLY219     -0.2714
    169  N         13.4520  -14.8130   26.4610 N.am  220  GLU220     -0.1963
    170  CA        13.5160  -16.2780   26.2600 C.3   220  GLU220      0.1733
    171  C         12.1300  -16.7480   25.8740 C.2   220  GLU220      0.2617
    172  O         11.1680  -16.8240   26.6440 O.2   220  GLU220     -0.2715
    173  CB        14.1380  -16.8930   27.5180 C.3   220  GLU220      0.0429
    174  CG        15.1890  -15.9950   28.1450 C.3   220  GLU220      0.1163
    175  CD        15.2520  -16.0130   29.6590 C.2   220  GLU220      0.3649
    176  OE1       14.3910  -15.4520   30.3740 O.co2 220  GLU220     -0.2457
    177  OE2       16.2280  -16.6060   30.1680 O.co2 220  GLU220     -0.2457
    178  N         11.9280  -17.0500   24.5750 N.am  221  GLY221     -0.1940
    179  CA        10.5240  -17.3130   24.2040 C.3   221  GLY221      0.2014
    180  C          9.8190  -15.9740   24.0080 C.2   221  GLY221      0.2639
    181  O         10.4870  -14.9330   24.0230 O.2   221  GLY221     -0.2714
    182  N          8.5110  -15.9340   23.8210 N.am  222  CYS222     -0.1967
    183  CA         7.7950  -14.6660   23.7300 C.3   222  CYS222      0.1712
    184  C          6.5050  -14.7690   24.5450 C.2   222  CYS222      0.2296
    185  O          5.7150  -15.6780   24.2600 O.2   222  CYS222     -0.2864
    186  CB         7.3870  -14.2890   22.3160 C.3   222  CYS222      0.0983
    187  SG         8.6610  -14.2960   21.0590 S.3   222  CYS222     -0.0798
    188  N         10.4090   -9.3350   29.1120 N.3   229  GLY229     -0.1210
    189  CA        11.2740   -8.8800   28.0210 C.3   229  GLY229      0.1956
    190  C         12.3670   -7.9900   28.5850 C.2   229  GLY229      0.2612
    191  O         12.1160   -7.3140   29.5870 O.2   229  GLY229     -0.2717
    192  N         13.5460   -8.0140   27.9690 N.am  230  PHE230     -0.1962
    193  CA        14.6930   -7.2300   28.4250 C.3   230  PHE230      0.1771
    194  C         14.9730   -6.1480   27.3900 C.2   230  PHE230      0.2619
    195  O         14.8390   -6.4460   26.2080 O.2   230  PHE230     -0.2715
    196  CB        15.9580   -8.0790   28.6700 C.3   230  PHE230      0.0574
    197  CG        15.8080   -8.8270   30.0020 C.ar  230  PHE230     -0.0200
    198  CD1       15.1170  -10.0140   30.0930 C.ar  230  PHE230     -0.0042
    199  CD2       16.3520   -8.3010   31.1700 C.ar  230  PHE230     -0.0042
    200  CE1       14.9330  -10.6860   31.3020 C.ar  230  PHE230     -0.0003
    201  CE2       16.2120   -8.9590   32.3810 C.ar  230  PHE230     -0.0003
    202  CZ        15.5070  -10.1560   32.4490 C.ar  230  PHE230     -0.0000
    203  N         15.3010   -4.9690   27.8940 N.am  231  TYR231     -0.1974
    204  CA        15.4590   -3.7310   27.1690 C.3   231  TYR231      0.1639
    205  C         16.7780   -3.0590   27.5080 C.2   231  TYR231      0.2290
    206  O         17.1590   -2.9550   28.6710 O.2   231  TYR231     -0.2864
    207  CB        14.2570   -2.8000   27.4800 C.3   231  TYR231      0.0560
    208  CG        12.9350   -3.4380   27.0780 C.ar  231  TYR231     -0.0198
    209  CD1       12.2670   -4.3520   27.8940 C.ar  231  TYR231     -0.0009
    210  CD2       12.3400   -3.1310   25.8620 C.ar  231  TYR231     -0.0009
    211  CE1       11.0690   -4.9470   27.5540 C.ar  231  TYR231      0.0417
    212  CE2       11.1530   -3.7190   25.5100 C.ar  231  TYR231      0.0417
    213  CZ        10.5140   -4.6160   26.3410 C.ar  231  TYR231      0.1957
    214  OH         9.3280   -5.1590   25.8920 O.3   231  TYR231     -0.2866
@<TRIPOS>BOND
     1    38    39    1
     2    38    37    1
     3    38    41    1
     4    26    25    2
     5    42    41    1
     6    42    43    1
     7    39    40    2
     8    25    24    1
     9    43    44    1
    10    44    45    1
    11    24    27    1
    12    24    23    1
    13   131   129   ar
    14    27    28    1
    15   130   129   ar
    16   129   128    1
    17    14    13    2
    18    28    30   ar
    19    28    29   ar
    20    11    12    1
    21   126   125    2
    22    33    30   ar
    23    33    35   ar
    24    13    12    1
    25    30    32   ar
    26   125   124    1
    27     4     3    2
    28   128   127    1
    29    29    31   ar
    30    12    15    1
    31   127   124    1
    32    35    36   ar
    33    15    16    1
    34   135   134    2
    35     3     2    1
    36    32    31   ar
    37    32    34   ar
    38   124   123    1
    39    36    34   ar
    40    18    16   ar
    41    18    20   ar
    42    16    17   ar
    43   134   133    1
    44   136   133    1
    45   136   137    1
    46     2     1    1
    47     2     5    1
    48   132   133    1
    49   123   119   am
    50     8    10   ar
    51     8     6   ar
    52   120   119    2
    53    20    21   ar
    54   119   118    1
    55    10     9   ar
    56     5     6    1
    57    17    19   ar
    58     6     7   ar
    59    57    59   ar
    60    57    55   ar
    61    59    58   ar
    62   122   121    1
    63   122   187    1
    64   121   118    1
    65    55    54   ar
    66    55    53   ar
    67    21    19   ar
    68    21    22    1
    69    58    56   ar
    70    54    52   ar
    71   118   117    1
    72     9     7   ar
    73    53    56   ar
    74    53    51   ar
    75    52    51   ar
    76   117   114   am
    77    51    50    1
    78    70    68    1
    79    50    47    1
    80   187   186    1
    81   141   140    2
    82   142   143    1
    83   142   144    1
    84   142   139    1
    85   114   113    1
    86   114   115    2
    87    68    69    1
    88    68    67    2
    89   113   116    1
    90   113   112    1
    91   186   183    1
    92    47    48    1
    93    47    46    1
    94   148   147    2
    95   140   139    1
    96   140   145   am
    97   138   139    1
    98   107   106    2
    99    67    66    1
   100    49    48    2
   101    94    93    1
   102    48    60   am
   103    95    93    1
   104   146   147    1
   105   146   145    1
   106   146   149    1
   107    65    66    1
   108    65    64    1
   109    93    92    1
   110   147   151   am
   111   112   106   am
   112   106   105    1
   113    60    61    1
   114   183   182    1
   115   183   184    1
   116   182   180   am
   117    61    64    1
   118    61    62    1
   119   180   181    2
   120   180   179    1
   121   179   178    1
   122   185   184    2
   123   151   152    1
   124   152   155    1
   125   152   153    1
   126   149   150    1
   127   168   167    2
   128   178   171   am
   129   155   156    1
   130    92    89    1
   131   105   104    1
   132   105   108    1
   133   165   153   am
   134   165   166    1
   135    63    62    2
   136    62    71   am
   137    89    88    1
   138    89    90    1
   139   153   154    2
   140   108   109    1
   141   212   210   ar
   142   212   213   ar
   143   109   110   ar
   144   109   111   ar
   145   167   166    1
   146   167   169   am
   147    91    90    2
   148   210   208   ar
   149   171   170    1
   150   171   172    2
   151   214   213    1
   152    88    82   am
   153   156   157   ar
   154   156   158   ar
   155    71    72    1
   156   195   194    2
   157   170   169    1
   158   170   173    1
   159   157   159   ar
   160   213   211   ar
   161    82    83    2
   162    82    81    1
   163   208   207    1
   164   208   209   ar
   165   204   207    1
   166   204   205    1
   167   204   203    1
   168   158   161   ar
   169   158   160   ar
   170    72    73    1
   171    72    75    1
   172   194   203   am
   173   194   193    1
   174    73    80   am
   175    73    74    2
   176    80    81    1
   177   205   206    2
   178   161   163   ar
   179   173   174    1
   180   211   209   ar
   181   159   160   ar
   182    81    84    1
   183   192   193    1
   184   192   190   am
   185   189   190    1
   186   189   188    1
   187   174   175    1
   188   160   162   ar
   189   193   196    1
   190    75    76    1
   191   190   191    2
   192   196   197    1
   193   163   164   ar
   194    86    85    2
   195    84    85    1
   196   162   164   ar
   197   103   101    1
   198   175   177   ar
   199   175   176   ar
   200    85    87   am
   201    76    77    1
   202   197   198   ar
   203   197   199   ar
   204   101   100    1
   205   198   200   ar
   206   102   100    1
   207    78    77   ar
   208    77    79   ar
   209   100    97    1
   210   199   201   ar
   211   200   202   ar
   212   201   202   ar
   213    97    96    1
   214    97    98    1
   215    98    99    2
