@<TRIPOS>MOLECULE
tmp/3f69B00.pdb
 173 163 0 0 0
SMALL
GASTEIGER

@<TRIPOS>ATOM
      1  N        -15.0510  -44.7680   -6.9620 N.3    16  LEU16      -0.1231
      2  CA       -14.6360  -45.5130   -8.1500 C.3    16  LEU16       0.1693
      3  C        -15.8010  -45.9720   -9.0080 C.2    16  LEU16       0.2593
      4  O        -15.6330  -46.1970  -10.1990 O.2    16  LEU16      -0.2718
      5  CB       -13.8300  -46.7430   -7.7590 C.3    16  LEU16       0.0284
      6  CG       -12.5310  -46.4120   -7.0430 C.3    16  LEU16       0.0019
      7  CD1      -11.9510  -47.6430   -6.3710 C.3    16  LEU16       0.0001
      8  CD2      -11.5420  -45.7830   -8.0230 C.3    16  LEU16       0.0001
      9  N        -16.9710  -46.1350   -8.4000 N.am   17  GLY17      -0.1942
     10  CA       -18.1190  -46.7090   -9.0700 C.3    17  GLY17       0.2014
     11  C        -19.2140  -46.8210   -8.0410 C.2    17  GLY17       0.2639
     12  O        -18.9210  -46.9260   -6.8590 O.2    17  GLY17      -0.2714
     13  N        -20.4720  -46.7540   -8.4820 N.am   18  PHE18      -0.1959
     14  CA       -21.6380  -46.8860   -7.5950 C.3    18  PHE18       0.1771
     15  C        -22.4450  -48.1040   -8.0140 C.2    18  PHE18       0.2620
     16  O        -22.4930  -48.4370   -9.1980 O.2    18  PHE18      -0.2715
     17  CB       -22.5130  -45.6190   -7.5910 C.3    18  PHE18       0.0574
     18  CG       -22.6800  -44.9810   -8.9380 C.ar   18  PHE18      -0.0200
     19  CD1      -23.9040  -45.4270   -9.7310 C.ar   18  PHE18      -0.0042
     20  CD2      -21.7270  -44.4580   -9.7470 C.ar   18  PHE18      -0.0042
     21  CE1      -24.1210  -44.9670  -11.0170 C.ar   18  PHE18      -0.0003
     22  CE2      -21.9380  -43.9960  -11.0320 C.ar   18  PHE18      -0.0003
     23  CZ       -23.1370  -44.2510  -11.6680 C.ar   18  PHE18      -0.0000
     24  N        -23.0500  -48.7850   -7.0430 N.am   19  GLY19      -0.1954
     25  CA       -23.8100  -50.0120   -7.3070 C.3    19  GLY19       0.1869
     26  C        -25.2410  -49.8760   -6.8270 C.2    19  GLY19       0.2309
     27  O        -25.8100  -48.7860   -6.8610 O.2    19  GLY19      -0.2863
     28  N        -18.3850  -47.5750   -4.0980 N.3    24  VAL24      -0.1245
     29  CA       -17.0160  -48.0510   -3.9260 C.3    24  VAL24       0.1561
     30  C        -16.0200  -46.9070   -3.9310 C.2    24  VAL24       0.2260
     31  O        -15.9630  -46.1230   -4.8760 O.2    24  VAL24      -0.2867
     32  CB       -16.6340  -49.0340   -5.0040 C.3    24  VAL24       0.0252
     33  CG1      -15.1950  -49.4650   -4.8070 C.3    24  VAL24       0.0019
     34  CG2      -17.5700  -50.2320   -4.9550 C.3    24  VAL24       0.0019
     35  N         -9.7540  -50.6720   -1.9040 N.3    37  ALA37      -0.1245
     36  CA       -11.0780  -50.2420   -2.3530 C.3    37  ALA37       0.1562
     37  C        -12.0500  -50.5840   -1.2420 C.2    37  ALA37       0.2260
     38  O        -11.9600  -51.6570   -0.6420 O.2    37  ALA37      -0.2867
     39  CB       -11.4720  -50.9230   -3.6150 C.3    37  ALA37       0.0290
     40  N        -16.1060  -50.7530   -0.3630 N.3    39  LYS39      -0.1245
     41  CA       -17.4880  -50.7480   -0.7730 C.3    39  LYS39       0.1561
     42  C        -18.3610  -50.4900    0.4560 C.2    39  LYS39       0.2260
     43  O        -18.4120  -51.3210    1.3590 O.2    39  LYS39      -0.2867
     44  CB       -17.8050  -52.1090   -1.3650 C.3    39  LYS39       0.0271
     45  CG       -19.2550  -52.3410   -1.7010 C.3    39  LYS39       0.0035
     46  CD       -19.3780  -53.6230   -2.4930 C.3    39  LYS39       0.0206
     47  CE       -20.7890  -53.8910   -2.9340 C.3    39  LYS39       0.1093
     48  NZ       -20.8060  -55.2210   -3.5980 N.3    39  LYS39      -0.1314
     49  N        -10.2620  -59.8460   -7.7240 N.3    71  VAL71      -0.1245
     50  CA       -10.0130  -58.8090   -6.7460 C.3    71  VAL71       0.1561
     51  C        -10.2630  -59.3830   -5.3440 C.2    71  VAL71       0.2260
     52  O        -11.3570  -59.8860   -5.0460 O.2    71  VAL71      -0.2867
     53  CB       -10.9470  -57.6000   -6.9770 C.3    71  VAL71       0.0252
     54  CG1      -10.6780  -56.5180   -5.9510 C.3    71  VAL71       0.0019
     55  CG2      -10.8120  -57.0720   -8.4000 C.3    71  VAL71       0.0019
     56  N        -11.3380  -54.0600   -0.0090 N.3    91  MET91      -0.1230
     57  CA       -10.8510  -54.8820   -1.1110 C.3    91  MET91       0.1702
     58  C         -9.5680  -54.3870   -1.7630 C.2    91  MET91       0.2592
     59  O         -9.2250  -53.2020   -1.6990 O.2    91  MET91      -0.2718
     60  CB       -11.9180  -54.9990   -2.1870 C.3    91  MET91       0.0401
     61  CG       -13.1610  -55.7140   -1.7150 C.3    91  MET91       0.0596
     62  SD       -14.4590  -55.6420   -2.9460 S.3    91  MET91      -0.1393
     63  CE       -13.9480  -56.9810   -4.0450 C.3    91  MET91       0.0692
     64  N         -8.8690  -55.3260   -2.3910 N.am   92  GLU92      -0.1966
     65  CA        -7.7870  -55.0170   -3.2900 C.3    92  GLU92       0.1733
     66  C         -8.1840  -53.8620   -4.1910 C.2    92  GLU92       0.2616
     67  O         -9.3030  -53.8090   -4.6940 O.2    92  GLU92      -0.2715
     68  CB        -7.5160  -56.2290   -4.1550 C.3    92  GLU92       0.0429
     69  CG        -6.4280  -56.0450   -5.1550 C.3    92  GLU92       0.1163
     70  CD        -6.2240  -57.2970   -5.9940 C.2    92  GLU92       0.3649
     71  OE1       -6.7770  -58.3660   -5.5900 O.co2  92  GLU92      -0.2457
     72  OE2       -5.5200  -57.1990   -7.0490 O.co2  92  GLU92      -0.2457
     73  N         -7.2760  -52.9250   -4.3940 N.am   93  TYR93      -0.1960
     74  CA        -7.5680  -51.8370   -5.2930 C.3    93  TYR93       0.1771
     75  C         -6.9530  -52.1180   -6.6820 C.2    93  TYR93       0.2619
     76  O         -5.8430  -52.6620   -6.7960 O.2    93  TYR93      -0.2715
     77  CB        -7.0850  -50.5250   -4.6860 C.3    93  TYR93       0.0574
     78  CG        -6.9780  -49.3770   -5.6590 C.ar   93  TYR93      -0.0198
     79  CD1       -5.7520  -48.8000   -5.9390 C.ar   93  TYR93      -0.0009
     80  CD2       -8.1050  -48.8670   -6.2890 C.ar   93  TYR93      -0.0009
     81  CE1       -5.6480  -47.7480   -6.8100 C.ar   93  TYR93       0.0417
     82  CE2       -8.0150  -47.8140   -7.1710 C.ar   93  TYR93       0.0417
     83  CZ        -6.7820  -47.2500   -7.4340 C.ar   93  TYR93       0.1957
     84  OH        -6.6750  -46.1840   -8.3230 O.3    93  TYR93      -0.2866
     85  N         -7.7120  -51.7980   -7.7310 N.am   94  VAL94      -0.1977
     86  CA        -7.2170  -51.9110   -9.0930 C.3    94  VAL94       0.1596
     87  C         -7.1300  -50.5350   -9.7330 C.2    94  VAL94       0.2287
     88  O         -8.1350  -49.8560   -9.9260 O.2    94  VAL94      -0.2864
     89  CB        -8.1100  -52.8020   -9.9660 C.3    94  VAL94       0.0276
     90  CG1       -7.7170  -52.6600  -11.4290 C.3    94  VAL94       0.0022
     91  CG2       -8.0130  -54.2550   -9.5280 C.3    94  VAL94       0.0022
     92  N         -7.2090  -48.8170  -12.6680 N.3    96  GLY96      -0.1210
     93  CA        -7.6340  -49.2110  -14.0160 C.3    96  GLY96       0.1956
     94  C         -8.9950  -48.7170  -14.4500 C.2    96  GLY96       0.2612
     95  O         -9.5000  -47.7330  -13.9270 O.2    96  GLY96      -0.2717
     96  N         -9.5870  -49.3780  -15.4360 N.am   97  VAL97      -0.1965
     97  CA       -10.9080  -48.9750  -15.9120 C.3    97  VAL97       0.1727
     98  C        -11.7320  -50.2160  -16.1590 C.2    97  VAL97       0.2616
     99  O        -11.1760  -51.3130  -16.2530 O.2    97  VAL97      -0.2715
    100  CB       -10.8410  -48.1010  -17.2000 C.3    97  VAL97       0.0290
    101  CG1       -9.9790  -46.8780  -16.9550 C.3    97  VAL97       0.0023
    102  CG2      -10.2980  -48.8820  -18.3640 C.3    97  VAL97       0.0023
    103  N        -13.0520  -50.0680  -16.2460 N.am   98  THR98      -0.1951
    104  CA       -13.8920  -51.2290  -16.4970 C.3    98  THR98       0.1897
    105  C        -13.8160  -51.5880  -17.9640 C.2    98  THR98       0.2313
    106  O        -13.5780  -50.7420  -18.8070 O.2    98  THR98      -0.2863
    107  CB       -15.3740  -50.9940  -16.1170 C.3    98  THR98       0.1794
    108  OG1      -15.8850  -49.8540  -16.8250 O.3    98  THR98      -0.2208
    109  CG2      -15.5200  -50.7620  -14.6250 C.3    98  THR98       0.0378
    110  N        -16.2250  -51.9920  -19.5310 N.3   100  ARG100     -0.1231
    111  CA       -17.3380  -51.2430  -20.0870 C.3   100  ARG100      0.1694
    112  C        -16.9090  -49.8840  -20.6240 C.2   100  ARG100      0.2592
    113  O        -17.3870  -49.4460  -21.6780 O.2   100  ARG100     -0.2718
    114  CB       -18.4210  -51.0570  -19.0340 C.3   100  ARG100      0.0321
    115  CG       -19.5690  -50.1800  -19.4560 C.3   100  ARG100      0.0489
    116  CD       -20.3460  -49.7260  -18.2560 C.3   100  ARG100      0.2205
    117  NE       -21.5800  -49.0590  -18.6400 N.pl3 100  ARG100     -0.0865
    118  CZ       -21.7740  -47.7440  -18.5660 C.cat 100  ARG100      0.5346
    119  NH1      -20.8100  -46.9530  -18.1020 N.pl3 100  ARG100      0.1354
    120  NH2      -22.9360  -47.2160  -18.9500 N.pl3 100  ARG100      0.1354
    121  N        -16.0200  -49.2140  -19.8910 N.am  101  ASP101     -0.1974
    122  CA       -15.5480  -47.8900  -20.2840 C.3   101  ASP101      0.1709
    123  C        -14.6960  -48.0310  -21.5310 C.2   101  ASP101      0.2293
    124  O        -14.7260  -47.1760  -22.4370 O.2   101  ASP101     -0.2864
    125  CB       -14.7150  -47.2470  -19.1710 C.3   101  ASP101      0.1436
    126  CG       -15.5660  -46.7850  -17.9800 C.2   101  ASP101      0.3671
    127  OD1      -16.5810  -46.0790  -18.2170 O.co2 101  ASP101     -0.2456
    128  OD2      -15.2090  -47.1260  -16.8130 O.co2 101  ASP101     -0.2456
    129  N        -20.5230  -59.2000  -16.5180 N.3   139  LYS139     -0.1245
    130  CA       -20.9020  -58.0970  -17.3720 C.3   139  LYS139      0.1561
    131  C        -19.7730  -57.0970  -17.4140 C.2   139  LYS139      0.2260
    132  O        -18.9590  -57.0440  -16.5010 O.2   139  LYS139     -0.2867
    133  CB       -22.1890  -57.4350  -16.8950 C.3   139  LYS139      0.0271
    134  CG       -22.0730  -56.5910  -15.6420 C.3   139  LYS139      0.0035
    135  CD       -23.4670  -56.1870  -15.1790 C.3   139  LYS139      0.0206
    136  CE       -23.4110  -55.2080  -14.0000 C.3   139  LYS139      0.1093
    137  NZ       -24.6140  -55.3130  -13.1050 N.3   139  LYS139     -0.1314
    138  N        -19.2100  -54.0470  -16.8420 N.3   141  ALA141     -0.1231
    139  CA       -18.9350  -53.1880  -15.6930 C.3   141  ALA141      0.1694
    140  C        -18.2670  -53.9110  -14.5270 C.2   141  ALA141      0.2592
    141  O        -17.7740  -53.2670  -13.6120 O.2   141  ALA141     -0.2718
    142  CB       -20.1750  -52.4720  -15.2280 C.3   141  ALA141      0.0304
    143  N        -18.2270  -55.2400  -14.5620 N.am  142  ASN142     -0.1974
    144  CA       -17.6660  -56.0000  -13.4570 C.3   142  ASN142      0.1688
    145  C        -16.3560  -56.6720  -13.7910 C.2   142  ASN142      0.2292
    146  O        -15.8840  -57.5360  -13.0350 O.2   142  ASN142     -0.2864
    147  CB       -18.6680  -57.0400  -12.9680 C.3   142  ASN142      0.1181
    148  CG       -19.6850  -56.4480  -12.0460 C.2   142  ASN142      0.2629
    149  OD1      -19.4980  -55.3430  -11.5560 O.2   142  ASN142     -0.2716
    150  ND2      -20.7850  -57.1550  -11.8230 N.am  142  ASN142     -0.0877
    151  N        -12.4830  -55.4870  -14.6210 N.3   144  LEU144     -0.1245
    152  CA       -11.5910  -54.3400  -14.7020 C.3   144  LEU144      0.1561
    153  C        -10.3160  -54.7020  -15.4690 C.2   144  LEU144      0.2260
    154  O         -9.8410  -55.8470  -15.3880 O.2   144  LEU144     -0.2867
    155  CB       -11.2150  -53.8920  -13.3020 C.3   144  LEU144      0.0270
    156  CG       -12.3210  -53.6640  -12.2720 C.3   144  LEU144      0.0019
    157  CD1      -11.6980  -53.3920  -10.9070 C.3   144  LEU144      0.0001
    158  CD2      -13.1790  -52.5000  -12.6890 C.3   144  LEU144      0.0001
    159  N        -14.6840  -58.3160  -10.4890 N.3   154  VAL154     -0.1231
    160  CA       -15.2720  -57.9020   -9.2230 C.3   154  VAL154      0.1692
    161  C        -16.7090  -58.3760   -9.0970 C.2   154  VAL154      0.2592
    162  O        -17.2760  -58.9210  -10.0420 O.2   154  VAL154     -0.2718
    163  CB       -15.3160  -56.3860   -9.0780 C.3   154  VAL154      0.0266
    164  CG1      -13.9290  -55.8190   -8.8820 C.3   154  VAL154      0.0020
    165  CG2      -16.0620  -55.7660  -10.2750 C.3   154  VAL154      0.0020
    166  N        -17.2790  -58.1590   -7.9140 N.am  155  ASP155     -0.1974
    167  CA       -18.7240  -58.2430   -7.6880 C.3   155  ASP155      0.1709
    168  C        -19.2780  -59.6600   -7.7830 C.2   155  ASP155      0.2293
    169  O        -20.3480  -59.8740   -8.3300 O.2   155  ASP155     -0.2864
    170  CB       -19.4870  -57.2730   -8.6020 C.3   155  ASP155      0.1436
    171  CG       -20.9010  -56.9960   -8.1140 C.2   155  ASP155      0.3671
    172  OD1      -21.1250  -56.9620   -6.8830 O.co2 155  ASP155     -0.2456
    173  OD2      -21.8110  -56.8030   -8.9540 O.co2 155  ASP155     -0.2456
@<TRIPOS>BOND
     1   124   123    2
     2   113   112    2
     3   123   122    1
     4   112   111    1
     5   112   121   am
     6   122   121    1
     7   122   125    1
     8   111   110    1
     9   111   114    1
    10   115   114    1
    11   115   116    1
    12   125   126    1
    13   120   118    1
    14   106   105    2
    15   117   118    2
    16   117   116    1
    17   118   119    1
    18   102   100    1
    19   127   126   ar
    20   126   128   ar
    21   105   104    1
    22   131   130    1
    23   131   132    2
    24   130   133    1
    25   130   129    1
    26   100   101    1
    27   100    97    1
    28   133   134    1
    29   138   139    1
    30   108   107    1
    31   104   103    1
    32   104   107    1
    33    99    98    2
    34   103    98   am
    35    98    97    1
    36   107   109    1
    37    97    96    1
    38   139   142    1
    39   139   140    1
    40   134   135    1
    41   153   154    2
    42   153   152    1
    43    96    94   am
    44   135   136    1
    45   152   151    1
    46   152   155    1
    47   143   140   am
    48   143   144    1
    49   140   141    2
    50    94    93    1
    51    94    95    2
    52    93    92    1
    53   136   137    1
    54   145   144    1
    55   145   146    2
    56   144   147    1
    57   155   156    1
    58   147   148    1
    59   158   156    1
    60   156   157    1
    61   148   150   am
    62   148   149    2
    63    23    22   ar
    64    23    21   ar
    65    90    89    1
    66    22    20   ar
    67    21    19   ar
    68   159   160    1
    69   165   163    1
    70     4     3    2
    71   162   161    2
    72    89    91    1
    73    89    86    1
    74    88    87    2
    75    20    18   ar
    76    87    86    1
    77    19    18   ar
    78   160   161    1
    79   160   163    1
    80    16    15    2
    81   161   166   am
    82    86    85    1
    83   163   164    1
    84    10     9    1
    85    10    11    1
    86     3     9   am
    87     3     2    1
    88   173   171   ar
    89    18    17    1
    90   170   171    1
    91   170   167    1
    92    13    11   am
    93    13    14    1
    94    55    53    1
    95   169   168    2
    96    84    83    1
    97     2     5    1
    98     2     1    1
    99   171   172   ar
   100    11    12    2
   101     8     6    1
   102    15    14    1
   103    15    24   am
   104   166   167    1
   105   168   167    1
   106     5     6    1
   107    85    75   am
   108    49    50    1
   109    14    17    1
   110    83    82   ar
   111    83    81   ar
   112    25    24    1
   113    25    26    1
   114    82    80   ar
   115    72    70   ar
   116     6     7    1
   117    53    50    1
   118    53    54    1
   119    27    26    2
   120    81    79   ar
   121    76    75    2
   122    50    51    1
   123    75    74    1
   124    80    78   ar
   125    70    71   ar
   126    70    69    1
   127    79    78   ar
   128    78    77    1
   129    51    52    2
   130    74    77    1
   131    74    73    1
   132    69    68    1
   133    32    34    1
   134    32    33    1
   135    32    29    1
   136    31    30    2
   137    67    66    2
   138    73    66   am
   139    66    65    1
   140    68    65    1
   141    28    29    1
   142    63    62    1
   143    30    29    1
   144    39    36    1
   145    48    47    1
   146    65    64    1
   147    62    61    1
   148    47    46    1
   149    46    45    1
   150    64    58   am
   151    36    35    1
   152    36    37    1
   153    60    61    1
   154    60    57    1
   155    58    59    2
   156    58    57    1
   157    45    44    1
   158    44    41    1
   159    37    38    2
   160    57    56    1
   161    41    40    1
   162    41    42    1
   163    42    43    2
