@<TRIPOS>MOLECULE
tmp/3f6eA00.pdb
 77 73 0 0 0
SMALL
GASTEIGER

@<TRIPOS>ATOM
      1  N         69.2030   43.1600  160.4080 N.3    22  ASN22      -0.1226
      2  CA        69.0910   44.4160  161.1480 C.3    22  ASN22       0.1770
      3  C         68.0840   45.2030  160.3240 C.2    22  ASN22       0.2439
      4  O         68.2890   45.4530  159.1340 O.2    22  ASN22      -0.2733
      5  CB        70.4820   45.0990  161.2590 C.3    22  ASN22       0.1168
      6  CG        70.3660   46.4150  162.0200 C.2    22  ASN22       0.2627
      7  OD1       70.1680   47.4940  161.4240 O.2    22  ASN22      -0.2716
      8  ND2       70.4210   46.3280  163.3590 N.am   22  ASN22      -0.0877
      9  N         66.9360   45.4450  160.9420 N.am   23  PRO23      -0.2718
     10  CA        65.8490   45.9360  160.1150 C.3    23  PRO23       0.1535
     11  C         65.9460   47.3990  159.7530 C.2    23  PRO23       0.2599
     12  O         66.6160   48.1870  160.4140 O.2    23  PRO23      -0.2715
     13  CB        64.5890   45.7300  161.0100 C.3    23  PRO23       0.0310
     14  CG        65.1340   45.9650  162.4520 C.3    23  PRO23       0.0237
     15  CD        66.5790   45.3120  162.3730 C.3    23  PRO23       0.0939
     16  N         65.2040   47.8120  158.7150 N.am   24  GLY24      -0.1941
     17  CA        65.0830   49.2350  158.3280 C.3    24  GLY24       0.2014
     18  C         63.7370   49.5150  157.6590 C.2    24  GLY24       0.2639
     19  O         62.8850   48.5930  157.4410 O.2    24  GLY24      -0.2714
     20  N         63.5330   50.7620  157.2280 N.am   25  SER25      -0.1949
     21  CA        62.1620   51.0790  156.8300 C.3    25  SER25       0.1924
     22  C         61.8560   50.5120  155.4510 C.2    25  SER25       0.2314
     23  O         60.6850   50.1700  155.2030 O.2    25  SER25      -0.2863
     24  CB        61.8940   52.5800  156.8410 C.3    25  SER25       0.2116
     25  OG        62.9500   53.1790  156.0940 O.3    25  SER25      -0.2180
     26  N         75.5440   45.5330  160.8930 N.3    46  GLU46      -0.1245
     27  CA        75.4860   44.5710  159.7700 C.3    46  GLU46       0.1567
     28  C         76.6750   43.6860  159.5740 C.2    46  GLU46       0.2260
     29  O         76.5410   42.5700  159.0420 O.2    46  GLU46      -0.2867
     30  CB        75.1330   45.3310  158.4750 C.3    46  GLU46       0.0388
     31  CG        73.7650   45.9810  158.4980 C.3    46  GLU46       0.1160
     32  CD        73.6810   47.3130  159.2220 C.2    46  GLU46       0.3649
     33  OE1       74.6300   47.8810  159.7050 O.co2  46  GLU46      -0.2457
     34  OE2       72.5040   47.8970  159.2460 O.co2  46  GLU46      -0.2457
     35  N         69.4220   46.7620  155.4810 N.3    69  HIS69      -0.1241
     36  CA        68.7850   47.9970  155.1160 C.3    69  HIS69       0.1621
     37  C         69.5290   48.7840  154.0080 C.2    69  HIS69       0.2264
     38  O         70.6000   49.3860  154.2930 O.2    69  HIS69      -0.2867
     39  CB        68.6070   48.9320  156.3430 C.3    69  HIS69       0.0745
     40  CG        68.0100   50.2570  155.9810 C.ar   69  HIS69       0.0817
     41  ND1       66.7230   50.3550  155.4690 N.ar   69  HIS69      -0.2268
     42  CD2       68.5020   51.5180  156.0410 C.ar   69  HIS69       0.1154
     43  CE1       66.4390   51.6380  155.2740 C.ar   69  HIS69       0.1986
     44  NE2       67.5090   52.3550  155.5830 N.ar   69  HIS69      -0.2212
     45  N         73.3040   51.6820  153.0810 N.3    72  ALA72      -0.1231
     46  CA        74.2120   51.8580  154.2170 C.3    72  ALA72       0.1694
     47  C         74.2740   50.5680  154.9760 C.2    72  ALA72       0.2592
     48  O         75.3340   50.2280  155.4750 O.2    72  ALA72      -0.2718
     49  CB        73.6540   52.9180  155.1470 C.3    72  ALA72       0.0304
     50  N         73.1760   49.8410  155.1290 N.am   73  GLY73      -0.1957
     51  CA        73.2060   48.5390  155.7980 C.3    73  GLY73       0.1869
     52  C         74.0820   47.5490  155.0060 C.2    73  GLY73       0.2309
     53  O         74.8870   46.7950  155.5540 O.2    73  GLY73      -0.2863
     54  N         77.7460   48.4920  155.4140 N.3    76  ASN76      -0.1240
     55  CA        78.3090   48.1660  156.7290 C.3    76  ASN76       0.1653
     56  C         78.7470   46.6800  156.7420 C.2    76  ASN76       0.2266
     57  O         79.5430   46.2600  157.5940 O.2    76  ASN76      -0.2867
     58  CB        77.3220   48.4250  157.8890 C.3    76  ASN76       0.1155
     59  CG        77.3350   49.8560  158.3190 C.2    76  ASN76       0.2627
     60  OD1       78.1950   50.6990  157.9860 O.2    76  ASN76      -0.2716
     61  ND2       76.3770   50.1670  159.1260 N.am   76  ASN76      -0.0877
     62  N         65.6410   59.8720  149.9820 N.3   108  LEU108     -0.1231
     63  CA        66.4250   59.2820  151.0500 C.3   108  LEU108      0.1693
     64  C         66.1780   57.7700  151.1300 C.2   108  LEU108      0.2591
     65  O         65.0730   57.2930  151.0060 O.2   108  LEU108     -0.2718
     66  CB        66.0170   59.8950  152.4180 C.3   108  LEU108      0.0284
     67  CG        67.0190   59.6280  153.5550 C.3   108  LEU108      0.0019
     68  CD1       68.3850   60.2160  153.4020 C.3   108  LEU108      0.0001
     69  CD2       66.3100   59.9970  154.8770 C.3   108  LEU108      0.0001
     70  N         67.2490   56.9980  151.3350 N.am  109  LEU109     -0.1980
     71  CA        67.2180   55.5150  151.4770 C.3   109  LEU109      0.1596
     72  C         67.1110   54.8050  150.1250 C.2   109  LEU109      0.2287
     73  O         67.0550   53.6060  150.0760 O.2   109  LEU109     -0.2864
     74  CB        66.1900   54.9900  152.4800 C.3   109  LEU109      0.0297
     75  CG        66.0250   55.8210  153.7460 C.3   109  LEU109      0.0022
     76  CD1       64.9800   55.1510  154.6320 C.3   109  LEU109      0.0001
     77  CD2       67.3770   55.8500  154.4860 C.3   109  LEU109      0.0001
@<TRIPOS>BOND
     1    62    63    1
     2    73    72    2
     3    72    71    1
     4    65    64    2
     5    63    64    1
     6    63    66    1
     7    64    70   am
     8    70    71    1
     9    71    74    1
    10    66    67    1
    11    74    75    1
    12    45    46    1
    13    68    67    1
    14    67    69    1
    15    75    77    1
    16    75    76    1
    17    37    38    2
    18    37    36    1
    19    46    47    1
    20    46    49    1
    21    47    50   am
    22    47    48    2
    23    52    53    2
    24    52    51    1
    25    36    35    1
    26    36    39    1
    27    50    51    1
    28    23    22    2
    29    43    41   ar
    30    43    44   ar
    31    54    55    1
    32    22    21    1
    33    41    40   ar
    34    44    42   ar
    35    40    42   ar
    36    40    39    1
    37    25    24    1
    38    55    56    1
    39    55    58    1
    40    56    57    2
    41    21    24    1
    42    21    20    1
    43    20    18   am
    44    19    18    2
    45    18    17    1
    46    58    59    1
    47    60    59    2
    48    59    61   am
    49    17    16    1
    50    30    31    1
    51    30    27    1
    52    31    32    1
    53    16    11   am
    54    29    28    2
    55     4     3    2
    56    32    34   ar
    57    32    33   ar
    58    28    27    1
    59    11    10    1
    60    11    12    2
    61    27    26    1
    62    10     9    1
    63    10    13    1
    64     3     9   am
    65     3     2    1
    66     1     2    1
    67     9    15    1
    68    13    14    1
    69     2     5    1
    70     5     6    1
    71     7     6    2
    72     6     8   am
    73    15    14    1
