@<TRIPOS>MOLECULE
tmp/3f6jA00.pdb
 100 98 0 0 0
SMALL
GASTEIGER

@<TRIPOS>ATOM
      1  N         33.0820   44.8680   16.3450 N.3    36  ALA36      -0.1231
      2  CA        34.2360   45.5880   15.7870 C.3    36  ALA36       0.1694
      3  C         35.4740   45.4600   16.6790 C.2    36  ALA36       0.2592
      4  O         36.5930   45.6850   16.2130 O.2    36  ALA36      -0.2718
      5  CB        33.9150   47.1040   15.5610 C.3    36  ALA36       0.0304
      6  N         35.2590   45.1020   17.9470 N.am   37  ASN37      -0.1974
      7  CA        36.3030   45.2360   18.9860 C.3    37  ASN37       0.1688
      8  C         36.5310   43.9530   19.7970 C.2    37  ASN37       0.2292
      9  O         36.1720   43.8730   20.9890 O.2    37  ASN37      -0.2864
     10  CB        35.9110   46.3940   19.9140 C.3    37  ASN37       0.1181
     11  CG        35.5690   47.6670   19.1430 C.2    37  ASN37       0.2629
     12  OD1       34.4350   48.1820   19.1930 O.2    37  ASN37      -0.2716
     13  ND2       36.5390   48.1760   18.4440 N.am   37  ASN37      -0.0877
     14  N         36.0080   39.3840    8.7200 N.3    81  ASP81      -0.1225
     15  CA        36.1980   40.6880    9.3510 C.3    81  ASP81       0.1805
     16  C         34.8580   41.3270    9.7660 C.2    81  ASP81       0.2598
     17  O         33.7770   40.8590    9.4050 O.2    81  ASP81      -0.2718
     18  CB        36.9640   41.6140    8.3890 C.3    81  ASP81       0.1424
     19  CG        37.6230   42.7880    9.0830 C.2    81  ASP81       0.3668
     20  OD1       37.9700   42.6940   10.2810 O.co2  81  ASP81      -0.2456
     21  OD2       37.8030   43.8200    8.4050 O.co2  81  ASP81      -0.2456
     22  N         34.9540   42.4160   10.5200 N.am   82  THR82      -0.1939
     23  CA        33.7990   43.1110   11.0850 C.3    82  THR82       0.2028
     24  C         32.6050   43.3230   10.1530 C.2    82  THR82       0.2642
     25  O         31.4880   42.8930   10.4730 O.2    82  THR82      -0.2714
     26  CB        34.2430   44.4580   11.6830 C.3    82  THR82       0.1808
     27  OG1       35.3400   44.2200   12.5670 O.3    82  THR82      -0.2208
     28  CG2       33.0880   45.1640   12.4220 C.3    82  THR82       0.0379
     29  N         32.8120   44.0150    9.0340 N.am   83  LYS83      -0.1977
     30  CA        31.6870   44.3310    8.1330 C.3    83  LYS83       0.1596
     31  C         31.1100   43.0730    7.4880 C.2    83  LYS83       0.2287
     32  O         31.8460   42.2350    6.9460 O.2    83  LYS83      -0.2864
     33  CB        32.1300   45.2670    6.9970 C.3    83  LYS83       0.0298
     34  CG        32.8620   46.4730    7.4560 C.3    83  LYS83       0.0038
     35  CD        31.9160   47.5620    7.8070 C.3    83  LYS83       0.0206
     36  CE        32.6720   48.8500    7.8310 C.3    83  LYS83       0.1093
     37  NZ        32.2350   49.5780    9.0090 N.3    83  LYS83      -0.1314
     38  N         39.8420   36.0970    6.7150 N.3    99  PHE99      -0.1241
     39  CA        40.2530   37.5050    6.6060 C.3    99  PHE99       0.1605
     40  C         41.7770   37.5120    6.4540 C.2    99  PHE99       0.2264
     41  O         42.4830   37.1280    7.3720 O.2    99  PHE99      -0.2867
     42  CB        39.8100   38.3460    7.8360 C.3    99  PHE99       0.0534
     43  CG        40.3670   39.7580    7.8320 C.ar   99  PHE99      -0.0203
     44  CD1       40.3740   40.5090    6.6570 C.ar   99  PHE99      -0.0042
     45  CD2       40.9020   40.3150    8.9890 C.ar   99  PHE99      -0.0042
     46  CE1       40.8980   41.7980    6.6430 C.ar   99  PHE99      -0.0003
     47  CE2       41.4190   41.6100    8.9840 C.ar   99  PHE99      -0.0003
     48  CZ        41.4210   42.3450    7.8100 C.ar   99  PHE99      -0.0000
     49  N         45.4230   42.6210    8.3480 N.3   102  TRP102     -0.1241
     50  CA        45.9790   43.9620    8.2070 C.3   102  TRP102      0.1605
     51  C         46.9800   44.1920    9.3420 C.2   102  TRP102      0.2264
     52  O         47.0790   43.3580   10.2670 O.2   102  TRP102     -0.2867
     53  CB        44.8730   45.0170    8.2490 C.3   102  TRP102      0.0550
     54  CG        44.2960   45.2380    9.6110 C.ar  102  TRP102      0.0003
     55  CD1       43.6190   44.3220   10.3970 C.ar  102  TRP102      0.0946
     56  CD2       44.3210   46.4580   10.3490 C.ar  102  TRP102      0.0152
     57  NE1       43.2360   44.9170   11.5840 N.ar  102  TRP102     -0.2442
     58  CE2       43.6610   46.2220   11.5830 C.ar  102  TRP102      0.0810
     59  CE3       44.8660   47.7270   10.1020 C.ar  102  TRP102      0.0012
     60  CZ2       43.5250   47.2170   12.5600 C.ar  102  TRP102      0.0191
     61  CZ3       44.7340   48.7110   11.0670 C.ar  102  TRP102      0.0001
     62  CH2       44.0560   48.4610   12.2740 C.ar  102  TRP102      0.0015
     63  N         50.5750   53.4890   16.5770 N.3   108  THR108     -0.1203
     64  CA        49.1840   53.7530   16.9450 C.3   108  THR108      0.1994
     65  C         48.4740   52.4960   17.4250 C.2   108  THR108      0.2618
     66  O         49.0940   51.4260   17.5270 O.2   108  THR108     -0.2717
     67  CB        48.4300   54.4000   15.7570 C.3   108  THR108      0.1784
     68  OG1       48.4260   53.4960   14.6410 O.3   108  THR108     -0.2211
     69  CG2       49.1020   55.7120   15.3490 C.3   108  THR108      0.0376
     70  N         47.1890   52.6350   17.7500 N.am  109  ALA109     -0.1965
     71  CA        46.3930   51.5090   18.2630 C.3   109  ALA109      0.1728
     72  C         45.0470   51.4410   17.5640 C.2   109  ALA109      0.2617
     73  O         44.5510   52.4470   17.0420 O.2   109  ALA109     -0.2715
     74  CB        46.1980   51.6210   19.7570 C.3   109  ALA109      0.0334
     75  N         44.4630   50.2430   17.5590 N.am  110  SER110     -0.1936
     76  CA        43.1520   50.0250   17.0040 C.3   110  SER110      0.2055
     77  C         42.6240   48.7080   17.5650 C.2   110  SER110      0.2644
     78  O         43.0510   48.2470   18.6400 O.2   110  SER110     -0.2714
     79  CB        43.2050   49.9890   15.4700 C.3   110  SER110      0.2130
     80  OG        41.8970   50.0320   14.9190 O.3   110  SER110     -0.2179
     81  N         41.6700   48.1140   16.8560 N.am  111  THR111     -0.1936
     82  CA        41.1240   46.8400   17.2750 C.3   111  THR111      0.2028
     83  C         40.9830   45.9440   16.0560 C.2   111  THR111      0.2642
     84  O         40.9810   46.4250   14.9030 O.2   111  THR111     -0.2714
     85  CB        39.7040   46.9960   17.8880 C.3   111  THR111      0.1808
     86  OG1       38.8520   47.5910   16.9070 O.3   111  THR111     -0.2208
     87  CG2       39.7310   47.8460   19.1920 C.3   111  THR111      0.0379
     88  N         40.8310   44.6530   16.3170 N.am  112  GLN112     -0.1963
     89  CA        40.4520   43.6710   15.3020 C.3   112  GLN112      0.1733
     90  C         39.0760   43.0820   15.6790 C.2   112  GLN112      0.2616
     91  O         38.8850   42.6130   16.8160 O.2   112  GLN112     -0.2715
     92  CB        41.5210   42.5520   15.2100 C.3   112  GLN112      0.0408
     93  CG        41.1280   41.3890   14.2640 C.3   112  GLN112      0.0908
     94  CD        40.9280   41.8740   12.8410 C.2   112  GLN112      0.2608
     95  OE1       41.7340   42.6680   12.3460 O.2   112  GLN112     -0.2717
     96  NE2       39.8430   41.4240   12.1840 N.am  112  GLN112     -0.0878
     97  N         38.1210   43.1220   14.7350 N.am  113  GLY113     -0.1955
     98  CA        36.7650   42.6330   14.9660 C.3   113  GLY113      0.1869
     99  C         36.4430   41.3950   14.1500 C.2   113  GLY113      0.2309
    100  O         37.3180   40.8120   13.5000 O.2   113  GLY113     -0.2863
@<TRIPOS>BOND
     1    40    39    1
     2    40    41    2
     3    39    38    1
     4    39    42    1
     5    46    44   ar
     6    46    48   ar
     7    44    43   ar
     8    32    31    2
     9    33    34    1
    10    33    30    1
    11    34    35    1
    12    31    30    1
    13    35    36    1
    14    48    47   ar
    15    36    37    1
    16    43    42    1
    17    43    45   ar
    18    30    29    1
    19    50    53    1
    20    50    49    1
    21    50    51    1
    22    53    54    1
    23    18    19    1
    24    18    15    1
    25    21    19   ar
    26    14    15    1
    27    47    45   ar
    28    29    24   am
    29    19    20   ar
    30    51    52    2
    31    15    16    1
    32    17    16    2
    33    54    56   ar
    34    54    55   ar
    35    16    22   am
    36    59    56   ar
    37    59    61   ar
    38    24    25    2
    39    24    23    1
    40    56    58   ar
    41    55    57   ar
    42    22    23    1
    43    61    62   ar
    44    23    26    1
    45    58    57   ar
    46    58    60   ar
    47    26    28    1
    48    26    27    1
    49    96    94   am
    50    62    60   ar
    51    95    94    2
    52    94    93    1
    53   100    99    2
    54    99    98    1
    55    93    92    1
    56    68    67    1
    57    97    98    1
    58    97    90   am
    59    84    83    2
    60    80    79    1
    61    92    89    1
    62    89    90    1
    63    89    88    1
    64    69    67    1
    65    79    76    1
    66     5     2    1
    67    90    91    2
    68    67    64    1
    69     2     1    1
    70     2     3    1
    71    83    88   am
    72    83    82    1
    73     4     3    2
    74    63    64    1
    75     3     6   am
    76    81    82    1
    77    81    77   am
    78    86    85    1
    79    64    65    1
    80    76    75    1
    81    76    77    1
    82    73    72    2
    83    82    85    1
    84    65    66    2
    85    65    70   am
    86    75    72   am
    87    72    71    1
    88    77    78    2
    89    70    71    1
    90    85    87    1
    91     6     7    1
    92    71    74    1
    93    13    11   am
    94     7     8    1
    95     7    10    1
    96    11    12    2
    97    11    10    1
    98     8     9    2
