@<TRIPOS>MOLECULE
tmp/3f6kA03.pdb
 78 77 0 0 0
SMALL
GASTEIGER

@<TRIPOS>ATOM
      1  N         27.2080   54.5500   36.3010 N.3   380  LEU380     -0.1231
      2  CA        27.0900   53.2220   35.7370 C.3   380  LEU380      0.1693
      3  C         28.1210   53.0840   34.6060 C.2   380  LEU380      0.2592
      4  O         28.6410   54.0770   34.0840 O.2   380  LEU380     -0.2718
      5  CB        25.6930   52.9620   35.2400 C.3   380  LEU380      0.0284
      6  CG        24.6040   53.0050   36.3330 C.3   380  LEU380      0.0019
      7  CD1       23.3150   52.4670   35.7390 C.3   380  LEU380      0.0001
      8  CD2       25.0600   52.2150   37.6060 C.3   380  LEU380      0.0001
      9  N         28.3970   51.8460   34.2180 N.am  381  ASN381     -0.1960
     10  CA        29.3730   51.5860   33.1430 C.3   381  ASN381      0.1819
     11  C         28.8160   51.8400   31.7440 C.2   381  ASN381      0.2621
     12  O         28.5850   50.9080   30.9900 O.2   381  ASN381     -0.2715
     13  CB        29.9000   50.1660   33.2270 C.3   381  ASN381      0.1195
     14  CG        31.2790   50.0630   32.6600 C.2   381  ASN381      0.2630
     15  OD1       31.6600   50.8690   31.7980 O.2   381  ASN381     -0.2716
     16  ND2       32.0400   49.1060   33.1330 N.am  381  ASN381     -0.0877
     17  N         28.5820   53.1090   31.4170 N.am  382  VAL382     -0.1964
     18  CA        27.8480   53.4900   30.1910 C.3   382  VAL382      0.1712
     19  C         28.7060   54.5410   29.4810 C.2   382  VAL382      0.2458
     20  O         28.7520   55.7010   29.9200 O.2   382  VAL382     -0.2730
     21  CB        26.4570   54.0130   30.5250 C.3   382  VAL382      0.0289
     22  CG1       25.6670   54.4470   29.2440 C.3   382  VAL382      0.0023
     23  CG2       25.6550   52.9350   31.3490 C.3   382  VAL382      0.0023
     24  N         29.4510   54.1090   28.4390 N.am  383  PRO383     -0.2727
     25  CA        30.3680   54.9140   27.6550 C.3   383  PRO383      0.1402
     26  C         29.6130   56.0080   26.8830 C.2   383  PRO383      0.2269
     27  O         30.1170   57.1130   26.7160 O.2   383  PRO383     -0.2865
     28  CB        30.9130   53.9200   26.6130 C.3   383  PRO383      0.0296
     29  CG        30.6520   52.5820   27.1300 C.3   383  PRO383      0.0237
     30  CD        29.4130   52.7140   27.9730 C.3   383  PRO383      0.0939
     31  N         26.3600   45.7000   34.1590 N.3   410  VAL410     -0.1245
     32  CA        27.0960   46.2300   32.9750 C.3   410  VAL410      0.1561
     33  C         26.1860   45.9590   31.7260 C.2   410  VAL410      0.2260
     34  O         25.7490   44.8460   31.4850 O.2   410  VAL410     -0.2867
     35  CB        28.4920   45.5820   32.8640 C.3   410  VAL410      0.0252
     36  CG1       29.3410   46.2230   31.7760 C.3   410  VAL410      0.0019
     37  CG2       29.2690   45.6530   34.2550 C.3   410  VAL410      0.0019
     38  N         29.7600   46.9570   26.9660 N.3   430  PRO430     -0.2116
     39  CA        29.6530   48.3780   26.6270 C.3   430  PRO430      0.1372
     40  C         30.6250   48.7790   25.4970 C.2   430  PRO430      0.2244
     41  O         31.7510   48.3040   25.4810 O.2   430  PRO430     -0.2868
     42  CB        29.9440   49.0950   27.9610 C.3   430  PRO430      0.0268
     43  CG        30.6510   48.0410   28.8280 C.3   430  PRO430      0.0207
     44  CD        30.3100   46.7090   28.3180 C.3   430  PRO430      0.0892
     45  N         31.8490   52.1520   22.6120 N.3   432  TYR432     -0.1241
     46  CA        31.6110   53.4680   21.9820 C.3   432  TYR432      0.1605
     47  C         31.1710   53.1920   20.5440 C.2   432  TYR432      0.2264
     48  O         31.6380   52.2250   19.9590 O.2   432  TYR432     -0.2867
     49  CB        32.9260   54.2400   21.9650 C.3   432  TYR432      0.0534
     50  CG        33.4300   54.6150   23.3420 C.ar  432  TYR432     -0.0201
     51  CD1       33.1600   55.8810   23.8750 C.ar  432  TYR432     -0.0009
     52  CD2       34.1590   53.7070   24.1060 C.ar  432  TYR432     -0.0009
     53  CE1       33.6280   56.2160   25.1150 C.ar  432  TYR432      0.0417
     54  CE2       34.6350   54.0260   25.3310 C.ar  432  TYR432      0.0417
     55  CZ        34.3620   55.2780   25.8260 C.ar  432  TYR432      0.1957
     56  OH        34.8820   55.5790   27.0510 O.3   432  TYR432     -0.2866
     57  N         34.6660   49.1260   25.2480 N.3   447  HIS447     -0.1226
     58  CA        35.0080   49.9630   26.3980 C.3   447  HIS447      0.1752
     59  C         35.6580   49.0260   27.4250 C.2   447  HIS447      0.2597
     60  O         35.0340   48.0950   27.8940 O.2   447  HIS447     -0.2718
     61  CB        33.7310   50.6400   26.9120 C.3   447  HIS447      0.0759
     62  CG        33.8550   51.2310   28.2640 C.ar  447  HIS447      0.0818
     63  ND1       34.8520   52.1210   28.5980 N.ar  447  HIS447     -0.2268
     64  CD2       33.0890   51.0830   29.3670 C.ar  447  HIS447      0.1154
     65  CE1       34.7060   52.4800   29.8590 C.ar  447  HIS447      0.1986
     66  NE2       33.6430   51.8660   30.3470 N.ar  447  HIS447     -0.2212
     67  N         36.9570   49.2260   27.6680 N.am  448  SER448     -0.1938
     68  CA        37.8020   48.3890   28.4860 C.3   448  SER448      0.2055
     69  C         38.5780   49.2040   29.5410 C.2   448  SER448      0.2643
     70  O         38.8770   50.3760   29.3320 O.2   448  SER448     -0.2714
     71  CB        38.8320   47.7050   27.5550 C.3   448  SER448      0.2130
     72  OG        39.5750   46.7640   28.2770 O.3   448  SER448     -0.2179
     73  N         38.9940   48.5610   30.6280 N.am  449  SER449     -0.1949
     74  CA        40.0520   49.1570   31.4780 C.3   449  SER449      0.1924
     75  C         41.4730   48.9020   30.9440 C.2   449  SER449      0.2314
     76  O         42.4250   49.5660   31.3570 O.2   449  SER449     -0.2863
     77  CB        39.9130   48.6970   32.9390 C.3   449  SER449      0.2116
     78  OG        39.8840   47.2690   33.0360 O.3   449  SER449     -0.2180
@<TRIPOS>BOND
     1    48    47    2
     2    47    46    1
     3    49    46    1
     4    49    50    1
     5    46    45    1
     6    50    51   ar
     7    50    52   ar
     8    51    53   ar
     9    52    54   ar
    10    53    55   ar
    11    57    58    1
    12    54    55   ar
    13    41    40    2
    14    40    39    1
    15    55    56    1
    16    58    61    1
    17    58    59    1
    18    28    29    1
    19    28    25    1
    20    39    38    1
    21    39    42    1
    22    27    26    2
    23    26    25    1
    24    61    62    1
    25    38    44    1
    26    29    30    1
    27    59    67   am
    28    59    60    2
    29    71    72    1
    30    71    68    1
    31    25    24    1
    32    67    68    1
    33    42    43    1
    34    30    24    1
    35    62    63   ar
    36    62    64   ar
    37    44    43    1
    38    24    19   am
    39    68    69    1
    40    63    65   ar
    41    22    21    1
    42    70    69    2
    43    64    66   ar
    44    19    20    2
    45    19    18    1
    46    69    73   am
    47    65    66   ar
    48    18    21    1
    49    18    17    1
    50    21    23    1
    51    73    74    1
    52    75    76    2
    53    75    74    1
    54    12    11    2
    55    17    11   am
    56    74    77    1
    57    34    33    2
    58    33    32    1
    59    11    10    1
    60    36    35    1
    61    15    14    2
    62    14    16   am
    63    14    13    1
    64    35    32    1
    65    35    37    1
    66    77    78    1
    67    32    31    1
    68    10    13    1
    69    10     9    1
    70     4     3    2
    71     9     3   am
    72     3     2    1
    73     5     2    1
    74     5     6    1
    75     2     1    1
    76     7     6    1
    77     6     8    1
