@<TRIPOS>MOLECULE
tmp/3f6kA00.pdb
 165 161 0 0 0
SMALL
GASTEIGER

@<TRIPOS>ATOM
      1  N         20.6880   87.0060   24.2710 N.3   168  LYS168     -0.1245
      2  CA        20.6650   86.0810   23.1260 C.3   168  LYS168      0.1561
      3  C         20.2070   86.7310   21.8160 C.2   168  LYS168      0.2260
      4  O         19.4820   87.7120   21.8150 O.2   168  LYS168     -0.2867
      5  CB        19.8030   84.8500   23.4090 C.3   168  LYS168      0.0271
      6  CG        19.2480   84.8270   24.7660 C.3   168  LYS168      0.0035
      7  CD        18.7760   83.4570   25.1730 C.3   168  LYS168      0.0206
      8  CE        19.8650   82.6960   25.9130 C.3   168  LYS168      0.1093
      9  NZ        19.2370   81.5450   26.6180 N.3   168  LYS168     -0.1314
     10  N         11.9990   86.6330   35.4560 N.3   212  TYR212     -0.1227
     11  CA        12.9010   85.7510   36.1810 C.3   212  TYR212      0.1736
     12  C         13.9420   85.2690   35.2000 C.2   212  TYR212      0.2596
     13  O         15.1210   85.3970   35.4510 O.2   212  TYR212     -0.2718
     14  CB        12.1150   84.5790   36.7010 C.3   212  TYR212      0.0548
     15  CG        12.6930   83.8490   37.8620 C.ar  212  TYR212     -0.0200
     16  CD1       12.3840   84.2350   39.1380 C.ar  212  TYR212     -0.0009
     17  CD2       13.4920   82.7140   37.6820 C.ar  212  TYR212     -0.0009
     18  CE1       12.8660   83.5570   40.2400 C.ar  212  TYR212      0.0417
     19  CE2       13.9910   81.9980   38.7870 C.ar  212  TYR212      0.0417
     20  CZ        13.6610   82.4380   40.0690 C.ar  212  TYR212      0.1957
     21  OH        14.1170   81.7920   41.2240 O.3   212  TYR212     -0.2866
     22  N         13.5060   84.7290   34.0590 N.am  213  SER213     -0.1938
     23  CA        14.3980   84.3320   32.9870 C.3   213  SER213      0.2055
     24  C         13.6440   84.2840   31.6500 C.2   213  SER213      0.2643
     25  O         12.4450   84.4770   31.6190 O.2   213  SER213     -0.2714
     26  CB        14.9950   82.9500   33.2570 C.3   213  SER213      0.2130
     27  OG        16.1540   82.7990   32.4280 O.3   213  SER213     -0.2179
     28  N         14.3530   84.0120   30.5600 N.am  214  PHE214     -0.1959
     29  CA        13.7100   83.9370   29.2580 C.3   214  PHE214      0.1771
     30  C         14.4530   82.9600   28.3880 C.2   214  PHE214      0.2620
     31  O         15.6150   82.6300   28.6580 O.2   214  PHE214     -0.2715
     32  CB        13.5920   85.3370   28.5840 C.3   214  PHE214      0.0574
     33  CG        14.8410   85.8010   27.9270 C.ar  214  PHE214     -0.0200
     34  CD1       15.0090   85.6400   26.5870 C.ar  214  PHE214     -0.0042
     35  CD2       15.8480   86.4090   28.6670 C.ar  214  PHE214     -0.0042
     36  CE1       16.1820   86.0310   25.9390 C.ar  214  PHE214     -0.0003
     37  CE2       17.0260   86.8560   28.0470 C.ar  214  PHE214     -0.0003
     38  CZ        17.1950   86.6650   26.6660 C.ar  214  PHE214     -0.0000
     39  N         13.7860   82.5110   27.3280 N.am  215  GLY215     -0.1940
     40  CA        14.3890   81.6140   26.3810 C.3   215  GLY215      0.2014
     41  C         13.6570   81.6300   25.0620 C.2   215  GLY215      0.2638
     42  O         12.5710   82.1570   24.9650 O.2   215  GLY215     -0.2714
     43  N         14.2890   81.0540   24.0500 N.am  216  LEU216     -0.1977
     44  CA        13.7170   80.9680   22.7220 C.3   216  LEU216      0.1596
     45  C         13.5420   79.4910   22.3400 C.2   216  LEU216      0.2287
     46  O         14.3870   78.6660   22.6410 O.2   216  LEU216     -0.2864
     47  CB        14.6640   81.6610   21.7520 C.3   216  LEU216      0.0297
     48  CG        14.7920   83.1780   21.6710 C.3   216  LEU216      0.0022
     49  CD1       14.6370   83.8370   22.9620 C.3   216  LEU216      0.0001
     50  CD2       16.1900   83.5260   21.1520 C.3   216  LEU216      0.0001
     51  N          9.7940   82.6350   25.2220 N.3   222  PHE222     -0.1241
     52  CA         9.1980   82.3200   26.5120 C.3   222  PHE222      0.1605
     53  C          9.8520   83.1960   27.5580 C.2   222  PHE222      0.2264
     54  O         11.0270   83.4190   27.4900 O.2   222  PHE222     -0.2867
     55  CB         9.5040   80.8890   26.9130 C.3   222  PHE222      0.0534
     56  CG         8.9500   79.8780   26.0100 C.ar  222  PHE222     -0.0203
     57  CD1        7.6650   79.4040   26.2010 C.ar  222  PHE222     -0.0042
     58  CD2        9.7140   79.3650   24.9800 C.ar  222  PHE222     -0.0042
     59  CE1        7.1480   78.4600   25.3540 C.ar  222  PHE222     -0.0003
     60  CE2        9.1930   78.4110   24.1460 C.ar  222  PHE222     -0.0003
     61  CZ         7.9110   77.9810   24.3490 C.ar  222  PHE222     -0.0000
     62  N          9.7070   83.7100   31.9800 N.3   224  SER224     -0.1217
     63  CA         8.9940   83.3900   33.1930 C.3   224  SER224      0.1889
     64  C          8.8610   84.6610   34.0140 C.2   224  SER224      0.2288
     65  O          9.7810   85.4310   34.1130 O.2   224  SER224     -0.2866
     66  CB         9.5920   82.2640   33.9810 C.3   224  SER224      0.2089
     67  OG        10.9370   82.5120   34.3020 O.3   224  SER224     -0.2183
     68  N          6.1640   82.0670   40.0540 N.3   233  ARG233     -0.1245
     69  CA         6.2870   82.6220   38.7160 C.3   233  ARG233      0.1563
     70  C          5.5280   81.7100   37.6880 C.2   233  ARG233      0.2260
     71  O          5.0950   80.5790   38.0460 O.2   233  ARG233     -0.2867
     72  CB         7.7780   82.7820   38.3820 C.3   233  ARG233      0.0307
     73  CG         8.4710   81.4800   38.0790 C.3   233  ARG233      0.0489
     74  CD         9.9270   81.6570   38.0890 C.3   233  ARG233      0.2205
     75  NE        10.6270   80.4620   37.6340 N.pl3 233  ARG233     -0.0865
     76  CZ        11.1180   79.5160   38.4400 C.cat 233  ARG233      0.5346
     77  NH1       10.9720   79.5940   39.7570 N.pl3 233  ARG233      0.1354
     78  NH2       11.7400   78.4660   37.9170 N.pl3 233  ARG233      0.1354
     79  N          4.8220   81.0770   33.0310 N.3   235  ILE235     -0.1245
     80  CA         5.4340   81.2020   31.7150 C.3   235  ILE235      0.1561
     81  C          4.4900   82.0780   30.9220 C.2   235  ILE235      0.2260
     82  O          3.2820   81.8970   31.0130 O.2   235  ILE235     -0.2867
     83  CB         5.5330   79.8280   30.9930 C.3   235  ILE235      0.0252
     84  CG1        6.5570   78.9240   31.6360 C.3   235  ILE235      0.0019
     85  CG2        5.8450   79.9850   29.5030 C.3   235  ILE235      0.0019
     86  CD1        7.9710   79.3360   31.3310 C.3   235  ILE235      0.0001
     87  N         11.2990   74.5170   38.6250 N.3   258  PHE258     -0.1227
     88  CA        11.8050   75.0680   37.3980 C.3   258  PHE258      0.1736
     89  C         10.9040   74.5860   36.2470 C.2   258  PHE258      0.2595
     90  O         10.1290   73.6320   36.4150 O.2   258  PHE258     -0.2718
     91  CB        13.2790   74.6490   37.1720 C.3   258  PHE258      0.0547
     92  CG        13.5040   73.1370   37.0330 C.ar  258  PHE258     -0.0202
     93  CD1       13.5070   72.5230   35.7820 C.ar  258  PHE258     -0.0042
     94  CD2       13.7030   72.3360   38.1530 C.ar  258  PHE258     -0.0042
     95  CE1       13.6870   71.1360   35.6430 C.ar  258  PHE258     -0.0003
     96  CE2       13.9160   70.9720   38.0360 C.ar  258  PHE258     -0.0003
     97  CZ        13.9000   70.3620   36.7650 C.ar  258  PHE258     -0.0000
     98  N         11.0050   75.2720   35.1190 N.am  259  TYR259     -0.1962
     99  CA        10.4980   74.7850   33.8360 C.3   259  TYR259      0.1771
    100  C         11.7140   74.5060   32.9910 C.2   259  TYR259      0.2620
    101  O         12.7430   75.1620   33.1580 O.2   259  TYR259     -0.2715
    102  CB         9.7320   75.8640   33.0820 C.3   259  TYR259      0.0574
    103  CG         8.5950   76.4720   33.8300 C.ar  259  TYR259     -0.0198
    104  CD1        7.3480   75.8550   33.8440 C.ar  259  TYR259     -0.0009
    105  CD2        8.7610   77.6620   34.5530 C.ar  259  TYR259     -0.0009
    106  CE1        6.2750   76.4240   34.5650 C.ar  259  TYR259      0.0417
    107  CE2        7.6790   78.2390   35.2220 C.ar  259  TYR259      0.0417
    108  CZ         6.4560   77.6020   35.2190 C.ar  259  TYR259      0.1957
    109  OH         5.3830   78.1410   35.9210 O.3   259  TYR259     -0.2866
    110  N         11.5790   73.5950   32.0310 N.am  260  SER260     -0.1936
    111  CA        12.6760   73.3490   31.0550 C.3   260  SER260      0.2055
    112  C         12.0200   73.0190   29.7050 C.2   260  SER260      0.2643
    113  O         11.0370   72.2870   29.6590 O.2   260  SER260     -0.2714
    114  CB        13.4840   72.1490   31.4950 C.3   260  SER260      0.2130
    115  OG        14.5060   71.8790   30.5310 O.3   260  SER260     -0.2179
    116  N         12.4980   73.6400   28.6610 N.am  261  ILE261     -0.1963
    117  CA        12.0130   73.4390   27.3180 C.3   261  ILE261      0.1727
    118  C         12.8480   72.2650   26.9040 C.2   261  ILE261      0.2616
    119  O         14.0230   72.4130   26.6180 O.2   261  ILE261     -0.2715
    120  CB        12.4290   74.6140   26.4070 C.3   261  ILE261      0.0290
    121  CG1       11.8820   75.9360   26.8980 C.3   261  ILE261      0.0022
    122  CG2       12.0240   74.4040   24.9140 C.3   261  ILE261      0.0023
    123  CD1       10.5000   75.8910   27.1580 C.3   261  ILE261      0.0001
    124  N         12.2420   71.0980   26.9130 N.am  262  LEU262     -0.1977
    125  CA        12.8660   69.8310   26.4860 C.3   262  LEU262      0.1596
    126  C         13.2020   69.7950   25.0440 C.2   262  LEU262      0.2287
    127  O         14.2530   69.2500   24.6500 O.2   262  LEU262     -0.2864
    128  CB        11.8470   68.7160   26.7720 C.3   262  LEU262      0.0297
    129  CG        11.5600   68.5080   28.2390 C.3   262  LEU262      0.0022
    130  CD1       10.5050   67.4610   28.4000 C.3   262  LEU262      0.0001
    131  CD2       12.7720   68.1020   29.0070 C.3   262  LEU262      0.0001
    132  N         13.7670   64.0960   36.1670 N.3   303  TYR303     -0.1241
    133  CA        14.6130   65.2510   35.7950 C.3   303  TYR303      0.1605
    134  C         15.1570   65.7420   37.1440 C.2   303  TYR303      0.2264
    135  O         14.3790   66.2410   37.9920 O.2   303  TYR303     -0.2867
    136  CB        13.7730   66.3670   35.1750 C.3   303  TYR303      0.0534
    137  CG        14.5410   67.4020   34.3170 C.ar  303  TYR303     -0.0201
    138  CD1       13.9900   67.8800   33.1230 C.ar  303  TYR303     -0.0009
    139  CD2       15.7500   67.9040   34.7030 C.ar  303  TYR303     -0.0009
    140  CE1       14.6300   68.8320   32.3390 C.ar  303  TYR303      0.0417
    141  CE2       16.4570   68.8290   33.8780 C.ar  303  TYR303      0.0417
    142  CZ        15.8730   69.2830   32.7170 C.ar  303  TYR303      0.1957
    143  OH        16.5050   70.2040   31.9260 O.3   303  TYR303     -0.2866
    144  N         20.5700   68.6970   37.0990 N.3   308  GLY308     -0.1225
    145  CA        19.5390   68.8200   36.0700 C.3   308  GLY308      0.1811
    146  C         19.8230   67.7940   34.9930 C.2   308  GLY308      0.2280
    147  O         20.1730   68.1500   33.8810 O.2   308  GLY308     -0.2866
    148  N         18.3620   64.7130   32.7160 N.3   310  THR310     -0.1218
    149  CA        17.1020   64.1090   32.2590 C.3   310  THR310      0.1862
    150  C         17.4060   63.1150   31.1250 C.2   310  THR310      0.2287
    151  O         18.4350   63.2570   30.4240 O.2   310  THR310     -0.2866
    152  CB        16.0340   65.1480   31.7800 C.3   310  THR310      0.1770
    153  OG1       14.8990   64.4520   31.3010 O.3   310  THR310     -0.2211
    154  CG2       16.5110   65.9660   30.5650 C.3   310  THR310      0.0375
    155  N         15.4120   62.6020   28.5910 N.3   312  PHE312     -0.1241
    156  CA        14.6440   62.9820   27.3940 C.3   312  PHE312      0.1605
    157  C         15.4770   63.0530   26.1250 C.2   312  PHE312      0.2264
    158  O         16.4270   63.7960   26.1030 O.2   312  PHE312     -0.2867
    159  CB        13.8770   64.2710   27.6120 C.3   312  PHE312      0.0534
    160  CG        12.8640   64.5690   26.5160 C.ar  312  PHE312     -0.0203
    161  CD1       11.5710   64.1060   26.6230 C.ar  312  PHE312     -0.0042
    162  CD2       13.2130   65.3590   25.4040 C.ar  312  PHE312     -0.0042
    163  CE1       10.6520   64.4190   25.6180 C.ar  312  PHE312     -0.0003
    164  CE2       12.3120   65.6290   24.4010 C.ar  312  PHE312     -0.0003
    165  CZ        11.0430   65.1800   24.5250 C.ar  312  PHE312     -0.0000
@<TRIPOS>BOND
     1    50    48    1
     2    48    47    1
     3    48    49    1
     4    47    44    1
     5     4     3    2
     6     3     2    1
     7    45    46    2
     8    45    44    1
     9    44    43    1
    10     2     5    1
    11     2     1    1
    12     5     6    1
    13    43    41   am
    14    60    61   ar
    15    60    58   ar
    16    61    59   ar
    17   164   165   ar
    18   164   162   ar
    19   165   163   ar
    20   127   126    2
    21     6     7    1
    22   122   120    1
    23    42    41    2
    24    58    56   ar
    25   126   125    1
    26    41    40    1
    27     7     8    1
    28    51    52    1
    29    59    57   ar
    30   162   160   ar
    31   163   161   ar
    32     8     9    1
    33    36    34   ar
    34    36    38   ar
    35    56    57   ar
    36    56    55    1
    37   158   157    2
    38   157   156    1
    39    40    39    1
    40   120   121    1
    41   120   117    1
    42   125   128    1
    43   125   124    1
    44    52    55    1
    45    52    53    1
    46   160   161   ar
    47   160   159    1
    48    34    33   ar
    49   119   118    2
    50    38    37   ar
    51   128   129    1
    52   121   123    1
    53   118   124   am
    54   118   117    1
    55   117   116    1
    56    39    30   am
    57   156   159    1
    58   156   155    1
    59    54    53    2
    60    33    32    1
    61    33    35   ar
    62    37    35   ar
    63   129   130    1
    64   129   131    1
    65    30    31    2
    66    30    29    1
    67    32    29    1
    68   116   112   am
    69    29    28    1
    70    85    83    1
    71   113   112    2
    72   112   111    1
    73   151   150    2
    74   115   114    1
    75    28    24   am
    76   154   152    1
    77    81    82    2
    78    81    80    1
    79    83    84    1
    80    83    80    1
    81   111   114    1
    82   111   110    1
    83   150   149    1
    84   153   152    1
    85    86    84    1
    86    25    24    2
    87    24    23    1
    88    80    79    1
    89   152   149    1
    90   143   142    1
    91    62    63    1
    92   110   100   am
    93   149   148    1
    94   140   142   ar
    95   140   138   ar
    96    27    26    1
    97   142   141   ar
    98    23    26    1
    99    23    22    1
   100   100   101    2
   101   100    99    1
   102   102   103    1
   103   102    99    1
   104   138   137   ar
   105    63    66    1
   106    63    64    1
   107   103   104   ar
   108   103   105   ar
   109    99    98    1
   110   104   106   ar
   111   141   139   ar
   112   147   146    2
   113    66    67    1
   114    64    65    2
   115    22    12   am
   116   137   139   ar
   117   137   136    1
   118   105   107   ar
   119   106   108   ar
   120   146   145    1
   121    98    89   am
   122   136   133    1
   123    12    13    2
   124    12    11    1
   125   108   107   ar
   126   108   109    1
   127    10    11    1
   128    95    93   ar
   129    95    97   ar
   130    93    92   ar
   131   133   132    1
   132   133   134    1
   133   145   144    1
   134    11    14    1
   135    89    90    2
   136    89    88    1
   137    14    15    1
   138    97    96   ar
   139    92    91    1
   140    92    94   ar
   141   134   135    2
   142    91    88    1
   143    88    87    1
   144    75    74    1
   145    75    76    2
   146    17    15   ar
   147    17    19   ar
   148    70    71    2
   149    70    69    1
   150    15    16   ar
   151    78    76    1
   152    96    94   ar
   153    73    74    1
   154    73    72    1
   155    72    69    1
   156    76    77    1
   157    69    68    1
   158    19    20   ar
   159    16    18   ar
   160    20    18   ar
   161    20    21    1
