@<TRIPOS>MOLECULE
tmp/3f6kA01.pdb
 99 93 0 0 0
SMALL
GASTEIGER

@<TRIPOS>ATOM
      1  N         12.2640   70.2920   24.2060 N.3   263  ALA263     -0.1231
      2  CA        12.4230   70.2640   22.7540 C.3   263  ALA263      0.1694
      3  C         11.4410   71.1910   22.1380 C.2   263  ALA263      0.2592
      4  O         10.3120   71.3630   22.6270 O.2   263  ALA263     -0.2718
      5  CB        12.2110   68.8770   22.2200 C.3   263  ALA263      0.0304
      6  N         11.8520   71.8160   21.0520 N.am  264  ALA264     -0.1966
      7  CA        10.9580   72.7730   20.3830 C.3   264  ALA264      0.1728
      8  C         11.3090   72.8550   18.9150 C.2   264  ALA264      0.2616
      9  O         12.5350   72.7870   18.4910 O.2   264  ALA264     -0.2715
     10  CB        11.1050   74.1630   21.0220 C.3   264  ALA264      0.0334
     11  N         10.2430   72.9620   18.1220 N.am  265  ASN265     -0.1958
     12  CA        10.3890   73.1500   16.6950 C.3   265  ASN265      0.1819
     13  C          9.4130   74.1780   16.1810 C.2   265  ASN265      0.2621
     14  O          8.9340   75.0260   16.9490 O.2   265  ASN265     -0.2715
     15  CB        10.3250   71.8060   15.9350 C.3   265  ASN265      0.1195
     16  CG         9.0040   71.1230   16.0810 C.2   265  ASN265      0.2630
     17  OD1        7.9750   71.7270   16.3770 O.2   265  ASN265     -0.2716
     18  ND2        9.0140   69.8380   15.8510 N.am  265  ASN265     -0.0877
     19  N          9.1280   74.1300   14.8860 N.am  266  ASP266     -0.1971
     20  CA         8.2980   75.1600   14.2590 C.3   266  ASP266      0.1709
     21  C          6.8570   74.9200   14.5590 C.2   266  ASP266      0.2293
     22  O          6.0200   75.7360   14.2930 O.2   266  ASP266     -0.2864
     23  CB         8.4890   75.1380   12.7610 C.3   266  ASP266      0.1436
     24  CG         9.8430   75.6860   12.3490 C.2   266  ASP266      0.3671
     25  OD1       10.0950   76.9010   12.6200 O.co2 266  ASP266     -0.2456
     26  OD2       10.6510   74.9310   11.7410 O.co2 266  ASP266     -0.2456
     27  N          5.5710   73.0230   17.7380 N.3   268  MET268     -0.1245
     28  CA         5.1850   72.8710   19.1280 C.3   268  MET268      0.1570
     29  C          6.4010   72.8110   20.0160 C.2   268  MET268      0.2261
     30  O          7.5680   72.8400   19.5390 O.2   268  MET268     -0.2867
     31  CB         4.3390   71.5970   19.3190 C.3   268  MET268      0.0387
     32  CG         5.0040   70.2830   18.7590 C.3   268  MET268      0.0595
     33  SD         6.2130   69.5760   19.8900 S.3   268  MET268     -0.1393
     34  CE         5.1250   68.7280   21.0820 C.3   268  MET268      0.0692
     35  N          7.8240   70.7610   23.8390 N.3   270  PHE270     -0.1241
     36  CA         7.6410   69.8770   24.9850 C.3   270  PHE270      0.1605
     37  C          8.1790   70.6770   26.1720 C.2   270  PHE270      0.2264
     38  O          9.2730   71.1670   26.0700 O.2   270  PHE270     -0.2867
     39  CB         8.4790   68.6250   24.8920 C.3   270  PHE270      0.0534
     40  CG         8.0160   67.6030   23.8870 C.ar  270  PHE270     -0.0203
     41  CD1        7.4720   66.3810   24.3370 C.ar  270  PHE270     -0.0042
     42  CD2        8.2440   67.7750   22.5310 C.ar  270  PHE270     -0.0042
     43  CE1        7.1190   65.3520   23.4220 C.ar  270  PHE270     -0.0003
     44  CE2        7.8400   66.7680   21.5790 C.ar  270  PHE270     -0.0003
     45  CZ         7.2960   65.5710   22.0380 C.ar  270  PHE270     -0.0000
     46  N         15.1170   63.1350   21.6960 N.3   314  ASN314     -0.1240
     47  CA        14.4750   63.0090   20.3880 C.3   314  ASN314      0.1653
     48  C         15.1880   61.9230   19.6130 C.2   314  ASN314      0.2266
     49  O         16.4200   61.9260   19.4380 O.2   314  ASN314     -0.2867
     50  CB        14.6710   64.3670   19.7090 C.3   314  ASN314      0.1155
     51  CG        13.9700   64.5070   18.3790 C.2   314  ASN314      0.2627
     52  OD1       13.4900   63.5600   17.7800 O.2   314  ASN314     -0.2716
     53  ND2       13.9450   65.7330   17.9040 N.am  314  ASN314     -0.0877
     54  N         16.1560   61.1720   16.4980 N.3   316  THR316     -0.1218
     55  CA        16.1000   62.0480   15.3440 C.3   316  THR316      0.1862
     56  C         15.9010   61.2820   14.0670 C.2   316  THR316      0.2287
     57  O         15.6670   61.8750   13.0130 O.2   316  THR316     -0.2866
     58  CB        17.3860   62.8590   15.2690 C.3   316  THR316      0.1770
     59  OG1       18.4760   61.9580   15.1710 O.3   316  THR316     -0.2211
     60  CG2       17.5800   63.5700   16.5750 C.3   316  THR316      0.0375
     61  N         10.4370   60.4620   12.5560 N.3   319  ARG319     -0.1245
     62  CA         9.5260   61.5380   12.9310 C.3   319  ARG319      0.1563
     63  C          8.6240   61.1210   14.0480 C.2   319  ARG319      0.2260
     64  O          8.1500   59.9860   13.9890 O.2   319  ARG319     -0.2867
     65  CB         8.7210   61.8330   11.6620 C.3   319  ARG319      0.0307
     66  CG         7.5320   62.7870   11.8430 C.3   319  ARG319      0.0489
     67  CD         6.9160   63.0870   10.4320 C.3   319  ARG319      0.2205
     68  NE         6.2640   61.8870    9.9160 N.pl3 319  ARG319     -0.0865
     69  CZ         4.9690   61.6740   10.1210 C.cat 319  ARG319      0.5346
     70  NH1        4.2510   62.6090   10.8000 N.pl3 319  ARG319      0.1354
     71  NH2        4.4050   60.5680    9.6700 N.pl3 319  ARG319      0.1354
     72  N         10.1840   59.9260   20.4440 N.3   322  TYR322     -0.1241
     73  CA        11.0120   60.4410   21.5700 C.3   322  TYR322      0.1605
     74  C         11.0930   59.3250   22.6080 C.2   322  TYR322      0.2264
     75  O         10.1280   58.5910   22.7600 O.2   322  TYR322     -0.2867
     76  CB        10.3180   61.7260   22.2090 C.3   322  TYR322      0.0534
     77  CG        10.1780   62.8350   21.1910 C.ar  322  TYR322     -0.0201
     78  CD1       11.0220   63.9370   21.1870 C.ar  322  TYR322     -0.0009
     79  CD2        9.1740   62.7770   20.2390 C.ar  322  TYR322     -0.0009
     80  CE1       10.8650   64.9650   20.1960 C.ar  322  TYR322      0.0417
     81  CE2        8.9940   63.8050   19.2480 C.ar  322  TYR322      0.0417
     82  CZ         9.8720   64.8340   19.2350 C.ar  322  TYR322      0.1957
     83  OH         9.6830   65.7380   18.2390 O.3   322  TYR322     -0.2866
     84  N         19.3570   61.9940   11.6850 N.3   390  PRO390     -0.2116
     85  CA        18.2150   62.2460   10.7700 C.3   390  PRO390      0.1372
     86  C         18.4020   61.5060    9.4240 C.2   390  PRO390      0.2244
     87  O         17.4330   61.0130    8.8460 O.2   390  PRO390     -0.2868
     88  CB        18.3280   63.7390   10.5050 C.3   390  PRO390      0.0268
     89  CG        18.8800   64.3000   11.6420 C.3   390  PRO390      0.0207
     90  CD        19.7820   63.2580   12.3350 C.3   390  PRO390      0.0892
     91  N         11.8890   60.2030    0.2590 N.3   569  LYS569     -0.1245
     92  CA        10.6490   59.7080    0.8980 C.3   569  LYS569      0.1561
     93  C          9.4430   60.2930    0.1770 C.2   569  LYS569      0.2260
     94  O          9.5760   61.2760   -0.6260 O.2   569  LYS569     -0.2867
     95  CB        10.5910   60.0600    2.3750 C.3   569  LYS569      0.0271
     96  CG        10.7210   61.5780    2.6280 C.3   569  LYS569      0.0035
     97  CD        10.1190   61.9460    3.9440 C.3   569  LYS569      0.0206
     98  CE        10.5620   63.3520    4.3690 C.3   569  LYS569      0.1093
     99  NZ        12.0580   63.4670    4.1850 N.3   569  LYS569     -0.1314
@<TRIPOS>BOND
     1    94    93    2
     2    93    92    1
     3    91    92    1
     4    92    95    1
     5    95    96    1
     6    96    97    1
     7    97    98    1
     8    99    98    1
     9    87    86    2
    10    86    85    1
    11    71    69    1
    12    68    69    2
    13    68    67    1
    14    69    70    1
    15    67    66    1
    16    88    85    1
    17    88    89    1
    18    85    84    1
    19    89    90    1
    20    65    66    1
    21    65    62    1
    22    84    90    1
    23    26    24   ar
    24    24    25   ar
    25    24    23    1
    26    61    62    1
    27    23    20    1
    28    62    63    1
    29    57    56    2
    30    64    63    2
    31    56    55    1
    32    20    21    1
    33    20    19    1
    34    22    21    2
    35    19    13   am
    36    59    58    1
    37    58    55    1
    38    58    60    1
    39    55    54    1
    40    18    16   am
    41    15    16    1
    42    15    12    1
    43    16    17    2
    44    13    12    1
    45    13    14    2
    46    12    11    1
    47    27    28    1
    48    52    51    2
    49    53    51   am
    50    11     8   am
    51    83    82    1
    52    51    50    1
    53     9     8    2
    54    32    31    1
    55    32    33    1
    56     8     7    1
    57    28    31    1
    58    28    29    1
    59    82    81   ar
    60    82    80   ar
    61    81    79   ar
    62    49    48    2
    63    30    29    2
    64    48    47    1
    65    50    47    1
    66    33    34    1
    67    80    78   ar
    68    79    77   ar
    69     7    10    1
    70     7     6    1
    71    47    46    1
    72    72    73    1
    73     6     3   am
    74    78    77   ar
    75    77    76    1
    76    73    76    1
    77    73    74    1
    78    44    45   ar
    79    44    42   ar
    80    45    43   ar
    81     3     4    2
    82     3     2    1
    83     5     2    1
    84    42    40   ar
    85    74    75    2
    86     2     1    1
    87    43    41   ar
    88    35    36    1
    89    40    41   ar
    90    40    39    1
    91    39    36    1
    92    36    37    1
    93    38    37    2
