@<TRIPOS>MOLECULE
tmp/3f6sB00.pdb
 150 148 0 0 0
SMALL
GASTEIGER

@<TRIPOS>ATOM
      1  N        -36.5040  -11.1610   -4.2610 N.3     9  SER9       -0.1202
      2  CA       -35.4010  -11.8230   -3.5890 C.3     9  SER9        0.2020
      3  C        -34.4100  -10.8010   -3.0160 C.2     9  SER9        0.2619
      4  O        -33.9290   -9.9160   -3.7300 O.2     9  SER9       -0.2717
      5  CB       -34.7020  -12.7710   -4.5710 C.3     9  SER9        0.2103
      6  OG       -33.9370  -13.7460   -3.8950 O.3     9  SER9       -0.2182
      7  N        -34.1030  -10.9280   -1.7290 N.am   10  SER10      -0.1937
      8  CA       -33.1830  -10.0000   -1.0740 C.3    10  SER10       0.2055
      9  C        -31.8120  -10.6000   -0.7840 C.2    10  SER10       0.2643
     10  O        -30.8220   -9.8810   -0.7670 O.2    10  SER10      -0.2714
     11  CB       -33.7940   -9.4310    0.2040 C.3    10  SER10       0.2130
     12  OG       -34.8310   -8.5160   -0.1160 O.3    10  SER10      -0.2179
     13  N        -31.7340  -11.9050   -0.5550 N.am   11  THR11      -0.1950
     14  CA       -30.4240  -12.5060   -0.3440 C.3    11  THR11       0.1897
     15  C        -30.1170  -13.6130   -1.3360 C.2    11  THR11       0.2313
     16  O        -29.2070  -14.3980   -1.1180 O.2    11  THR11      -0.2863
     17  CB       -30.2010  -12.9910    1.1210 C.3    11  THR11       0.1794
     18  OG1      -30.9510  -14.1850    1.3770 O.3    11  THR11      -0.2208
     19  CG2      -30.6150  -11.9110    2.1120 C.3    11  THR11       0.0378
     20  N        -31.9990  -16.1800   -2.4680 N.3    13  ASN13      -0.1225
     21  CA       -32.6100  -17.4980   -2.2940 C.3    13  ASN13       0.1785
     22  C        -33.7810  -17.7980   -3.2260 C.2    13  ASN13       0.2597
     23  O        -33.8000  -18.8330   -3.8890 O.2    13  ASN13      -0.2718
     24  CB       -33.0310  -17.7010   -0.8360 C.3    13  ASN13       0.1169
     25  CG       -31.8530  -17.9450    0.0820 C.2    13  ASN13       0.2627
     26  OD1      -30.7380  -18.1820   -0.3720 O.2    13  ASN13      -0.2716
     27  ND2      -32.0940  -17.8840    1.3830 N.am   13  ASN13      -0.0877
     28  N        -34.7640  -16.9050   -3.2520 N.am   14  THR14      -0.1953
     29  CA       -35.9060  -17.0530   -4.1400 C.3    14  THR14       0.1897
     30  C        -35.4280  -16.9840   -5.5790 C.2    14  THR14       0.2313
     31  O        -35.8700  -17.7590   -6.4240 O.2    14  THR14      -0.2863
     32  CB       -36.9640  -15.9600   -3.8970 C.3    14  THR14       0.1794
     33  OG1      -37.4340  -16.0460   -2.5440 O.3    14  THR14      -0.2208
     34  CG2      -38.1370  -16.1260   -4.8470 C.3    14  THR14       0.0378
     35  N        -39.9100  -13.9500   -1.1480 N.3    57  SER57      -0.1202
     36  CA       -39.4280  -14.3760    0.1560 C.3    57  SER57       0.2020
     37  C        -40.2100  -13.6930    1.2660 C.2    57  SER57       0.2619
     38  O        -40.9590  -12.7490    1.0170 O.2    57  SER57      -0.2717
     39  CB       -37.9300  -14.1120    0.3040 C.3    57  SER57       0.2103
     40  OG       -37.6080  -12.7690    0.0090 O.3    57  SER57      -0.2182
     41  N        -40.0110  -14.1710    2.4910 N.am   58  ALA58      -0.1965
     42  CA       -40.7920  -13.7420    3.6430 C.3    58  ALA58       0.1728
     43  C        -40.0220  -12.7500    4.5180 C.2    58  ALA58       0.2616
     44  O        -38.8520  -12.9610    4.8240 O.2    58  ALA58      -0.2715
     45  CB       -41.2100  -14.9620    4.4520 C.3    58  ALA58       0.0334
     46  N        -40.6840  -11.6710    4.9240 N.am   59  TRP59      -0.1960
     47  CA       -40.0390  -10.6420    5.7350 C.3    59  TRP59       0.1771
     48  C        -40.9810  -10.0500    6.7940 C.2    59  TRP59       0.2620
     49  O        -41.6550   -9.0490    6.5600 O.2    59  TRP59      -0.2715
     50  CB       -39.4330   -9.5710    4.8230 C.3    59  TRP59       0.0590
     51  CG       -38.3940  -10.1670    3.9320 C.ar   59  TRP59       0.0006
     52  CD1      -38.5900  -10.6960    2.6930 C.ar   59  TRP59       0.0946
     53  CD2      -37.0010  -10.3430    4.2260 C.ar   59  TRP59       0.0152
     54  NE1      -37.4080  -11.1820    2.1850 N.ar   59  TRP59      -0.2442
     55  CE2      -36.4140  -10.9780    3.1090 C.ar   59  TRP59       0.0810
     56  CE3      -36.1920  -10.0280    5.3240 C.ar   59  TRP59       0.0012
     57  CZ2      -35.0590  -11.2990    3.0540 C.ar   59  TRP59       0.0191
     58  CZ3      -34.8510  -10.3480    5.2690 C.ar   59  TRP59       0.0001
     59  CH2      -34.2960  -10.9780    4.1360 C.ar   59  TRP59       0.0015
     60  N        -41.0220  -10.6830    7.9610 N.am   60  GLY60      -0.1940
     61  CA       -42.0100  -10.3480    8.9730 C.3    60  GLY60       0.2014
     62  C        -42.0480   -8.8910    9.4050 C.2    60  GLY60       0.2638
     63  O        -43.1210   -8.3050    9.5660 O.2    60  GLY60      -0.2714
     64  N        -40.8690   -8.3060    9.5740 N.am   61  MET61      -0.1976
     65  CA       -40.7210   -7.0000   10.2100 C.3    61  MET61       0.1605
     66  C        -41.0700   -5.8070    9.3250 C.2    61  MET61       0.2287
     67  O        -41.9410   -5.8980    8.4630 O.2    61  MET61      -0.2864
     68  CB       -39.3030   -6.8300   10.7750 C.3    61  MET61       0.0413
     69  CG       -39.1540   -7.3410   12.1940 C.3    61  MET61       0.0598
     70  SD       -40.6800   -6.9740   13.0600 S.3    61  MET61      -0.1393
     71  CE       -41.5330   -8.5460   12.9390 C.3    61  MET61       0.0692
     72  N        -45.1250   -7.4820    5.3880 N.3    65  GLU65      -0.1245
     73  CA       -44.8620   -8.9300    5.1920 C.3    65  GLU65       0.1567
     74  C        -44.1160   -9.4890    3.9640 C.2    65  GLU65       0.2260
     75  O        -43.5520  -10.5940    4.0250 O.2    65  GLU65      -0.2867
     76  CB       -46.0900   -9.7810    5.4830 C.3    65  GLU65       0.0388
     77  CG       -45.7000  -11.2320    5.8420 C.3    65  GLU65       0.1160
     78  CD       -46.3570  -11.7340    7.1170 C.2    65  GLU65       0.3649
     79  OE1      -46.3270  -12.9550    7.3780 O.co2  65  GLU65      -0.2457
     80  OE2      -46.8980  -10.8960    7.8510 O.co2  65  GLU65      -0.2457
     81  N        -38.9780  -18.6180   -0.4240 N.3    92  SER92      -0.1202
     82  CA       -37.9980  -19.0640    0.5410 C.3    92  SER92       0.2020
     83  C        -38.3070  -18.3130    1.8330 C.2    92  SER92       0.2619
     84  O        -38.7280  -17.1570    1.7970 O.2    92  SER92      -0.2717
     85  CB       -36.5920  -18.7530    0.0430 C.3    92  SER92       0.2103
     86  OG       -35.6230  -19.4070    0.8390 O.3    92  SER92      -0.2182
     87  N        -38.1390  -18.9800    2.9670 N.am   93  GLY93      -0.1942
     88  CA       -38.4800  -18.4010    4.2450 C.3    93  GLY93       0.2014
     89  C        -37.7940  -19.1640    5.3590 C.2    93  GLY93       0.2638
     90  O        -36.8300  -19.8950    5.1180 O.2    93  GLY93      -0.2714
     91  N        -38.2940  -18.9900    6.5790 N.am   94  ASP94      -0.1971
     92  CA       -37.7030  -19.6280    7.7490 C.3    94  ASP94       0.1709
     93  C        -38.7830  -20.0780    8.7370 C.2    94  ASP94       0.2293
     94  O        -39.6230  -19.2850    9.1500 O.2    94  ASP94      -0.2864
     95  CB       -36.7030  -18.6910    8.4310 C.3    94  ASP94       0.1436
     96  CG       -35.9250  -19.3770    9.5330 C.2    94  ASP94       0.3671
     97  OD1      -36.2170  -20.5570    9.8190 O.co2  94  ASP94      -0.2456
     98  OD2      -35.0200  -18.7400   10.1190 O.co2  94  ASP94      -0.2456
     99  N        -39.8860  -18.6880   12.1760 N.3    97  TYR97      -0.1227
    100  CA       -40.7170  -17.5020   12.1910 C.3    97  TYR97       0.1736
    101  C        -42.1720  -17.9210   12.2480 C.2    97  TYR97       0.2595
    102  O        -42.5520  -18.9540   11.6990 O.2    97  TYR97      -0.2718
    103  CB       -40.4410  -16.6300   10.9680 C.3    97  TYR97       0.0548
    104  CG       -39.1990  -15.7870   11.1070 C.ar   97  TYR97      -0.0200
    105  CD1      -37.9520  -16.2840   10.7540 C.ar   97  TYR97      -0.0009
    106  CD2      -39.2710  -14.5000   11.6030 C.ar   97  TYR97      -0.0009
    107  CE1      -36.8130  -15.5120   10.8890 C.ar   97  TYR97       0.0417
    108  CE2      -38.1420  -13.7230   11.7380 C.ar   97  TYR97       0.0417
    109  CZ       -36.9210  -14.2300   11.3840 C.ar   97  TYR97       0.1957
    110  OH       -35.8060  -13.4450   11.5330 O.3    97  TYR97      -0.2866
    111  N        -42.9820  -17.1180   12.9240 N.am   98  GLU98      -0.1965
    112  CA       -44.3710  -17.4780   13.1820 C.3    98  GLU98       0.1733
    113  C        -45.1520  -17.7950   11.9030 C.2    98  GLU98       0.2616
    114  O        -45.9050  -18.7550   11.8530 O.2    98  GLU98      -0.2715
    115  CB       -45.0630  -16.3630   13.9670 C.3    98  GLU98       0.0429
    116  CG       -46.4130  -16.7540   14.5380 C.3    98  GLU98       0.1163
    117  CD       -47.1120  -15.5770   15.1790 C.2    98  GLU98       0.3649
    118  OE1      -46.4030  -14.6240   15.5680 O.co2  98  GLU98      -0.2457
    119  OE2      -48.3590  -15.6000   15.2880 O.co2  98  GLU98      -0.2457
    120  N        -44.9650  -16.9800   10.8750 N.am   99  HIS99      -0.1959
    121  CA       -45.6970  -17.1450    9.6270 C.3    99  HIS99       0.1787
    122  C        -44.7370  -17.4810    8.4980 C.2    99  HIS99       0.2620
    123  O        -44.0520  -16.6200    7.9570 O.2    99  HIS99      -0.2715
    124  CB       -46.5340  -15.8990    9.3160 C.3    99  HIS99       0.0785
    125  CG       -47.4040  -15.4650   10.4550 C.ar   99  HIS99       0.0821
    126  ND1      -47.1830  -14.3020   11.1620 N.ar   99  HIS99      -0.2267
    127  CD2      -48.4770  -16.0550   11.0320 C.ar   99  HIS99       0.1154
    128  CE1      -48.0920  -14.1870   12.1130 C.ar   99  HIS99       0.1986
    129  NE2      -48.8890  -15.2390   12.0560 N.ar   99  HIS99      -0.2212
    130  N        -44.7080  -18.7650    8.1680 N.am  100  PHE100     -0.1960
    131  CA       -43.7890  -19.3390    7.2100 C.3   100  PHE100      0.1771
    132  C        -44.2750  -19.1330    5.7720 C.2   100  PHE100      0.2619
    133  O        -45.3340  -19.6320    5.3720 O.2   100  PHE100     -0.2715
    134  CB       -43.6470  -20.8270    7.5190 C.3   100  PHE100      0.0574
    135  CG       -42.7160  -21.5560    6.6120 C.ar  100  PHE100     -0.0200
    136  CD1      -41.3920  -21.1700    6.4990 C.ar  100  PHE100     -0.0042
    137  CD2      -43.1570  -22.6490    5.8920 C.ar  100  PHE100     -0.0042
    138  CE1      -40.5270  -21.8570    5.6650 C.ar  100  PHE100     -0.0003
    139  CE2      -42.2980  -23.3390    5.0570 C.ar  100  PHE100     -0.0003
    140  CZ       -40.9810  -22.9430    4.9500 C.ar  100  PHE100     -0.0000
    141  N        -43.4790  -18.3920    5.0020 N.am  101  CYS101     -0.1968
    142  CA       -43.7940  -18.0790    3.6170 C.3   101  CYS101      0.1712
    143  C        -45.2460  -17.6380    3.4490 C.2   101  CYS101      0.2296
    144  O        -45.9620  -18.1620    2.6020 O.2   101  CYS101     -0.2864
    145  CB       -43.4710  -19.2600    2.7020 C.3   101  CYS101      0.0983
    146  SG       -41.7550  -19.8560    2.7930 S.3   101  CYS101     -0.0798
    147  N        -33.9700  -21.7010    2.6040 N.3   127  GLY127     -0.1225
    148  CA       -32.7050  -21.6660    1.8800 C.3   127  GLY127      0.1811
    149  C        -32.8510  -21.4870    0.3820 C.2   127  GLY127      0.2280
    150  O        -33.9230  -21.0950   -0.1110 O.2   127  GLY127     -0.2866
@<TRIPOS>BOND
     1    31    30    2
     2    30    29    1
     3    34    32    1
     4     5     6    1
     5     5     2    1
     6     1     2    1
     7    29    32    1
     8    29    28    1
     9    32    33    1
    10    23    22    2
    11     4     3    2
    12     2     3    1
    13    28    22   am
    14    22    21    1
    15     3     7   am
    16    20    21    1
    17    21    24    1
    18     7     8    1
    19    15    16    2
    20    15    14    1
    21    35    36    1
    22     8     9    1
    23     8    11    1
    24    24    25    1
    25     9    10    2
    26     9    13   am
    27    13    14    1
    28    81    82    1
    29    26    25    2
    30    14    17    1
    31    12    11    1
    32   150   149    2
    33    40    39    1
    34    85    82    1
    35    85    86    1
    36    25    27   am
    37    36    39    1
    38    36    37    1
    39   149   148    1
    40    82    83    1
    41    38    37    2
    42    17    18    1
    43    17    19    1
    44    37    41   am
    45    84    83    2
    46    83    87   am
    47   148   147    1
    48    54    52   ar
    49    54    55   ar
    50    41    42    1
    51   144   143    2
    52    52    51   ar
    53   145   146    1
    54   145   142    1
    55    87    88    1
    56    57    55   ar
    57    57    59   ar
    58    55    53   ar
    59   143   142    1
    60   142   141    1
    61    42    45    1
    62    42    43    1
    63    51    53   ar
    64    51    50    1
    65    74    75    2
    66    74    73    1
    67    59    58   ar
    68    53    56   ar
    69    88    89    1
    70    43    44    2
    71    43    46   am
    72    50    47    1
    73    46    47    1
    74   140   139   ar
    75   140   138   ar
    76   141   132   am
    77   139   137   ar
    78    90    89    2
    79    73    72    1
    80    73    76    1
    81    58    56   ar
    82    89    91   am
    83   133   132    2
    84    76    77    1
    85   138   136   ar
    86    47    48    1
    87   132   131    1
    88    77    78    1
    89   137   135   ar
    90   136   135   ar
    91    49    48    2
    92    91    92    1
    93   135   134    1
    94    48    60   am
    95    78    79   ar
    96    78    80   ar
    97   131   134    1
    98   131   130    1
    99    92    95    1
   100    92    93    1
   101   123   122    2
   102    60    61    1
   103   130   122   am
   104    95    96    1
   105    67    66    2
   106   122   121    1
   107    93    94    2
   108    61    62    1
   109   124   121    1
   110   124   125    1
   111    66    65    1
   112    62    63    2
   113    62    64   am
   114    96    97   ar
   115    96    98   ar
   116    64    65    1
   117   121   120    1
   118    65    68    1
   119   125   127   ar
   120   125   126   ar
   121   105   107   ar
   122   105   104   ar
   123    68    69    1
   124   120   113   am
   125   107   109   ar
   126   103   104    1
   127   103   100    1
   128   127   129   ar
   129   104   106   ar
   130   126   128   ar
   131   109   110    1
   132   109   108   ar
   133   106   108   ar
   134   102   101    2
   135   114   113    2
   136   113   112    1
   137   129   128   ar
   138    99   100    1
   139   100   101    1
   140    69    70    1
   141   101   111   am
   142   111   112    1
   143    71    70    1
   144   112   115    1
   145   115   116    1
   146   116   117    1
   147   117   119   ar
   148   117   118   ar
