@<TRIPOS>MOLECULE
tmp/3f6xA00.pdb
 161 151 0 0 0
SMALL
GASTEIGER

@<TRIPOS>ATOM
      1  N        -12.2070   -8.3620   11.0330 N.3    19  LEU19      -0.1231
      2  CA       -11.4460   -7.1240   11.0520 C.3    19  LEU19       0.1696
      3  C        -11.7660   -6.1800    9.9020 C.2    19  LEU19       0.2632
      4  O        -11.3230   -5.0330    9.9030 O.2    19  LEU19      -0.2714
      5  CB        -9.9430   -7.4220   11.0730 C.3    19  LEU19       0.0284
      6  CG        -9.3990   -8.0650   12.3540 C.3    19  LEU19       0.0019
      7  CD1       -7.8950   -8.2350   12.2390 C.3    19  LEU19       0.0001
      8  CD2       -9.7420   -7.2010   13.5570 C.3    19  LEU19       0.0001
      9  N        -12.5310   -6.6450    8.9220 N.am   20  GLY20      -0.1718
     10  CA       -12.8600   -5.7620    7.8200 C.2    20  GLY20       0.1480
     11  C        -13.4630   -6.3940    6.5830 C.2    20  GLY20       0.2820
     12  O        -13.2740   -7.5780    6.3050 O.2    20  GLY20      -0.2669
     13  N        -14.2010   -5.5750    5.8400 N.am   21  GLN21      -0.1943
     14  CA       -14.8510   -5.9910    4.6020 C.3    21  GLN21       0.1604
     15  C        -13.7960   -5.8650    3.5050 C.2    21  GLN21       0.2287
     16  O        -12.8030   -5.1590    3.6820 O.2    21  GLN21      -0.2864
     17  CB       -16.0230   -5.0550    4.2970 C.3    21  GLN21       0.0394
     18  CG       -16.9440   -4.7860    5.4800 C.3    21  GLN21       0.0908
     19  CD       -17.7790   -3.5220    5.3010 C.2    21  GLN21       0.2608
     20  OE1      -18.5180   -3.3790    4.3260 O.2    21  GLN21      -0.2717
     21  NE2      -17.6620   -2.5990    6.2510 N.am   21  GLN21      -0.0878
     22  N        -11.1070  -10.1040    6.0910 N.3    27  VAL27      -0.1245
     23  CA        -9.8620  -10.1920    6.8460 C.3    27  VAL27       0.1561
     24  C        -10.2420  -10.4050    8.3040 C.2    27  VAL27       0.2260
     25  O        -10.8080   -9.5200    8.9400 O.2    27  VAL27      -0.2867
     26  CB        -9.0240   -8.8960    6.7400 C.3    27  VAL27       0.0252
     27  CG1       -7.7990   -9.0000    7.6350 C.3    27  VAL27       0.0019
     28  CG2       -8.6000   -8.6560    5.2990 C.3    27  VAL27       0.0019
     29  N         -3.6150  -13.0640   11.8890 N.3    39  ALA39      -0.1245
     30  CA        -4.5860  -12.3410   11.0840 C.3    39  ALA39       0.1562
     31  C         -4.7890  -13.2210    9.8620 C.2    39  ALA39       0.2260
     32  O         -3.8520  -13.8750    9.4090 O.2    39  ALA39      -0.2867
     33  CB        -4.0320  -10.9750   10.6800 C.3    39  ALA39       0.0290
     34  N         -6.5920  -13.4230    5.8630 N.3    41  LYS41      -0.1245
     35  CA        -7.2770  -12.7920    4.7430 C.3    41  LYS41       0.1561
     36  C         -8.0530  -13.8500    3.9620 C.2    41  LYS41       0.2260
     37  O         -7.4920  -14.5490    3.1180 O.2    41  LYS41      -0.2867
     38  CB        -6.2750  -12.0940    3.8220 C.3    41  LYS41       0.0271
     39  CG        -5.5060  -10.9550    4.4790 C.3    41  LYS41       0.0035
     40  CD        -4.6170  -10.2250    3.4760 C.3    41  LYS41       0.0206
     41  CE        -5.4430   -9.5870    2.3640 C.3    41  LYS41       0.1093
     42  NZ        -4.6060   -8.8650    1.3660 N.3    41  LYS41      -0.1314
     43  N         -0.4430  -12.8520   -3.7030 N.3    51  GLU51      -0.1245
     44  CA         0.1020  -12.0050   -2.6440 C.3    51  GLU51       0.1567
     45  C          0.9450  -12.8680   -1.7070 C.2    51  GLU51       0.2260
     46  O          1.9360  -12.4080   -1.1400 O.2    51  GLU51      -0.2867
     47  CB        -1.0110  -11.3140   -1.8470 C.3    51  GLU51       0.0388
     48  CG        -0.4760  -10.2440   -0.8950 C.3    51  GLU51       0.1160
     49  CD        -1.5460   -9.6070   -0.0250 C.2    51  GLU51       0.3649
     50  OE1       -2.6190   -9.2500   -0.5570 O.co2  51  GLU51      -0.2457
     51  OE2       -1.3020   -9.4490    1.1920 O.co2  51  GLU51      -0.2457
     52  N          4.6840   -6.8040    6.9160 N.3    64  VAL64      -0.1245
     53  CA         3.8380   -7.7660    7.6170 C.3    64  VAL64       0.1561
     54  C          4.2220   -9.1710    7.1700 C.2    64  VAL64       0.2260
     55  O          4.0710   -9.5340    6.0040 O.2    64  VAL64      -0.2867
     56  CB         2.3480   -7.5220    7.3300 C.3    64  VAL64       0.0252
     57  CG1        1.5080   -8.5960    8.0070 C.3    64  VAL64       0.0019
     58  CG2        1.9480   -6.1460    7.8430 C.3    64  VAL64       0.0019
     59  N         -1.1020  -14.3720    8.4830 N.3    79  THR79      -0.1203
     60  CA         0.0170  -13.4600    8.6200 C.3    79  THR79       0.1994
     61  C          0.1060  -12.9270   10.0400 C.2    79  THR79       0.2618
     62  O         -0.7430  -13.1960   10.8860 O.2    79  THR79      -0.2717
     63  CB        -0.1260  -12.2410    7.6910 C.3    79  THR79       0.1784
     64  OG1       -1.1700  -11.3890    8.1840 O.3    79  THR79      -0.2211
     65  CG2       -0.4590  -12.6780    6.2720 C.3    79  THR79       0.0376
     66  N          1.1590  -12.1610   10.2710 N.am   80  GLU80      -0.1965
     67  CA         1.4300  -11.5230   11.5440 C.3    80  GLU80       0.1733
     68  C          0.2370  -10.6510   11.9040 C.2    80  GLU80       0.2616
     69  O         -0.4720  -10.1660   11.0240 O.2    80  GLU80      -0.2715
     70  CB         2.6750  -10.6660   11.3760 C.3    80  GLU80       0.0429
     71  CG         3.0950   -9.8550   12.5600 C.3    80  GLU80       0.1163
     72  CD         4.2970   -9.0020   12.2230 C.2    80  GLU80       0.3649
     73  OE1        4.9260   -9.2550   11.1720 O.co2  80  GLU80      -0.2457
     74  OE2        4.6200   -8.0880   13.0070 O.co2  80  GLU80      -0.2457
     75  N          0.0190  -10.4480   13.1970 N.am   81  TYR81      -0.1960
     76  CA        -1.0960   -9.6340   13.6550 C.3    81  TYR81       0.1771
     77  C         -0.6100   -8.2630   14.1250 C.2    81  TYR81       0.2619
     78  O          0.3700   -8.1580   14.8660 O.2    81  TYR81      -0.2715
     79  CB        -1.8360  -10.3500   14.7970 C.3    81  TYR81       0.0574
     80  CG        -2.9120   -9.5090   15.4550 C.ar   81  TYR81      -0.0198
     81  CD1       -4.0930   -9.1950   14.7820 C.ar   81  TYR81      -0.0009
     82  CD2       -2.7270   -8.9930   16.7360 C.ar   81  TYR81      -0.0009
     83  CE1       -5.0630   -8.3830   15.3700 C.ar   81  TYR81       0.0417
     84  CE2       -3.6890   -8.1840   17.3350 C.ar   81  TYR81       0.0417
     85  CZ        -4.8520   -7.8810   16.6500 C.ar   81  TYR81       0.1957
     86  OH        -5.7970   -7.0790   17.2470 O.3    81  TYR81      -0.2866
     87  N         -1.2920   -7.2160   13.6780 N.am   82  MET82      -0.1963
     88  CA        -0.9460   -5.8520   14.0520 C.3    82  MET82       0.1736
     89  C         -2.1300   -5.3380   14.8490 C.2    82  MET82       0.2617
     90  O         -3.2220   -5.1450   14.3110 O.2    82  MET82      -0.2715
     91  CB        -0.7160   -5.0040   12.7990 C.3    82  MET82       0.0427
     92  CG         0.3280   -5.5930   11.8370 C.3    82  MET82       0.0599
     93  SD         1.9770   -5.7920   12.5630 S.3    82  MET82      -0.1393
     94  CE         2.4380   -4.0650   12.8240 C.3    82  MET82       0.0692
     95  N         -1.8960   -5.1180   16.1360 N.am   83  SER83      -0.1936
     96  CA        -2.9340   -4.6920   17.0660 C.3    83  SER83       0.2055
     97  C         -3.5600   -3.3130   16.8910 C.2    83  SER83       0.2643
     98  O         -4.6260   -3.0560   17.4440 O.2    83  SER83      -0.2714
     99  CB        -2.4070   -4.8150   18.5020 C.3    83  SER83       0.2130
    100  OG        -1.2940   -3.9640   18.7150 O.3    83  SER83      -0.2179
    101  N         -2.9270   -2.4240   16.1350 N.am   84  LYS84      -0.1963
    102  CA        -3.4850   -1.0850   15.9850 C.3    84  LYS84       0.1728
    103  C         -4.2940   -0.8190   14.7220 C.2    84  LYS84       0.2617
    104  O         -4.9370    0.2270   14.5990 O.2    84  LYS84      -0.2715
    105  CB        -2.3680   -0.0520   16.1310 C.3    84  LYS84       0.0311
    106  CG        -2.2800    0.5670   17.5180 C.3    84  LYS84       0.0038
    107  CD        -2.4220   -0.4660   18.6200 C.3    84  LYS84       0.0206
    108  CE        -2.6380    0.2130   19.9680 C.3    84  LYS84       0.1093
    109  NZ        -3.1170   -0.7270   21.0200 N.3    84  LYS84      -0.1314
    110  N         -4.2800   -1.7630   13.7870 N.am   85  GLY85      -0.1940
    111  CA        -5.0360   -1.5670   12.5630 C.3    85  GLY85       0.2014
    112  C         -4.2920   -0.7230   11.5440 C.2    85  GLY85       0.2639
    113  O         -3.0960   -0.4420   11.7040 O.2    85  GLY85      -0.2714
    114  N         -5.0010   -0.2950   10.5000 N.am   86  SER86      -0.1949
    115  CA        -4.3780    0.4920    9.4400 C.3    86  SER86       0.1924
    116  C         -3.9480    1.8660    9.9090 C.2    86  SER86       0.2314
    117  O         -4.5170    2.4190   10.8470 O.2    86  SER86      -0.2863
    118  CB        -5.3260    0.6490    8.2440 C.3    86  SER86       0.2116
    119  OG        -6.3360    1.6070    8.4990 O.3    86  SER86      -0.2180
    120  N         -6.8050    4.5450    9.5650 N.3    89  ASP89      -0.1239
    121  CA        -7.7510    4.6630   10.6730 C.3    89  ASP89       0.1674
    122  C         -7.0360    5.2240   11.8920 C.2    89  ASP89       0.2266
    123  O         -7.6160    5.9680   12.6870 O.2    89  ASP89      -0.2867
    124  CB        -8.3620    3.3040   11.0080 C.3    89  ASP89       0.1410
    125  CG        -9.1520    2.7370    9.8590 C.2    89  ASP89       0.3668
    126  OD1       -9.7910    3.5390    9.1370 O.co2  89  ASP89      -0.2456
    127  OD2       -9.1440    1.4980    9.6830 O.co2  89  ASP89      -0.2456
    128  N         -3.8160    3.2630    3.9380 N.3   131  ALA131     -0.1231
    129  CA        -4.7740    2.1960    4.1950 C.3   131  ALA131      0.1694
    130  C         -4.0720    0.8440    4.1300 C.2   131  ALA131      0.2592
    131  O         -4.6030   -0.1720    4.6110 O.2   131  ALA131     -0.2718
    132  CB        -5.9240    2.2470    3.1690 C.3   131  ALA131      0.0304
    133  N         -2.8730    0.8440    3.5450 N.am  132  ASN132     -0.1974
    134  CA        -2.0880   -0.3750    3.4030 C.3   132  ASN132      0.1688
    135  C         -0.8650   -0.4460    4.3000 C.2   132  ASN132      0.2292
    136  O          0.0150   -1.2790    4.0960 O.2   132  ASN132     -0.2864
    137  CB        -1.7040   -0.5980    1.9350 C.3   132  ASN132      0.1181
    138  CG        -2.8980   -1.0310    1.0960 C.2   132  ASN132      0.2629
    139  OD1       -3.7330   -1.7970    1.5690 O.2   132  ASN132     -0.2716
    140  ND2       -2.9860   -0.5530   -0.1410 N.am  132  ASN132     -0.0877
    141  N          0.1870   -0.9430    8.3020 N.3   134  LEU134     -0.1245
    142  CA        -0.4090   -1.4110    9.5550 C.3   134  LEU134      0.1561
    143  C          0.3960   -0.9600   10.7660 C.2   134  LEU134      0.2260
    144  O          1.6250   -0.9560   10.7400 O.2   134  LEU134     -0.2867
    145  CB        -0.5260   -2.9370    9.5400 C.3   134  LEU134      0.0270
    146  CG        -1.7000   -3.4710    8.7170 C.3   134  LEU134      0.0019
    147  CD1       -1.4840   -4.9290    8.4040 C.3   134  LEU134      0.0001
    148  CD2       -3.0100   -3.2690    9.4920 C.3   134  LEU134      0.0001
    149  N          1.9760   -3.6170    3.9990 N.3   144  ALA144     -0.1231
    150  CA         1.1420   -4.8040    3.8150 C.3   144  ALA144      0.1694
    151  C          0.4370   -4.7940    2.4520 C.2   144  ALA144      0.2592
    152  O          0.7190   -3.9440    1.6020 O.2   144  ALA144     -0.2718
    153  CB         0.1090   -4.8850    4.9320 C.3   144  ALA144      0.0304
    154  N         -0.4850   -5.7400    2.2640 N.am  145  ASP145     -0.1974
    155  CA        -1.2610   -5.8910    1.0280 C.3   145  ASP145      0.1709
    156  C         -0.4120   -5.9270   -0.2360 C.2   145  ASP145      0.2293
    157  O         -0.2370   -4.9100   -0.9070 O.2   145  ASP145     -0.2864
    158  CB        -2.3020   -4.7720    0.8890 C.3   145  ASP145      0.1436
    159  CG        -3.2150   -4.9680   -0.3260 C.2   145  ASP145      0.3671
    160  OD1       -2.7020   -4.9980   -1.4690 O.co2 145  ASP145     -0.2456
    161  OD2       -4.4460   -5.0950   -0.1410 O.co2 145  ASP145     -0.2456
@<TRIPOS>BOND
     1    43    44    1
     2    44    47    1
     3    44    45    1
     4    47    48    1
     5    45    46    2
     6   160   159   ar
     7   157   156    2
     8    48    49    1
     9    50    49   ar
    10   159   161   ar
    11   159   158    1
    12   156   155    1
    13   140   138   am
    14    49    51   ar
    15   158   155    1
    16   155   154    1
    17   138   139    2
    18   138   137    1
    19    42    41    1
    20   152   151    2
    21   137   134    1
    22   154   151   am
    23    41    40    1
    24   151   150    1
    25    37    36    2
    26   132   129    1
    27   134   133    1
    28   134   135    1
    29    40    39    1
    30    15    16    2
    31    15    14    1
    32   133   130   am
    33   150   149    1
    34   150   153    1
    35    38    39    1
    36    38    35    1
    37   128   129    1
    38    36    35    1
    39   136   135    2
    40   130   129    1
    41   130   131    2
    42    17    14    1
    43    17    18    1
    44    20    19    2
    45    14    13    1
    46    35    34    1
    47    28    26    1
    48    19    18    1
    49    19    21   am
    50    13    11   am
    51    55    54    2
    52    22    23    1
    53    65    63    1
    54    12    11    2
    55    11    10    1
    56    26    23    1
    57    26    27    1
    58    23    24    1
    59    52    53    1
    60    54    53    1
    61    56    53    1
    62    56    58    1
    63    56    57    1
    64    63    64    1
    65    63    60    1
    66    10     9    2
    67   118   119    1
    68   118   115    1
    69   141   142    1
    70    24    25    2
    71   147   146    1
    72    59    60    1
    73    60    61    1
    74   146   148    1
    75   146   145    1
    76     9     3    1
    77   126   125   ar
    78    32    31    2
    79   115   116    1
    80   115   114    1
    81   145   142    1
    82   142   143    1
    83   120   121    1
    84   127   125   ar
    85   125   124    1
    86    31    30    1
    87     3     4    2
    88     3     2    1
    89   116   117    2
    90    61    66   am
    91    61    62    2
    92    66    67    1
    93   114   112   am
    94   121   124    1
    95   121   122    1
    96    33    30    1
    97   144   143    2
    98    69    68    2
    99     1     2    1
   100     2     5    1
   101     5     6    1
   102    30    29    1
   103    73    72   ar
   104    70    67    1
   105    70    71    1
   106   112   113    2
   107   112   111    1
   108    67    68    1
   109    92    93    1
   110    92    91    1
   111   122   123    2
   112    68    75   am
   113    72    71    1
   114    72    74   ar
   115     7     6    1
   116     6     8    1
   117   111   110    1
   118    93    94    1
   119    91    88    1
   120    75    76    1
   121    76    77    1
   122    76    79    1
   123    87    88    1
   124    87    77   am
   125   110   103   am
   126    88    89    1
   127    77    78    2
   128    90    89    2
   129   104   103    2
   130   103   102    1
   131    81    83   ar
   132    81    80   ar
   133    79    80    1
   134    89    95   am
   135    83    85   ar
   136    80    82   ar
   137   102   105    1
   138   102   101    1
   139   105   106    1
   140   101    97   am
   141    95    96    1
   142    85    86    1
   143    85    84   ar
   144    82    84   ar
   145    97    96    1
   146    97    98    2
   147    96    99    1
   148   106   107    1
   149    99   100    1
   150   107   108    1
   151   108   109    1
