@<TRIPOS>MOLECULE
tmp/3f70B00.pdb
 89 86 0 0 0
SMALL
GASTEIGER

@<TRIPOS>ATOM
      1  N         -7.9200  -16.7440  -24.6250 N.3   347  ASP347     -0.1239
      2  CA        -8.7310  -17.6650  -25.4370 C.3   347  ASP347      0.1674
      3  C         -9.9190  -16.8390  -25.9650 C.2   347  ASP347      0.2266
      4  O        -10.7960  -16.4820  -25.2200 O.2   347  ASP347     -0.2867
      5  CB        -9.2060  -18.8230  -24.5950 C.3   347  ASP347      0.1410
      6  CG       -10.2070  -19.7010  -25.3370 C.2   347  ASP347      0.3668
      7  OD1      -10.5560  -19.4040  -26.5030 O.co2 347  ASP347     -0.2456
      8  OD2      -10.6540  -20.6890  -24.7500 O.co2 347  ASP347     -0.2456
      9  N        -13.5060  -17.6480  -25.4030 N.3   350  GLU350     -0.1245
     10  CA       -13.9320  -17.5680  -24.0430 C.3   350  GLU350      0.1567
     11  C        -12.9540  -16.5980  -23.2880 C.2   350  GLU350      0.2260
     12  O        -12.1040  -17.0410  -22.5120 O.2   350  GLU350     -0.2867
     13  CB       -13.9060  -19.0030  -23.4860 C.3   350  GLU350      0.0388
     14  CG       -14.5250  -19.1820  -22.1820 C.3   350  GLU350      0.1160
     15  CD       -15.0190  -20.6480  -21.9130 C.2   350  GLU350      0.3649
     16  OE1      -15.2160  -21.4950  -22.8820 O.co2 350  GLU350     -0.2457
     17  OE2      -15.2400  -20.8960  -20.6750 O.co2 350  GLU350     -0.2457
     18  N        -10.7380  -16.2680  -20.0910 N.3   353  LEU353     -0.1245
     19  CA        -9.5930  -17.2130  -19.8430 C.3   353  LEU353      0.1561
     20  C         -8.3040  -16.6790  -20.4440 C.2   353  LEU353      0.2260
     21  O         -8.2840  -16.3070  -21.5900 O.2   353  LEU353     -0.2867
     22  CB        -9.9320  -18.6100  -20.4120 C.3   353  LEU353      0.0270
     23  CG       -11.2020  -19.2350  -19.8640 C.3   353  LEU353      0.0019
     24  CD1      -11.5450  -20.5640  -20.5270 C.3   353  LEU353      0.0001
     25  CD2      -11.0040  -19.4710  -18.3750 C.3   353  LEU353      0.0001
     26  N         -4.4040  -18.1250  -20.9070 N.3   355  CYS355     -0.1235
     27  CA        -3.8970  -19.4800  -20.8840 C.3   355  CYS355      0.1677
     28  C         -2.4370  -19.4920  -21.3070 C.2   355  CYS355      0.2270
     29  O         -1.9840  -18.7280  -22.1920 O.2   355  CYS355     -0.2867
     30  CB        -4.7000  -20.2650  -21.9640 C.3   355  CYS355      0.0956
     31  SG        -6.5360  -20.0960  -21.8690 S.3   355  CYS355     -0.0801
     32  N         -2.7340  -23.3560  -27.7340 N.3   371  PHE371     -0.1241
     33  CA        -2.9490  -23.4870  -26.2880 C.3   371  PHE371      0.1605
     34  C         -2.4980  -24.9230  -25.9410 C.2   371  PHE371      0.2264
     35  O         -3.1180  -25.9140  -26.3430 O.2   371  PHE371     -0.2867
     36  CB        -4.4100  -23.3010  -25.9170 C.3   371  PHE371      0.0534
     37  CG        -4.9320  -21.9650  -26.2790 C.ar  371  PHE371     -0.0203
     38  CD1       -4.5770  -20.8430  -25.5100 C.ar  371  PHE371     -0.0042
     39  CD2       -5.6870  -21.7850  -27.4180 C.ar  371  PHE371     -0.0042
     40  CE1       -4.9860  -19.5580  -25.8640 C.ar  371  PHE371     -0.0003
     41  CE2       -6.0760  -20.5090  -27.8200 C.ar  371  PHE371     -0.0003
     42  CZ        -5.7230  -19.4030  -27.0590 C.ar  371  PHE371     -0.0000
     43  N         -4.1980  -28.5220  -25.5140 N.3   374  TRP374     -0.1241
     44  CA        -5.4590  -28.5580  -26.1940 C.3   374  TRP374      0.1605
     45  C         -5.2570  -28.9820  -27.6710 C.2   374  TRP374      0.2264
     46  O         -4.1650  -28.8320  -28.2130 O.2   374  TRP374     -0.2867
     47  CB        -6.1130  -27.1690  -26.1450 C.3   374  TRP374      0.0550
     48  CG        -6.5490  -26.7190  -24.7320 C.ar  374  TRP374      0.0003
     49  CD1       -5.8110  -25.9880  -23.8300 C.ar  374  TRP374      0.0946
     50  CD2       -7.7730  -27.0210  -24.0910 C.ar  374  TRP374      0.0152
     51  NE1       -6.5470  -25.7670  -22.6820 N.ar  374  TRP374     -0.2442
     52  CE2       -7.7490  -26.4070  -22.8100 C.ar  374  TRP374      0.0810
     53  CE3       -8.9240  -27.7100  -24.4820 C.ar  374  TRP374      0.0012
     54  CZ2       -8.8190  -26.5120  -21.9100 C.ar  374  TRP374      0.0191
     55  CZ3       -9.9820  -27.8200  -23.5900 C.ar  374  TRP374      0.0001
     56  CH2       -9.9280  -27.2290  -22.3170 C.ar  374  TRP374      0.0015
     57  N         -8.4780  -25.5920  -31.2680 N.3   378  TYR378     -0.1241
     58  CA        -8.4550  -24.3700  -30.4370 C.3   378  TYR378      0.1605
     59  C         -7.4740  -23.2780  -30.8250 C.2   378  TYR378      0.2264
     60  O         -7.5550  -22.1790  -30.3150 O.2   378  TYR378     -0.2867
     61  CB        -8.2190  -24.7380  -29.0040 C.3   378  TYR378      0.0534
     62  CG        -9.3170  -25.6060  -28.4670 C.ar  378  TYR378     -0.0201
     63  CD1      -10.3650  -25.0420  -27.7250 C.ar  378  TYR378     -0.0009
     64  CD2       -9.3160  -27.0080  -28.6770 C.ar  378  TYR378     -0.0009
     65  CE1      -11.3710  -25.8440  -27.1720 C.ar  378  TYR378      0.0417
     66  CE2      -10.3550  -27.8260  -28.1600 C.ar  378  TYR378      0.0417
     67  CZ       -11.3850  -27.2330  -27.4190 C.ar  378  TYR378      0.1957
     68  OH       -12.3800  -27.9960  -26.8350 O.3   378  TYR378     -0.2866
     69  N         -8.7070  -29.2820  -19.3760 N.3   408  ALA408     -0.1231
     70  CA        -9.8380  -29.3660  -18.4170 C.3   408  ALA408      0.1694
     71  C        -10.5020  -28.0040  -18.1860 C.2   408  ALA408      0.2592
     72  O         -9.9580  -26.9520  -18.5790 O.2   408  ALA408     -0.2718
     73  CB        -9.3830  -29.9720  -17.0870 C.3   408  ALA408      0.0304
     74  N        -11.6730  -28.0260  -17.5340 N.am  409  GLU409     -0.1966
     75  CA       -12.3770  -26.7890  -17.1150 C.3   409  GLU409      0.1718
     76  C        -11.5470  -26.0240  -16.0170 C.2   409  GLU409      0.2458
     77  O        -10.6760  -26.6230  -15.3530 O.2   409  GLU409     -0.2730
     78  CB       -13.8340  -27.0980  -16.6930 C.3   409  GLU409      0.0428
     79  CG       -14.6320  -27.7000  -17.8380 C.3   409  GLU409      0.1163
     80  CD       -14.6690  -29.2130  -17.7240 C.2   409  GLU409      0.3649
     81  OE1      -14.0310  -29.7960  -16.8190 O.co2 409  GLU409     -0.2457
     82  OE2      -15.3690  -29.8300  -18.5540 O.co2 409  GLU409     -0.2457
     83  N        -11.7590  -24.6920  -15.8790 N.am  410  PRO410     -0.2727
     84  CA       -10.9550  -23.8840  -14.9150 C.3   410  PRO410      0.1402
     85  C        -11.3580  -24.0130  -13.4550 C.2   410  PRO410      0.2269
     86  O        -10.5620  -23.6720  -12.5450 O.2   410  PRO410     -0.2865
     87  CB       -11.1540  -22.4410  -15.4150 C.3   410  PRO410      0.0296
     88  CG       -11.9230  -22.5970  -16.7900 C.3   410  PRO410      0.0237
     89  CD       -12.6980  -23.8440  -16.6460 C.3   410  PRO410      0.0939
@<TRIPOS>BOND
     1    57    58    1
     2    59    58    1
     3    59    60    2
     4    58    61    1
     5    61    62    1
     6    64    62   ar
     7    64    66   ar
     8    62    63   ar
     9    46    45    2
    10    66    67   ar
    11    41    39   ar
    12    41    42   ar
    13    32    33    1
    14    63    65   ar
    15    45    44    1
    16    67    65   ar
    17    67    68    1
    18    39    37   ar
    19    42    40   ar
    20     7     6   ar
    21    35    34    2
    22    33    34    1
    23    33    36    1
    24    37    36    1
    25    37    38   ar
    26    44    47    1
    27    44    43    1
    28    47    48    1
    29     3     2    1
    30     3     4    2
    31    40    38   ar
    32     2     1    1
    33     2     5    1
    34     9    10    1
    35     6     8   ar
    36     6     5    1
    37    48    50   ar
    38    48    49   ar
    39    53    50   ar
    40    53    55   ar
    41    50    52   ar
    42    10    13    1
    43    10    11    1
    44    49    51   ar
    45    55    56   ar
    46    13    14    1
    47    11    12    2
    48    16    15   ar
    49    52    51   ar
    50    52    54   ar
    51    56    54   ar
    52    29    28    2
    53    14    15    1
    54    30    31    1
    55    30    27    1
    56    15    17   ar
    57    21    20    2
    58    28    27    1
    59    26    27    1
    60    24    23    1
    61    20    19    1
    62    22    23    1
    63    22    19    1
    64    18    19    1
    65    23    25    1
    66    69    70    1
    67    72    71    2
    68    82    80   ar
    69    70    71    1
    70    70    73    1
    71    71    74   am
    72    79    80    1
    73    79    78    1
    74    80    81   ar
    75    74    75    1
    76    75    78    1
    77    75    76    1
    78    88    89    1
    79    88    87    1
    80    89    83    1
    81    76    83   am
    82    76    77    2
    83    83    84    1
    84    87    84    1
    85    84    85    1
    86    85    86    2
