@<TRIPOS>MOLECULE
tmp/3f78B00.pdb
 109 101 0 0 0
SMALL
GASTEIGER

@<TRIPOS>ATOM
      1  N         37.0830    6.3420   27.5290 N.3     5  LEU5       -0.1245
      2  CA        35.7080    6.8250   27.6770 C.3     5  LEU5        0.1561
      3  C         35.3200    6.9040   29.1470 C.2     5  LEU5        0.2260
      4  O         35.4880    5.9440   29.8980 O.2     5  LEU5       -0.2867
      5  CB        34.7370    5.9130   26.9170 C.3     5  LEU5        0.0270
      6  CG        33.2980    6.4430   26.7640 C.3     5  LEU5        0.0019
      7  CD1       32.7010    6.0770   25.4090 C.3     5  LEU5        0.0001
      8  CD2       32.4200    5.9360   27.9010 C.3     5  LEU5        0.0001
      9  N         22.8710    0.4470   32.0320 N.3    26  PHE26      -0.1241
     10  CA        23.2780    0.9540   30.7220 C.3    26  PHE26       0.1605
     11  C         24.7940    0.9730   30.6000 C.2    26  PHE26       0.2264
     12  O         25.3430    0.5010   29.5990 O.2    26  PHE26      -0.2867
     13  CB        22.7320    2.3630   30.4940 C.3    26  PHE26       0.0534
     14  CG        23.2970    3.0460   29.2800 C.ar   26  PHE26      -0.0203
     15  CD1       22.9130    2.6550   28.0070 C.ar   26  PHE26      -0.0042
     16  CD2       24.2050    4.0900   29.4120 C.ar   26  PHE26      -0.0042
     17  CE1       23.4210    3.2900   26.8790 C.ar   26  PHE26      -0.0003
     18  CE2       24.7190    4.7310   28.2850 C.ar   26  PHE26      -0.0003
     19  CZ        24.3200    4.3320   27.0230 C.ar   26  PHE26      -0.0000
     20  N         36.7150   10.6430   25.4360 N.3   106  VAL106     -0.1245
     21  CA        35.2810   10.7240   25.2100 C.3   106  VAL106      0.1561
     22  C         34.5670   10.7570   26.5550 C.2   106  VAL106      0.2260
     23  O         34.9210   10.0150   27.4750 O.2   106  VAL106     -0.2867
     24  CB        34.7910    9.5370   24.3640 C.3   106  VAL106      0.0252
     25  CG1       33.2620    9.6250   24.1240 C.3   106  VAL106      0.0019
     26  CG2       35.5710    9.4750   23.0370 C.3   106  VAL106      0.0019
     27  N         30.5900   10.5640   28.1480 N.3   108  ILE108     -0.1245
     28  CA        29.1510   10.3800   28.0270 C.3   108  ILE108      0.1561
     29  C         28.5310   10.8520   29.3300 C.2   108  ILE108      0.2260
     30  O         28.7000   10.2080   30.3740 O.2   108  ILE108     -0.2867
     31  CB        28.7330    8.9160   27.7810 C.3   108  ILE108      0.0252
     32  CG1       29.3130    8.3940   26.4650 C.3   108  ILE108      0.0019
     33  CG2       27.2020    8.8100   27.7380 C.3   108  ILE108      0.0019
     34  CD1       28.8910    6.9750   26.1240 C.3   108  ILE108      0.0001
     35  N         29.3470   13.7560   24.6660 N.3   130  TYR130     -0.1241
     36  CA        27.9450   13.4150   24.4400 C.3   130  TYR130      0.1605
     37  C         27.1840   13.6850   25.7320 C.2   130  TYR130      0.2264
     38  O         27.7180   13.4540   26.8310 O.2   130  TYR130     -0.2867
     39  CB        27.7800   11.9340   24.0500 C.3   130  TYR130      0.0534
     40  CG        28.2400   11.6290   22.6330 C.ar  130  TYR130     -0.0201
     41  CD1       27.3480   11.6560   21.5630 C.ar  130  TYR130     -0.0009
     42  CD2       29.5650   11.3350   22.3620 C.ar  130  TYR130     -0.0009
     43  CE1       27.7550   11.3990   20.2770 C.ar  130  TYR130      0.0417
     44  CE2       29.9860   11.0820   21.0740 C.ar  130  TYR130      0.0417
     45  CZ        29.0880   11.1140   20.0290 C.ar  130  TYR130      0.1957
     46  OH        29.4990   10.8720   18.7410 O.3   130  TYR130     -0.2866
     47  N         23.2480   12.8700   27.4230 N.3   132  ILE132     -0.1245
     48  CA        21.9740   12.1620   27.3180 C.3   132  ILE132      0.1561
     49  C         21.0600   12.7410   28.3820 C.2   132  ILE132      0.2260
     50  O         21.3310   12.5840   29.5780 O.2   132  ILE132     -0.2867
     51  CB        22.1330   10.6430   27.5540 C.3   132  ILE132      0.0252
     52  CG1       23.2140   10.0520   26.6410 C.3   132  ILE132      0.0019
     53  CG2       20.8040    9.9190   27.3170 C.3   132  ILE132      0.0019
     54  CD1       23.4910    8.5960   26.9060 C.3   132  ILE132      0.0001
     55  N         21.5050   13.8770   23.0710 N.3   160  LYS160     -0.1245
     56  CA        20.4380   12.8990   22.9220 C.3   160  LYS160      0.1561
     57  C         19.3690   13.2060   23.9630 C.2   160  LYS160      0.2260
     58  O         19.6670   13.2860   25.1570 O.2   160  LYS160     -0.2867
     59  CB        20.9630   11.4790   23.1370 C.3   160  LYS160      0.0271
     60  CG        22.2350   11.1220   22.3840 C.3   160  LYS160      0.0035
     61  CD        22.0680   11.1830   20.8830 C.3   160  LYS160      0.0206
     62  CE        23.3430   10.6920   20.1910 C.3   160  LYS160      0.1093
     63  NZ        23.2870   10.8510   18.7150 N.3   160  LYS160     -0.1314
     64  N         20.1720    3.0070   22.5350 N.3   171  LEU171     -0.1245
     65  CA        21.3880    3.7210   22.1360 C.3   171  LEU171      0.1561
     66  C         22.5660    2.8110   21.7530 C.2   171  LEU171      0.2260
     67  O         23.5090    3.2740   21.1050 O.2   171  LEU171     -0.2867
     68  CB        21.8250    4.6710   23.2550 C.3   171  LEU171      0.0270
     69  CG        21.0240    5.9600   23.4190 C.3   171  LEU171      0.0019
     70  CD1       21.4850    6.7080   24.6620 C.3   171  LEU171      0.0001
     71  CD2       21.1710    6.8520   22.1890 C.3   171  LEU171      0.0001
     72  N         23.9780    2.5480   18.0600 N.3   174  GLU174     -0.1231
     73  CA        24.6130    3.8040   17.6500 C.3   174  GLU174      0.1699
     74  C         25.9810    3.9920   18.2990 C.2   174  GLU174      0.2592
     75  O         26.9580    4.3370   17.6320 O.2   174  GLU174     -0.2718
     76  CB        23.7250    5.0070   17.9830 C.3   174  GLU174      0.0402
     77  CG        24.1950    6.2710   17.2800 C.3   174  GLU174      0.1161
     78  CD        23.5780    7.5440   17.8190 C.2   174  GLU174      0.3649
     79  OE1       22.4090    7.5090   18.2720 O.co2 174  GLU174     -0.2457
     80  OE2       24.2710    8.5860   17.7530 O.co2 174  GLU174     -0.2457
     81  N         26.0340    3.7780   19.6060 N.am  175  LEU175     -0.1980
     82  CA        27.2700    3.9140   20.3630 C.3   175  LEU175      0.1596
     83  C         28.3490    2.9850   19.7920 C.2   175  LEU175      0.2287
     84  O         29.4900    3.4100   19.5680 O.2   175  LEU175     -0.2864
     85  CB        27.0060    3.6080   21.8420 C.3   175  LEU175      0.0297
     86  CG        28.1640    3.7620   22.8360 C.3   175  LEU175      0.0022
     87  CD1       27.6260    4.0250   24.2410 C.3   175  LEU175      0.0001
     88  CD2       29.0710    2.5330   22.8490 C.3   175  LEU175      0.0001
     89  N         30.1990    3.9670   16.4270 N.3   178  LYS178     -0.1245
     90  CA        31.0570    5.1610   16.3350 C.3   178  LYS178      0.1561
     91  C         32.4840    4.7780   15.9670 C.2   178  LYS178      0.2260
     92  O         33.0240    3.7880   16.4640 O.2   178  LYS178     -0.2867
     93  CB        31.0940    5.9710   17.6360 C.3   178  LYS178      0.0271
     94  CG        29.7510    6.5070   18.1200 C.3   178  LYS178      0.0035
     95  CD        29.1230    7.5130   17.1710 C.3   178  LYS178      0.0206
     96  CE        27.8340    8.0530   17.7670 C.3   178  LYS178      0.1093
     97  NZ        26.9050    8.6050   16.7330 N.3   178  LYS178     -0.1314
     98  N         35.8800    7.0090   15.9670 N.3   180  TYR180     -0.1241
     99  CA        36.3820    8.3130   16.3920 C.3   180  TYR180      0.1605
    100  C         37.5350    8.7850   15.5300 C.2   180  TYR180      0.2264
    101  O         38.5550    8.0790   15.3930 O.2   180  TYR180     -0.2867
    102  CB        36.7710    8.2930   17.8770 C.3   180  TYR180      0.0534
    103  CG        35.5350    8.1400   18.7410 C.ar  180  TYR180     -0.0201
    104  CD1       34.7510    9.2440   19.0800 C.ar  180  TYR180     -0.0009
    105  CD2       35.1110    6.8870   19.1590 C.ar  180  TYR180     -0.0009
    106  CE1       33.5950    9.1020   19.8310 C.ar  180  TYR180      0.0417
    107  CE2       33.9650    6.7430   19.9210 C.ar  180  TYR180      0.0417
    108  CZ        33.2110    7.8530   20.2450 C.ar  180  TYR180      0.1957
    109  OH        32.0750    7.7020   20.9940 O.3   180  TYR180     -0.2866
@<TRIPOS>BOND
     1   101   100    2
     2   100    99    1
     3    91    90    1
     4    91    92    2
     5    98    99    1
     6    90    89    1
     7    90    93    1
     8    99   102    1
     9    97    96    1
    10    95    96    1
    11    95    94    1
    12    77    78    1
    13    77    76    1
    14    75    74    2
    15    93    94    1
    16    73    76    1
    17    73    72    1
    18    73    74    1
    19    80    78   ar
    20    78    79   ar
    21   102   103    1
    22    74    81   am
    23    63    62    1
    24    46    45    1
    25   103   104   ar
    26   103   105   ar
    27   104   106   ar
    28   105   107   ar
    29    84    83    2
    30    81    82    1
    31    83    82    1
    32   106   108   ar
    33   107   108   ar
    34    45    43   ar
    35    45    44   ar
    36    62    61    1
    37   108   109    1
    38    43    41   ar
    39    82    85    1
    40    61    60    1
    41    44    42   ar
    42    67    66    2
    43    41    40   ar
    44    66    65    1
    45    85    86    1
    46    65    64    1
    47    65    68    1
    48    71    69    1
    49    42    40   ar
    50    60    59    1
    51    40    39    1
    52    86    88    1
    53    86    87    1
    54    56    55    1
    55    56    59    1
    56    56    57    1
    57    26    24    1
    58    68    69    1
    59    69    70    1
    60    57    58    2
    61    39    36    1
    62    25    24    1
    63    24    21    1
    64    36    35    1
    65    36    37    1
    66    21    20    1
    67    21    22    1
    68     7     6    1
    69    37    38    2
    70    34    32    1
    71    32    31    1
    72    22    23    2
    73    52    54    1
    74    52    51    1
    75     6     5    1
    76     6     8    1
    77    17    19   ar
    78    17    15   ar
    79     5     2    1
    80    19    18   ar
    81    53    51    1
    82    48    47    1
    83    48    51    1
    84    48    49    1
    85     1     2    1
    86     2     3    1
    87    33    31    1
    88    31    28    1
    89    15    14   ar
    90    28    27    1
    91    28    29    1
    92    18    16   ar
    93    49    50    2
    94     3     4    2
    95    14    16   ar
    96    14    13    1
    97    29    30    2
    98    12    11    2
    99    13    10    1
   100    11    10    1
   101    10     9    1
