@<TRIPOS>MOLECULE
tmp/3f7bA00.pdb
 189 183 0 0 0
SMALL
GASTEIGER

@<TRIPOS>ATOM
      1  N        -56.8400  -72.9620   -0.9300 N.3     4  TRP4       -0.1241
      2  CA       -55.4330  -73.2320   -0.5540 C.3     4  TRP4        0.1605
      3  C        -55.3850  -73.8440    0.8380 C.2     4  TRP4        0.2264
      4  O        -56.2650  -73.5920    1.6880 O.2     4  TRP4       -0.2867
      5  CB       -54.5940  -71.9720   -0.6930 C.3     4  TRP4        0.0550
      6  CG       -54.8060  -70.9150    0.3540 C.ar    4  TRP4        0.0003
      7  CD1      -55.6740  -69.8140    0.3520 C.ar    4  TRP4        0.0946
      8  CD2      -54.0970  -70.8680    1.5780 C.ar    4  TRP4        0.0152
      9  NE1      -55.4790  -69.0650    1.5350 N.ar    4  TRP4       -0.2442
     10  CE2      -54.5150  -69.7070    2.2780 C.ar    4  TRP4        0.0810
     11  CE3      -53.0690  -71.6560    2.1110 C.ar    4  TRP4        0.0012
     12  CZ2      -53.9650  -69.3530    3.5220 C.ar    4  TRP4        0.0191
     13  CZ3      -52.5010  -71.2780    3.3600 C.ar    4  TRP4        0.0001
     14  CH2      -52.9510  -70.1440    4.0230 C.ar    4  TRP4        0.0015
     15  N        -52.1210  -75.7560    3.6530 N.3     6  TYR6       -0.1241
     16  CA       -50.7040  -76.2120    3.8920 C.3     6  TYR6        0.1605
     17  C        -50.7270  -77.7310    3.7520 C.2     6  TYR6        0.2264
     18  O        -51.7700  -78.4140    3.8500 O.2     6  TYR6       -0.2867
     19  CB       -50.2750  -75.9030    5.3100 C.3     6  TYR6        0.0534
     20  CG       -50.1680  -74.4160    5.5510 C.ar    6  TYR6       -0.0201
     21  CD1      -49.1100  -73.6770    4.9710 C.ar    6  TYR6       -0.0009
     22  CD2      -51.1020  -73.7490    6.3730 C.ar    6  TYR6       -0.0009
     23  CE1      -48.9980  -72.3120    5.1930 C.ar    6  TYR6        0.0417
     24  CE2      -50.9780  -72.3590    6.6020 C.ar    6  TYR6        0.0417
     25  CZ       -49.9180  -71.6460    6.0120 C.ar    6  TYR6        0.1957
     26  OH       -49.7860  -70.2250    6.1740 O.3     6  TYR6       -0.2866
     27  N        -58.3240  -67.7370   11.8270 N.3    67  ASN67      -0.1240
     28  CA       -58.9050  -67.5730   10.4950 C.3    67  ASN67       0.1653
     29  C        -58.7740  -68.8670    9.7500 C.2    67  ASN67       0.2266
     30  O        -58.7540  -68.8530    8.5560 O.2    67  ASN67      -0.2867
     31  CB       -58.2030  -66.3980    9.7300 C.3    67  ASN67       0.1155
     32  CG       -56.6680  -66.6120    9.5410 C.2    67  ASN67       0.2627
     33  OD1      -56.1240  -67.6850    9.8760 O.2    67  ASN67      -0.2716
     34  ND2      -55.9810  -65.6040    8.9640 N.am   67  ASN67      -0.0877
     35  N        -55.9930  -70.4850    9.3060 N.3    69  HIS69      -0.1226
     36  CA       -54.6000  -70.6960    8.8520 C.3    69  HIS69       0.1752
     37  C        -53.5780  -70.3300    9.9400 C.2    69  HIS69       0.2596
     38  O        -52.4010  -70.7630    9.8930 O.2    69  HIS69      -0.2718
     39  CB       -54.2880  -69.7920    7.6360 C.3    69  HIS69       0.0759
     40  CG       -55.3670  -69.7820    6.6080 C.ar   69  HIS69       0.0818
     41  ND1      -55.6650  -70.8850    5.8420 N.ar   69  HIS69      -0.2268
     42  CD2      -56.2230  -68.7980    6.2180 C.ar   69  HIS69       0.1154
     43  CE1      -56.6600  -70.5920    5.0090 C.ar   69  HIS69       0.1986
     44  NE2      -57.0180  -69.3300    5.2230 N.ar   69  HIS69      -0.2212
     45  N        -54.0000  -69.5080   10.8850 N.am   70  SER70      -0.1952
     46  CA       -53.0630  -68.9870   11.8920 C.3    70  SER70       0.1924
     47  C        -53.8840  -68.3370   12.9920 C.2    70  SER70       0.2314
     48  O        -55.1180  -68.2970   12.9410 O.2    70  SER70      -0.2863
     49  CB       -52.1360  -67.9020   11.2870 C.3    70  SER70       0.2116
     50  OG       -51.2860  -67.4040   12.2950 O.3    70  SER70      -0.2180
     51  N        -54.4170  -64.6070   14.4210 N.3    72  MET72      -0.1245
     52  CA       -54.0810  -63.2790   13.9750 C.3    72  MET72       0.1570
     53  C        -54.6300  -62.1890   14.9010 C.2    72  MET72       0.2261
     54  O        -55.8480  -62.1050   15.1590 O.2    72  MET72      -0.2867
     55  CB       -54.6580  -63.0560   12.5300 C.3    72  MET72       0.0387
     56  CG       -54.4390  -61.6560   11.9980 C.3    72  MET72       0.0595
     57  SD       -55.1090  -61.4400   10.3410 S.3    72  MET72      -0.1393
     58  CE       -54.2430  -62.6980    9.3660 C.3    72  MET72       0.0692
     59  N        -50.7220  -53.5020   10.5950 N.3    93  LYS93      -0.1231
     60  CA       -52.0590  -53.9670   10.2200 C.3    93  LYS93       0.1693
     61  C        -52.5070  -55.1840   11.0480 C.2    93  LYS93       0.2591
     62  O        -53.6700  -55.2690   11.4610 O.2    93  LYS93      -0.2718
     63  CB       -52.1110  -54.3610    8.6940 C.3    93  LYS93       0.0285
     64  CG       -51.8360  -53.1810    7.6970 C.3    93  LYS93       0.0035
     65  CD       -52.9950  -52.1240    7.8310 C.3    93  LYS93       0.0206
     66  CE       -52.4650  -50.7840    7.2920 C.3    93  LYS93       0.1093
     67  NZ       -53.5430  -49.7710    7.0490 N.3    93  LYS93      -0.1314
     68  N        -51.6180  -56.1890   11.2050 N.am   94  GLN94      -0.1979
     69  CA       -52.0340  -57.4360   11.8840 C.3    94  GLN94       0.1601
     70  C        -50.7590  -58.1630   12.2920 C.2    94  GLN94       0.2287
     71  O        -49.7160  -57.9030   11.6740 O.2    94  GLN94      -0.2864
     72  CB       -52.8770  -58.2910   10.9390 C.3    94  GLN94       0.0394
     73  CG       -52.2750  -58.5150    9.5240 C.3    94  GLN94       0.0908
     74  CD       -51.8150  -59.9370    9.2100 C.2    94  GLN94       0.2608
     75  OE1      -51.5070  -60.7780   10.0890 O.2    94  GLN94      -0.2717
     76  NE2      -51.7880  -60.2330    7.9350 N.am   94  GLN94      -0.0878
     77  N        -49.4120  -62.2370   13.0490 N.3    96  HIS96      -0.1241
     78  CA       -49.8410  -63.6380   13.1730 C.3    96  HIS96       0.1621
     79  C        -48.5620  -64.4820   13.3710 C.2    96  HIS96       0.2264
     80  O        -47.4440  -63.9650   13.3760 O.2    96  HIS96      -0.2867
     81  CB       -50.6400  -64.1070   11.9370 C.3    96  HIS96       0.0745
     82  CG       -49.8620  -63.9500   10.6320 C.ar   96  HIS96       0.0817
     83  ND1      -49.8370  -62.7680    9.9120 N.ar   96  HIS96      -0.2268
     84  CD2      -48.9740  -64.7740   10.0140 C.ar   96  HIS96       0.1154
     85  CE1      -49.0060  -62.8820    8.8840 C.ar   96  HIS96       0.1986
     86  NE2      -48.4770  -64.0970    8.9150 N.ar   96  HIS96      -0.2212
     87  N        -46.4830  -68.5690   12.7070 N.3    98  HIS98      -0.1241
     88  CA       -46.3920  -69.8400   12.0360 C.3    98  HIS98       0.1621
     89  C        -45.6620  -70.7310   13.0440 C.2    98  HIS98       0.2264
     90  O        -44.7670  -70.2190   13.7620 O.2    98  HIS98      -0.2867
     91  CB       -45.5240  -69.7210   10.7400 C.3    98  HIS98       0.0745
     92  CG       -46.1160  -68.7540    9.7290 C.ar   98  HIS98       0.0817
     93  ND1      -47.0700  -69.1590    8.7960 N.ar   98  HIS98      -0.2268
     94  CD2      -46.0200  -67.4140    9.6090 C.ar   98  HIS98       0.1154
     95  CE1      -47.4790  -68.0960    8.1000 C.ar   98  HIS98       0.1986
     96  NE2      -46.8160  -67.0380    8.5300 N.ar   98  HIS98      -0.2212
     97  N        -44.9340  -62.8190   12.4610 N.3   121  HIS121     -0.1241
     98  CA       -44.9000  -61.8270   11.3770 C.3   121  HIS121      0.1621
     99  C        -45.7630  -60.6430   11.7460 C.2   121  HIS121      0.2264
    100  O        -46.9380  -60.8290   12.0270 O.2   121  HIS121     -0.2867
    101  CB       -45.4750  -62.4440   10.0960 C.3   121  HIS121      0.0745
    102  CG       -44.5620  -63.4260    9.4560 C.ar  121  HIS121      0.0817
    103  ND1      -45.0120  -64.4290    8.6130 N.ar  121  HIS121     -0.2268
    104  CD2      -43.2190  -63.5880    9.5580 C.ar  121  HIS121      0.1154
    105  CE1      -43.9800  -65.1360    8.1870 C.ar  121  HIS121      0.1986
    106  NE2      -42.8990  -64.6820    8.7840 N.ar  121  HIS121     -0.2212
    107  N        -47.2070  -57.4810   10.2330 N.3   123  VAL123     -0.1245
    108  CA       -47.4270  -56.9710    8.8650 C.3   123  VAL123      0.1561
    109  C        -47.7910  -55.4730    8.9140 C.2   123  VAL123      0.2260
    110  O        -48.7650  -55.0930    9.6170 O.2   123  VAL123     -0.2867
    111  CB       -48.5910  -57.7730    8.2050 C.3   123  VAL123      0.0252
    112  CG1      -48.8400  -57.2450    6.7410 C.3   123  VAL123      0.0019
    113  CG2      -48.2350  -59.3230    8.2170 C.3   123  VAL123      0.0019
    114  N        -48.0870  -51.5670    6.4950 N.3   125  GLU125     -0.1245
    115  CA       -48.3020  -51.0630    5.1430 C.3   125  GLU125      0.1567
    116  C        -47.7320  -49.6560    4.9940 C.2   125  GLU125      0.2260
    117  O        -47.9050  -48.8130    5.8840 O.2   125  GLU125     -0.2867
    118  CB       -49.8000  -51.1280    4.7940 C.3   125  GLU125      0.0388
    119  CG       -50.1880  -50.2900    3.6000 C.3   125  GLU125      0.1160
    120  CD       -51.4160  -50.8540    2.8890 C.2   125  GLU125      0.3649
    121  OE1      -52.5550  -50.5410    3.3480 O.co2 125  GLU125     -0.2457
    122  OE2      -51.2300  -51.6030    1.8970 O.co2 125  GLU125     -0.2457
    123  N        -45.4260  -53.4030    1.5620 N.3   136  ILE136     -0.1245
    124  CA       -45.7380  -54.0760    2.8320 C.3   136  ILE136      0.1561
    125  C        -44.3860  -54.3700    3.5250 C.2   136  ILE136      0.2260
    126  O        -43.4390  -54.7950    2.8830 O.2   136  ILE136     -0.2867
    127  CB       -46.5680  -55.4010    2.5690 C.3   136  ILE136      0.0252
    128  CG1      -48.0100  -55.0400    2.1500 C.3   136  ILE136      0.0019
    129  CG2      -46.7170  -56.2710    3.8950 C.3   136  ILE136      0.0019
    130  CD1      -48.4250  -55.9890    1.1270 C.3   136  ILE136      0.0001
    131  N        -42.8950  -56.5060    6.5420 N.3   138  VAL138     -0.1245
    132  CA       -43.1960  -57.5610    7.5300 C.3   138  VAL138      0.1561
    133  C        -41.9810  -57.7000    8.4430 C.2   138  VAL138      0.2260
    134  O        -40.8430  -57.7240    7.9410 O.2   138  VAL138     -0.2867
    135  CB       -43.5660  -58.8810    6.8650 C.3   138  VAL138      0.0252
    136  CG1      -43.8100  -59.9810    7.9740 C.3   138  VAL138      0.0019
    137  CG2      -44.8550  -58.7060    6.0090 C.3   138  VAL138      0.0019
    138  N        -45.7020  -61.9460    0.1800 N.3   197  LEU197     -0.1231
    139  CA       -46.5300  -62.6480    1.1760 C.3   197  LEU197      0.1693
    140  C        -46.3330  -64.1500    1.0610 C.2   197  LEU197      0.2593
    141  O        -46.0770  -64.6640   -0.0590 O.2   197  LEU197     -0.2718
    142  CB       -48.0290  -62.2790    0.9680 C.3   197  LEU197      0.0284
    143  CG       -48.1240  -60.7360    0.9990 C.3   197  LEU197      0.0019
    144  CD1      -49.5170  -60.3360    0.6790 C.3   197  LEU197      0.0001
    145  CD2      -47.7460  -60.3050    2.3720 C.3   197  LEU197      0.0001
    146  N        -46.4360  -64.8670    2.1910 N.am  198  THR198     -0.1939
    147  CA       -46.2490  -66.3030    2.1960 C.3   198  THR198      0.2028
    148  C        -47.5400  -67.0660    2.2100 C.2   198  THR198      0.2643
    149  O        -47.5210  -68.2990    2.4360 O.2   198  THR198     -0.2714
    150  CB       -45.3560  -66.7790    3.3590 C.3   198  THR198      0.1808
    151  OG1      -45.9930  -66.5240    4.6270 O.3   198  THR198     -0.2208
    152  CG2      -43.9990  -65.9550    3.3540 C.3   198  THR198      0.0379
    153  N        -48.6720  -66.3940    1.9710 N.am  199  THR199     -0.1937
    154  CA       -49.8850  -67.2020    1.6500 C.3   199  THR199      0.2013
    155  C        -50.4980  -66.5650    0.3770 C.2   199  THR199      0.2484
    156  O        -50.1640  -65.4350    0.0360 O.2   199  THR199     -0.2729
    157  CB       -50.8950  -67.0500    2.7550 C.3   199  THR199      0.1807
    158  OG1      -51.1150  -65.6510    2.9500 O.3   199  THR199     -0.2208
    159  CG2      -50.3570  -67.5110    4.1100 C.3   199  THR199      0.0379
    160  N        -51.3830  -67.2930   -0.3430 N.am  200  PRO200     -0.2726
    161  CA       -52.0170  -66.6920   -1.5710 C.3   200  PRO200      0.1402
    162  C        -52.5840  -65.3550   -1.2190 C.2   200  PRO200      0.2269
    163  O        -53.1690  -65.2260   -0.1700 O.2   200  PRO200     -0.2865
    164  CB       -53.1620  -67.6800   -1.9410 C.3   200  PRO200      0.0296
    165  CG       -52.5190  -69.1180   -1.3870 C.3   200  PRO200      0.0237
    166  CD       -51.7990  -68.6830   -0.0860 C.3   200  PRO200      0.0939
    167  N        -44.8750  -57.8200   -3.0650 N.3   205  LYS205     -0.1245
    168  CA       -44.7640  -56.4220   -2.6630 C.3   205  LYS205      0.1561
    169  C        -44.2150  -56.2540   -1.2400 C.2   205  LYS205      0.2260
    170  O        -44.5380  -55.2790   -0.5790 O.2   205  LYS205     -0.2867
    171  CB       -46.1350  -55.7400   -2.7580 C.3   205  LYS205      0.0271
    172  CG       -47.2820  -56.5690   -2.2570 C.3   205  LYS205      0.0035
    173  CD       -48.6750  -55.7920   -2.4410 C.3   205  LYS205      0.0206
    174  CE       -49.8120  -56.5270   -1.7300 C.3   205  LYS205      0.1093
    175  NZ       -51.2020  -55.9300   -1.6620 N.3   205  LYS205     -0.1314
    176  N        -38.8760  -57.4530    3.4160 N.3   208  TRP208     -0.1241
    177  CA       -38.7800  -58.3860    4.5090 C.3   208  TRP208      0.1605
    178  C        -37.7430  -57.8830    5.4780 C.2   208  TRP208      0.2264
    179  O        -36.6670  -57.3710    5.0540 O.2   208  TRP208     -0.2867
    180  CB       -38.4450  -59.9050    4.1080 C.3   208  TRP208      0.0550
    181  CG       -39.7250  -60.6680    3.7080 C.ar  208  TRP208      0.0003
    182  CD1      -40.2410  -60.7870    2.4230 C.ar  208  TRP208      0.0946
    183  CD2      -40.6900  -61.3280    4.5780 C.ar  208  TRP208      0.0152
    184  NE1      -41.4320  -61.5240    2.4370 N.ar  208  TRP208     -0.2442
    185  CE2      -41.7500  -61.8100    3.7550 C.ar  208  TRP208      0.0810
    186  CE3      -40.7800  -61.5030    5.9730 C.ar  208  TRP208      0.0012
    187  CZ2      -42.8380  -62.4730    4.2670 C.ar  208  TRP208      0.0191
    188  CZ3      -41.8660  -62.2320    6.4910 C.ar  208  TRP208      0.0001
    189  CH2      -42.8880  -62.6820    5.6620 C.ar  208  TRP208      0.0015
@<TRIPOS>BOND
     1   167   168    1
     2   171   168    1
     3   171   172    1
     4   168   169    1
     5   173   172    1
     6   173   174    1
     7   164   161    1
     8   164   165    1
     9   174   175    1
    10   161   162    1
    11   161   160    1
    12   165   166    1
    13   169   170    2
    14   162   163    2
    15     1     2    1
    16     5     2    1
    17     5     6    1
    18     2     3    1
    19   160   166    1
    20   160   155   am
    21   141   140    2
    22   156   155    2
    23   138   139    1
    24     7     6   ar
    25     7     9   ar
    26     6     8   ar
    27   155   154    1
    28   144   143    1
    29     3     4    2
    30   142   143    1
    31   142   139    1
    32   143   145    1
    33   140   139    1
    34   140   146   am
    35   130   128    1
    36     9    10   ar
    37   123   124    1
    38     8    11   ar
    39     8    10   ar
    40   154   153    1
    41   154   157    1
    42   122   120   ar
    43   153   148   am
    44    11    13   ar
    45   128   127    1
    46   146   147    1
    47   147   148    1
    48   147   150    1
    49   148   149    2
    50    10    12   ar
    51   182   184   ar
    52   182   181   ar
    53   184   185   ar
    54   127   124    1
    55   127   129    1
    56   157   158    1
    57   157   159    1
    58   124   125    1
    59   126   125    2
    60   120   121   ar
    61   120   119    1
    62   152   150    1
    63   150   151    1
    64    13    14   ar
    65   176   177    1
    66    12    14   ar
    67   119   118    1
    68    15    16    1
    69   181   180    1
    70   181   183   ar
    71    17    18    2
    72    17    16    1
    73   185   187   ar
    74   185   183   ar
    75    16    19    1
    76   180   177    1
    77   187   189   ar
    78   177   178    1
    79   183   186   ar
    80   118   115    1
    81    21    23   ar
    82    21    20   ar
    83   116   115    1
    84   116   117    2
    85    43    44   ar
    86    43    41   ar
    87   179   178    2
    88   115   114    1
    89    23    25   ar
    90    44    42   ar
    91    19    20    1
    92    20    22   ar
    93   189   188   ar
    94    41    40   ar
    95   186   188   ar
    96   137   135    1
    97    25    26    1
    98    25    24   ar
    99    42    40   ar
   100    22    24   ar
   101   131   132    1
   102    40    39    1
   103   112   111    1
   104   135   132    1
   105   135   136    1
   106    67    66    1
   107    66    65    1
   108   132   133    1
   109    39    36    1
   110    64    65    1
   111    64    63    1
   112    76    74   am
   113   134   133    2
   114    95    96   ar
   115    95    93   ar
   116   105   103   ar
   117   105   106   ar
   118   111   113    1
   119   111   108    1
   120    96    94   ar
   121    30    29    2
   122   103   102   ar
   123    63    60    1
   124   106   104   ar
   125    93    92   ar
   126    36    35    1
   127    36    37    1
   128   108   109    1
   129   108   107    1
   130    85    86   ar
   131    85    83   ar
   132   109   110    2
   133    86    84   ar
   134    34    32   am
   135    74    73    1
   136    74    75    2
   137    58    57    1
   138   102   104   ar
   139   102   101    1
   140    73    72    1
   141    32    31    1
   142    32    33    2
   143    94    92   ar
   144    92    91    1
   145    31    28    1
   146    29    28    1
   147    38    37    2
   148    83    82   ar
   149    37    45   am
   150    84    82   ar
   151   101    98    1
   152    60    59    1
   153    60    61    1
   154    57    56    1
   155    28    27    1
   156    82    81    1
   157    91    88    1
   158    45    46    1
   159    72    69    1
   160    61    68   am
   161    61    62    2
   162    68    69    1
   163    49    46    1
   164    49    50    1
   165    98    99    1
   166    98    97    1
   167    71    70    2
   168    99   100    2
   169    69    70    1
   170    46    47    1
   171    81    78    1
   172    56    55    1
   173    88    87    1
   174    88    89    1
   175    55    52    1
   176    48    47    2
   177    89    90    2
   178    77    78    1
   179    78    79    1
   180    79    80    2
   181    52    51    1
   182    52    53    1
   183    53    54    2
