@<TRIPOS>MOLECULE
tmp/3f7dA00.pdb
 149 142 0 0 0
SMALL
GASTEIGER

@<TRIPOS>ATOM
      1  N        -76.2360   34.4790  -30.4120 N.3    50  PHE50      -0.1227
      2  CA       -77.1070   35.5040  -30.9860 C.3    50  PHE50       0.1736
      3  C        -78.4110   34.9190  -31.5560 C.2    50  PHE50       0.2595
      4  O        -79.4820   35.4960  -31.4050 O.2    50  PHE50      -0.2718
      5  CB       -76.3860   36.3530  -32.0360 C.3    50  PHE50       0.0547
      6  CG       -77.2470   37.4460  -32.6000 C.ar   50  PHE50      -0.0202
      7  CD1      -77.8120   38.3970  -31.7560 C.ar   50  PHE50      -0.0042
      8  CD2      -77.5060   37.5170  -33.9640 C.ar   50  PHE50      -0.0042
      9  CE1      -78.6270   39.4010  -32.2520 C.ar   50  PHE50      -0.0003
     10  CE2      -78.3180   38.5210  -34.4740 C.ar   50  PHE50      -0.0003
     11  CZ       -78.8770   39.4660  -33.6140 C.ar   50  PHE50      -0.0000
     12  N        -78.3130   33.7630  -32.1970 N.am   51  ILE51      -0.1980
     13  CA       -79.4970   33.0450  -32.6580 C.3    51  ILE51       0.1595
     14  C        -80.5130   32.8050  -31.5370 C.2    51  ILE51       0.2287
     15  O        -81.6950   33.0620  -31.7290 O.2    51  ILE51      -0.2864
     16  CB       -79.1240   31.7210  -33.3260 C.3    51  ILE51       0.0276
     17  CG1      -78.2070   31.9950  -34.5190 C.3    51  ILE51       0.0022
     18  CG2      -80.3840   30.9690  -33.7560 C.3    51  ILE51       0.0022
     19  CD1      -78.1030   30.8470  -35.4610 C.3    51  ILE51       0.0001
     20  N        -82.0960   36.1950  -30.8370 N.3    54  VAL54      -0.1231
     21  CA       -83.1300   36.4610  -31.8470 C.3    54  VAL54       0.1692
     22  C        -84.4200   35.6840  -31.5570 C.2    54  VAL54       0.2592
     23  O        -85.5160   36.2340  -31.6550 O.2    54  VAL54      -0.2718
     24  CB       -82.6520   36.1160  -33.2640 C.3    54  VAL54       0.0266
     25  CG1      -83.7670   36.3790  -34.2890 C.3    54  VAL54       0.0020
     26  CG2      -81.3920   36.8940  -33.6020 C.3    54  VAL54       0.0020
     27  N        -84.2840   34.4100  -31.1990 N.am   55  ASP55      -0.1974
     28  CA       -85.4390   33.5920  -30.8250 C.3    55  ASP55       0.1709
     29  C        -86.1770   34.2040  -29.6380 C.2    55  ASP55       0.2293
     30  O        -87.4100   34.2530  -29.6140 O.2    55  ASP55      -0.2864
     31  CB       -85.0130   32.1630  -30.4850 C.3    55  ASP55       0.1436
     32  CG       -84.6130   31.3570  -31.7170 C.2    55  ASP55       0.3671
     33  OD1      -84.8950   31.8060  -32.8530 O.co2  55  ASP55      -0.2456
     34  OD2      -84.0160   30.2690  -31.5390 O.co2  55  ASP55      -0.2456
     35  N        -88.1990   37.1920  -30.6700 N.3    58  ARG58      -0.1245
     36  CA       -89.3930   36.8280  -31.4300 C.3    58  ARG58       0.1563
     37  C        -90.5820   36.5200  -30.5230 C.2    58  ARG58       0.2260
     38  O        -91.7370   36.6510  -30.9360 O.2    58  ARG58      -0.2867
     39  CB       -89.1080   35.6530  -32.3630 C.3    58  ARG58       0.0307
     40  CG       -88.3470   36.0500  -33.6150 C.3    58  ARG58       0.0489
     41  CD       -87.9820   34.8190  -34.4250 C.3    58  ARG58       0.2205
     42  NE       -89.1350   34.2590  -35.1290 N.pl3  58  ARG58      -0.0865
     43  CZ       -89.1970   33.0130  -35.5860 C.cat  58  ARG58       0.5346
     44  NH1      -88.1780   32.1830  -35.4010 N.pl3  58  ARG58       0.1354
     45  NH2      -90.2830   32.5940  -36.2200 N.pl3  58  ARG58       0.1354
     46  N        -92.1340   43.3410  -29.5840 N.3    63  PHE63      -0.1241
     47  CA       -91.2480   43.0710  -30.7070 C.3    63  PHE63       0.1605
     48  C        -91.9470   42.2440  -31.7850 C.2    63  PHE63       0.2264
     49  O        -91.8910   42.5830  -32.9700 O.2    63  PHE63      -0.2867
     50  CB       -89.9710   42.3710  -30.2210 C.3    63  PHE63       0.0534
     51  CG       -88.9190   42.2170  -31.2860 C.ar   63  PHE63      -0.0203
     52  CD1      -88.0350   43.2490  -31.5620 C.ar   63  PHE63      -0.0042
     53  CD2      -88.8100   41.0350  -32.0000 C.ar   63  PHE63      -0.0042
     54  CE1      -87.0740   43.1110  -32.5340 C.ar   63  PHE63      -0.0003
     55  CE2      -87.8460   40.8890  -32.9740 C.ar   63  PHE63      -0.0003
     56  CZ       -86.9760   41.9290  -33.2430 C.ar   63  PHE63      -0.0000
     57  N        -91.2890   43.4540  -39.9710 N.3    68  VAL68      -0.1245
     58  CA       -89.9550   42.8750  -40.0460 C.3    68  VAL68       0.1561
     59  C        -88.8590   43.9030  -40.3300 C.2    68  VAL68       0.2260
     60  O        -87.7420   43.7750  -39.8260 O.2    68  VAL68      -0.2867
     61  CB       -89.8860   41.7500  -41.0810 C.3    68  VAL68       0.0252
     62  CG1      -88.5470   41.0400  -40.9930 C.3    68  VAL68       0.0019
     63  CG2      -91.0130   40.7670  -40.8380 C.3    68  VAL68       0.0019
     64  N        -88.0460   45.2760  -36.9370 N.3    71  GLN71      -0.1231
     65  CA       -87.3880   44.2050  -36.1940 C.3    71  GLN71       0.1698
     66  C        -85.9260   44.0980  -36.6050 C.2    71  GLN71       0.2592
     67  O        -85.0240   44.0580  -35.7630 O.2    71  GLN71      -0.2718
     68  CB       -88.0950   42.8740  -36.4340 C.3    71  GLN71       0.0381
     69  CG       -89.5720   42.8650  -36.0250 C.3    71  GLN71       0.0905
     70  CD       -90.2030   41.4780  -36.0840 C.2    71  GLN71       0.2608
     71  OE1      -89.7180   40.5870  -36.7780 O.2    71  GLN71      -0.2717
     72  NE2      -91.2950   41.2960  -35.3570 N.am   71  GLN71      -0.0878
     73  N        -85.6960   44.0660  -37.9110 N.am   72  MET72      -0.1979
     74  CA       -84.3440   43.9860  -38.4380 C.3    72  MET72       0.1605
     75  C        -83.4910   45.1650  -37.9930 C.2    72  MET72       0.2287
     76  O        -82.3000   45.0070  -37.7270 O.2    72  MET72      -0.2864
     77  CB       -84.3620   43.9190  -39.9640 C.3    72  MET72       0.0413
     78  CG       -84.9170   42.6220  -40.5330 C.3    72  MET72       0.0598
     79  SD       -84.5200   42.4630  -42.2850 S.3    72  MET72      -0.1393
     80  CE       -82.7580   42.1390  -42.2130 C.3    72  MET72       0.0692
     81  N        -82.7020   44.9570  -34.0390 N.3    75  LEU75      -0.1231
     82  CA       -81.6610   43.9510  -33.8780 C.3    75  LEU75       0.1693
     83  C        -80.3450   44.4160  -34.4940 C.2    75  LEU75       0.2591
     84  O        -79.2660   44.1210  -33.9870 O.2    75  LEU75      -0.2718
     85  CB       -82.1130   42.6180  -34.4870 C.3    75  LEU75       0.0284
     86  CG       -83.1470   41.8450  -33.6570 C.3    75  LEU75       0.0019
     87  CD1      -83.7520   40.7000  -34.4640 C.3    75  LEU75       0.0001
     88  CD2      -82.5280   41.3200  -32.3500 C.3    75  LEU75       0.0001
     89  N        -80.4330   45.1640  -35.5850 N.am   76  GLN76      -0.1979
     90  CA       -79.2320   45.6740  -36.2310 C.3    76  GLN76       0.1601
     91  C        -78.5110   46.6730  -35.3270 C.2    76  GLN76       0.2287
     92  O        -77.2910   46.7860  -35.3430 O.2    76  GLN76      -0.2864
     93  CB       -79.5720   46.3140  -37.5810 C.3    76  GLN76       0.0394
     94  CG       -78.3520   46.6880  -38.3940 C.3    76  GLN76       0.0908
     95  CD       -77.4160   45.5100  -38.5960 C.2    76  GLN76       0.2608
     96  OE1      -77.8470   44.4280  -38.9920 O.2    76  GLN76      -0.2717
     97  NE2      -76.1280   45.7150  -38.3300 N.am   76  GLN76      -0.0878
     98  N        -74.7570   32.7450  -47.3160 N.3   225  ARG225     -0.1231
     99  CA       -74.4760   33.1840  -45.9600 C.3   225  ARG225      0.1694
    100  C        -74.8080   32.0660  -44.9660 C.2   225  ARG225      0.2592
    101  O        -75.8270   31.3850  -45.0940 O.2   225  ARG225     -0.2718
    102  CB       -75.2080   34.4910  -45.6490 C.3   225  ARG225      0.0321
    103  CG       -74.6180   35.6750  -46.3970 C.3   225  ARG225      0.0489
    104  CD       -75.4370   36.9450  -46.2370 C.3   225  ARG225      0.2205
    105  NE       -74.9180   38.0000  -47.1050 N.pl3 225  ARG225     -0.0865
    106  CZ       -75.4550   39.2090  -47.2310 C.cat 225  ARG225      0.5346
    107  NH1      -74.9070   40.0950  -48.0510 N.pl3 225  ARG225      0.1354
    108  NH2      -76.5370   39.5340  -46.5400 N.pl3 225  ARG225      0.1354
    109  N        -73.9180   31.8700  -43.9990 N.am  226  ASN226     -0.1960
    110  CA       -73.9990   30.7620  -43.0530 C.3   226  ASN226      0.1819
    111  C        -73.9570   31.3240  -41.6370 C.2   226  ASN226      0.2621
    112  O        -74.5150   30.7500  -40.6970 O.2   226  ASN226     -0.2715
    113  CB       -72.8150   29.8060  -43.2920 C.3   226  ASN226      0.1195
    114  CG       -72.8650   28.5480  -42.4230 C.2   226  ASN226      0.2630
    115  OD1      -71.8910   27.7920  -42.3590 O.2   226  ASN226     -0.2716
    116  ND2      -73.9940   28.3150  -41.7620 N.am  226  ASN226     -0.0877
    117  N        -73.3000   32.4690  -41.5010 N.am  227  ASN227     -0.1958
    118  CA       -73.0770   33.0740  -40.1950 C.3   227  ASN227      0.1819
    119  C        -73.8550   34.3840  -40.0440 C.2   227  ASN227      0.2621
    120  O        -73.5840   35.3780  -40.7240 O.2   227  ASN227     -0.2715
    121  CB       -71.5760   33.2710  -39.9660 C.3   227  ASN227      0.1195
    122  CG       -71.2470   33.6170  -38.5400 C.2   227  ASN227      0.2630
    123  OD1      -71.6750   34.6490  -38.0280 O.2   227  ASN227     -0.2716
    124  ND2      -70.4720   32.7600  -37.8890 N.am  227  ASN227     -0.0877
    125  N        -74.8460   34.3580  -39.1630 N.am  228  LEU228     -0.1977
    126  CA       -75.7040   35.5070  -38.9210 C.3   228  LEU228      0.1596
    127  C        -74.9050   36.7310  -38.4830 C.2   228  LEU228      0.2287
    128  O        -75.1130   37.8360  -38.9990 O.2   228  LEU228     -0.2864
    129  CB       -76.7400   35.1680  -37.8580 C.3   228  LEU228      0.0297
    130  CG       -77.8370   36.2040  -37.6440 C.3   228  LEU228      0.0022
    131  CD1      -78.5770   36.4560  -38.9480 C.3   228  LEU228      0.0001
    132  CD2      -78.7940   35.7490  -36.5370 C.3   228  LEU228      0.0001
    133  N        -73.1820   38.7100  -41.1210 N.3   231  GLU231     -0.1231
    134  CA       -74.1680   39.5810  -41.7470 C.3   231  GLU231      0.1699
    135  C        -74.4130   40.8510  -40.9200 C.2   231  GLU231      0.2592
    136  O        -74.3990   41.9620  -41.4540 O.2   231  GLU231     -0.2718
    137  CB       -75.4750   38.8190  -41.9640 C.3   231  GLU231      0.0402
    138  CG       -76.6250   39.6910  -42.3990 C.3   231  GLU231      0.1161
    139  CD       -77.8230   38.8850  -42.8330 C.2   231  GLU231      0.3649
    140  OE1      -78.9200   39.1040  -42.2720 O.co2 231  GLU231     -0.2457
    141  OE2      -77.6630   38.0300  -43.7330 O.co2 231  GLU231     -0.2457
    142  N        -74.6300   40.6790  -39.6170 N.am  232  MET232     -0.1979
    143  CA       -74.8740   41.8070  -38.7180 C.3   232  MET232      0.1605
    144  C        -73.7100   42.7930  -38.7630 C.2   232  MET232      0.2287
    145  O        -73.9100   44.0060  -38.7860 O.2   232  MET232     -0.2864
    146  CB       -75.0690   41.3180  -37.2840 C.3   232  MET232      0.0413
    147  CG       -76.1740   40.2880  -37.0890 C.3   232  MET232      0.0598
    148  SD       -77.8080   40.8650  -37.6010 S.3   232  MET232     -0.1393
    149  CE       -78.0900   42.1940  -36.4370 C.3   232  MET232      0.0692
@<TRIPOS>BOND
     1   107   106    1
     2    98    99    1
     3   106   105    2
     4   106   108    1
     5   105   104    1
     6   103   104    1
     7   103   102    1
     8    99   102    1
     9    99   100    1
    10   101   100    2
    11   100   109   am
    12   109   110    1
    13   141   139   ar
    14   113   110    1
    15   113   114    1
    16   110   111    1
    17   139   138    1
    18   139   140   ar
    19   114   115    2
    20   114   116   am
    21   138   137    1
    22    79    80    1
    23    79    78    1
    24   137   134    1
    25   134   133    1
    26   134   135    1
    27   111   117   am
    28   111   112    2
    29   117   118    1
    30   136   135    2
    31    61    62    1
    32    61    63    1
    33    61    58    1
    34   135   142   am
    35   120   119    2
    36    78    77    1
    37    59    58    1
    38    59    60    2
    39   118   119    1
    40   118   121    1
    41    58    57    1
    42   119   125   am
    43   121   122    1
    44    77    74    1
    45   142   143    1
    46   125   126    1
    47   128   127    2
    48    96    95    2
    49   131   130    1
    50   126   127    1
    51   126   129    1
    52   145   144    2
    53   144   143    1
    54   143   146    1
    55    95    94    1
    56    95    97   am
    57   122   123    2
    58   122   124   am
    59    74    75    1
    60    74    73    1
    61    94    93    1
    62    75    76    2
    63    73    66   am
    64   129   130    1
    65   130   132    1
    66   148   147    1
    67   148   149    1
    68    93    90    1
    69   146   147    1
    70    64    65    1
    71    71    70    2
    72    66    65    1
    73    66    67    2
    74    68    65    1
    75    68    69    1
    76    90    89    1
    77    90    91    1
    78    45    43    1
    79    70    69    1
    80    70    72   am
    81    43    44    1
    82    43    42    2
    83    89    83   am
    84    19    17    1
    85    92    91    2
    86    42    41    1
    87    17    16    1
    88    83    84    2
    89    83    82    1
    90    85    82    1
    91    85    86    1
    92    10     8   ar
    93    10    11   ar
    94    87    86    1
    95    41    40    1
    96    25    24    1
    97    81    82    1
    98     8     6   ar
    99    18    16    1
   100    86    88    1
   101    40    39    1
   102    11     9   ar
   103    26    24    1
   104    16    13    1
   105    24    21    1
   106    56    55   ar
   107    56    54   ar
   108    55    53   ar
   109    49    48    2
   110    33    32   ar
   111    13    12    1
   112    13    14    1
   113     6     5    1
   114     6     7   ar
   115    54    52   ar
   116    39    36    1
   117     9     7   ar
   118    12     3   am
   119     5     2    1
   120    53    51   ar
   121    21    22    1
   122    21    20    1
   123    48    47    1
   124    15    14    2
   125    32    34   ar
   126    32    31    1
   127    23    22    2
   128    52    51   ar
   129    22    27   am
   130     3     4    2
   131     3     2    1
   132    36    35    1
   133    36    37    1
   134    51    50    1
   135    27    28    1
   136     2     1    1
   137    38    37    2
   138    28    31    1
   139    28    29    1
   140    47    50    1
   141    47    46    1
   142    29    30    2
