@<TRIPOS>MOLECULE
tmp/3f7gE00.pdb
 126 125 0 0 0
SMALL
GASTEIGER

@<TRIPOS>ATOM
      1  N         29.2550   54.0080    5.1940 N.3    39  THR39      -0.1218
      2  CA        29.8250   53.2550    6.3190 C.3    39  THR39       0.1862
      3  C         31.3430   53.4380    6.4420 C.2    39  THR39       0.2287
      4  O         31.9260   53.2070    7.5030 O.2    39  THR39      -0.2866
      5  CB        29.5490   51.7410    6.1880 C.3    39  THR39       0.1770
      6  OG1       30.2990   51.2110    5.0770 O.3    39  THR39      -0.2211
      7  CG2       28.0370   51.4730    6.0120 C.3    39  THR39       0.0375
      8  N         29.7220   50.8180    0.4980 N.3    44  LYS44      -0.1231
      9  CA        28.5840   50.4200    1.3150 C.3    44  LYS44       0.1693
     10  C         27.9600   51.6410    1.9800 C.2    44  LYS44       0.2592
     11  O         28.6490   52.4210    2.6420 O.2    44  LYS44      -0.2718
     12  CB        29.0000   49.4060    2.3760 C.3    44  LYS44       0.0285
     13  CG        29.7260   48.1850    1.8290 C.3    44  LYS44       0.0035
     14  CD        29.4940   46.9130    2.6640 C.3    44  LYS44       0.0206
     15  CE        29.6570   47.1120    4.1700 C.3    44  LYS44       0.1093
     16  NZ        29.3810   45.8540    4.9490 N.3    44  LYS44      -0.1314
     17  N         26.6560   51.8090    1.7780 N.am   45  VAL45      -0.1966
     18  CA        25.9050   52.8700    2.4340 C.3    45  VAL45       0.1727
     19  C         24.7360   52.2860    3.2100 C.2    45  VAL45       0.2616
     20  O         24.3550   51.1290    3.0280 O.2    45  VAL45      -0.2715
     21  CB        25.3590   53.9140    1.4420 C.3    45  VAL45       0.0290
     22  CG1       26.4850   54.4610    0.5550 C.3    45  VAL45       0.0023
     23  CG2       24.1990   53.3180    0.6140 C.3    45  VAL45       0.0023
     24  N         24.1750   53.0970    4.0890 N.am   46  ARG46      -0.1977
     25  CA        23.0730   52.6460    4.9100 C.3    46  ARG46       0.1597
     26  C         22.1250   53.7980    5.1500 C.2    46  ARG46       0.2287
     27  O         22.5590   54.9410    5.2840 O.2    46  ARG46      -0.2864
     28  CB        23.5850   52.0850    6.2250 C.3    46  ARG46       0.0334
     29  CG        22.5570   51.2970    6.9740 C.3    46  ARG46       0.0492
     30  CD        23.0750   50.8720    8.3060 C.3    46  ARG46       0.2205
     31  NE        24.1810   49.9200    8.2370 N.pl3  46  ARG46      -0.0865
     32  CZ        24.0600   48.5970    8.1200 C.cat  46  ARG46       0.5346
     33  NH1       22.8720   48.0160    7.9910 N.pl3  46  ARG46       0.1354
     34  NH2       25.1540   47.8450    8.1100 N.pl3  46  ARG46       0.1354
     35  N         21.0650   48.5060    4.1160 N.3    53  GLY53      -0.1210
     36  CA        22.3760   48.6590    3.4890 C.3    53  GLY53       0.1956
     37  C         22.3730   48.3190    2.0080 C.2    53  GLY53       0.2612
     38  O         21.8080   47.3040    1.5980 O.2    53  GLY53      -0.2717
     39  N         23.0190   49.1710    1.2100 N.am   54  LEU54      -0.1965
     40  CA        23.2030   48.9380   -0.2200 C.3    54  LEU54       0.1728
     41  C         24.6730   49.1160   -0.6080 C.2    54  LEU54       0.2616
     42  O         25.3730   49.9810   -0.0620 O.2    54  LEU54      -0.2715
     43  CB        22.3360   49.9070   -1.0380 C.3    54  LEU54       0.0311
     44  CG        20.8050   49.7880   -0.9270 C.3    54  LEU54       0.0022
     45  CD1       20.1390   50.9470   -1.6460 C.3    54  LEU54       0.0001
     46  CD2       20.2900   48.4460   -1.4610 C.3    54  LEU54       0.0001
     47  N         25.1310   48.2890   -1.5450 N.am   55  GLN55      -0.1963
     48  CA        26.4960   48.3670   -2.0770 C.3    55  GLN55       0.1733
     49  C         26.4930   48.1120   -3.5870 C.2    55  GLN55       0.2617
     50  O         25.4370   47.9130   -4.1800 O.2    55  GLN55      -0.2715
     51  CB        27.4050   47.3550   -1.3610 C.3    55  GLN55       0.0408
     52  CG        27.0000   45.8920   -1.5520 C.3    55  GLN55       0.0908
     53  CD        27.9750   44.9030   -0.9310 C.2    55  GLN55       0.2608
     54  OE1       27.8440   43.6960   -1.1180 O.2    55  GLN55      -0.2717
     55  NE2       28.9560   45.4070   -0.1960 N.am   55  GLN55      -0.0878
     56  N         27.6790   48.0970   -4.1930 N.am   56  SER56      -0.1936
     57  CA        27.8420   47.8470   -5.6360 C.3    56  SER56       0.2055
     58  C         27.0900   48.8820   -6.4850 C.2    56  SER56       0.2643
     59  O         26.3760   48.5460   -7.4350 O.2    56  SER56      -0.2714
     60  CB        27.4120   46.4230   -5.9860 C.3    56  SER56       0.2130
     61  OG        28.0530   45.5020   -5.1240 O.3    56  SER56      -0.2179
     62  N         27.2810   50.1460   -6.1270 N.am   57  TRP57      -0.1959
     63  CA        26.6600   51.2510   -6.8380 C.3    57  TRP57       0.1771
     64  C         27.2710   51.3890   -8.2170 C.2    57  TRP57       0.2619
     65  O         28.4760   51.2530   -8.3770 O.2    57  TRP57      -0.2715
     66  CB        26.8180   52.5460   -6.0490 C.3    57  TRP57       0.0590
     67  CG        26.0290   52.4980   -4.7970 C.ar   57  TRP57       0.0006
     68  CD1       26.4300   52.0030   -3.5880 C.ar   57  TRP57       0.0946
     69  CD2       24.6790   52.9250   -4.6290 C.ar   57  TRP57       0.0152
     70  NE1       25.4150   52.1050   -2.6800 N.ar   57  TRP57      -0.2442
     71  CE2       24.3240   52.6610   -3.2930 C.ar   57  TRP57       0.0810
     72  CE3       23.7310   53.4950   -5.4840 C.ar   57  TRP57       0.0012
     73  CZ2       23.0650   52.9630   -2.7830 C.ar   57  TRP57       0.0191
     74  CZ3       22.4760   53.7890   -4.9830 C.ar   57  TRP57       0.0001
     75  CH2       22.1540   53.5240   -3.6390 C.ar   57  TRP57       0.0015
     76  N         26.4200   51.6410   -9.2060 N.am   58  LYS58      -0.1977
     77  CA        26.8320   51.7570  -10.5940 C.3    58  LYS58       0.1596
     78  C         26.2550   53.0210  -11.2040 C.2    58  LYS58       0.2287
     79  O         25.1840   53.4830  -10.8080 O.2    58  LYS58      -0.2864
     80  CB        26.3810   50.5230  -11.3700 C.3    58  LYS58       0.0298
     81  CG        27.2500   49.3250  -11.0660 C.3    58  LYS58       0.0038
     82  CD        26.6770   48.0240  -11.5830 C.3    58  LYS58       0.0206
     83  CE        27.6230   46.8710  -11.2530 C.3    58  LYS58       0.1093
     84  NZ        27.0900   45.5490  -11.7170 N.3    58  LYS58      -0.1314
     85  N         22.5040   54.5380  -11.3420 N.3    61  ASP61      -0.1239
     86  CA        21.6650   54.1380  -10.2160 C.3    61  ASP61       0.1674
     87  C         21.0850   55.4090   -9.5940 C.2    61  ASP61       0.2266
     88  O         21.8260   56.3330   -9.2750 O.2    61  ASP61      -0.2867
     89  CB        22.4670   53.3820   -9.1470 C.3    61  ASP61       0.1410
     90  CG        22.8290   51.9450   -9.5400 C.2    61  ASP61       0.3668
     91  OD1       22.4870   51.4530  -10.6400 O.co2  61  ASP61      -0.2456
     92  OD2       23.4990   51.2960   -8.7070 O.co2  61  ASP61      -0.2456
     93  N         16.6450   52.9160   -5.8870 N.3    66  GLU66      -0.1245
     94  CA        17.2170   51.7400   -5.2100 C.3    66  GLU66       0.1567
     95  C         16.6250   51.6060   -3.8170 C.2    66  GLU66       0.2260
     96  O         16.2830   50.5170   -3.3890 O.2    66  GLU66      -0.2867
     97  CB        18.7560   51.8040   -5.1300 C.3    66  GLU66       0.0388
     98  CG        19.4570   51.9120   -6.4790 C.3    66  GLU66       0.1160
     99  CD        19.1130   50.7720   -7.4180 C.2    66  GLU66       0.3649
    100  OE1       19.4650   49.6210   -7.0990 O.co2  66  GLU66      -0.2457
    101  OE2       18.5060   51.0290   -8.4830 O.co2  66  GLU66      -0.2457
    102  N         14.5020   48.1500   -2.7840 N.3    70  TRP70      -0.1227
    103  CA        15.0330   47.2170   -1.8070 C.3    70  TRP70       0.1737
    104  C         14.4070   47.3350   -0.4220 C.2    70  TRP70       0.2595
    105  O         14.3040   46.3340    0.2970 O.2    70  TRP70      -0.2718
    106  CB        16.5540   47.3620   -1.7360 C.3    70  TRP70       0.0564
    107  CG        17.2200   47.0280   -3.0320 C.ar   70  TRP70       0.0003
    108  CD1       17.8990   47.8840   -3.8450 C.ar   70  TRP70       0.0946
    109  CD2       17.2440   45.7550   -3.6800 C.ar   70  TRP70       0.0152
    110  NE1       18.3620   47.2210   -4.9520 N.ar   70  TRP70      -0.2442
    111  CE2       17.9740   45.9110   -4.8780 C.ar   70  TRP70       0.0810
    112  CE3       16.7330   44.4890   -3.3590 C.ar   70  TRP70       0.0012
    113  CZ2       18.2020   44.8490   -5.7640 C.ar   70  TRP70       0.0191
    114  CZ3       16.9600   43.4310   -4.2390 C.ar   70  TRP70       0.0001
    115  CH2       17.6850   43.6210   -5.4310 C.ar   70  TRP70       0.0015
    116  N         13.9830   48.5440   -0.0600 N.am   71  PHE71      -0.1976
    117  CA        13.3910   48.8060    1.2570 C.3    71  PHE71       0.1639
    118  C         12.1090   49.6230    1.1090 C.2    71  PHE71       0.2290
    119  O         12.0090   50.7180    1.6490 O.2    71  PHE71      -0.2864
    120  CB        14.4200   49.5330    2.1480 C.3    71  PHE71       0.0560
    121  CG        15.8040   48.9180    2.0980 C.ar   71  PHE71      -0.0200
    122  CD1       16.8810   49.6270    1.5950 C.ar   71  PHE71      -0.0042
    123  CD2       16.0140   47.6130    2.5150 C.ar   71  PHE71      -0.0042
    124  CE1       18.1490   49.0470    1.5240 C.ar   71  PHE71      -0.0003
    125  CE2       17.2850   47.0290    2.4450 C.ar   71  PHE71      -0.0003
    126  CZ        18.3450   47.7510    1.9500 C.ar   71  PHE71      -0.0000
@<TRIPOS>BOND
     1    84    83    1
     2    82    83    1
     3    82    81    1
     4    80    81    1
     5    80    77    1
     6    85    86    1
     7    78    79    2
     8    78    77    1
     9    91    90   ar
    10    77    76    1
    11    86    87    1
    12    86    89    1
    13    87    88    2
    14    90    89    1
    15    90    92   ar
    16    76    64   am
    17   101    99   ar
    18    65    64    2
    19    64    63    1
    20    59    58    2
    21    99   100   ar
    22    99    98    1
    23    63    62    1
    24    63    66    1
    25    58    62   am
    26    58    57    1
    27    98    97    1
    28    66    67    1
    29    60    57    1
    30    60    61    1
    31    93    94    1
    32   113   115   ar
    33   113   111   ar
    34    57    56    1
    35    72    74   ar
    36    72    69   ar
    37   115   114   ar
    38    94    97    1
    39    94    95    1
    40    74    75   ar
    41   110   111   ar
    42   110   108   ar
    43   111   109   ar
    44    67    69   ar
    45    67    68   ar
    46    69    71   ar
    47   114   112   ar
    48    56    49   am
    49    50    49    2
    50   108   107   ar
    51    95    96    2
    52   109   112   ar
    53   109   107   ar
    54    75    73   ar
    55    68    70   ar
    56    49    48    1
    57    71    73   ar
    58    71    70   ar
    59   107   106    1
    60   102   103    1
    61    48    47    1
    62    48    51    1
    63   103   106    1
    64   103   104    1
    65    45    44    1
    66    52    51    1
    67    52    53    1
    68    47    41   am
    69    46    44    1
    70    54    53    2
    71    43    44    1
    72    43    40    1
    73    53    55   am
    74    41    40    1
    75    41    42    2
    76   104   116   am
    77   104   105    2
    78    40    39    1
    79   116   117    1
    80     8     9    1
    81    22    21    1
    82    23    21    1
    83   118   117    1
    84   118   119    2
    85    39    37   am
    86   117   120    1
    87     9    10    1
    88     9    12    1
    89    21    18    1
    90   124   122   ar
    91   124   126   ar
    92   122   121   ar
    93    38    37    2
    94    17    10   am
    95    17    18    1
    96    13    12    1
    97    13    14    1
    98   126   125   ar
    99    10    11    2
   100    37    36    1
   101   121   120    1
   102   121   123   ar
   103    18    19    1
   104   125   123   ar
   105    14    15    1
   106    20    19    2
   107    19    24   am
   108    36    35    1
   109    24    25    1
   110    15    16    1
   111    25    26    1
   112    25    28    1
   113     6     5    1
   114    26    27    2
   115     1     2    1
   116     7     5    1
   117     5     2    1
   118    28    29    1
   119     2     3    1
   120     3     4    2
   121    29    30    1
   122    33    32    1
   123    34    32    1
   124    32    31    2
   125    31    30    1
