@<TRIPOS>MOLECULE
tmp/3f7hB00.pdb
 126 125 0 0 0
SMALL
GASTEIGER

@<TRIPOS>ATOM
      1  N         75.2730   62.6220   40.1240 N.3    39  THR39      -0.1218
      2  CA        75.1280   61.9440   38.8270 C.3    39  THR39       0.1862
      3  C         74.4370   62.7870   37.7490 C.2    39  THR39       0.2287
      4  O         74.4090   62.3880   36.5840 O.2    39  THR39      -0.2866
      5  CB        74.3310   60.6310   38.9540 C.3    39  THR39       0.1770
      6  OG1       72.9740   60.9260   39.3070 O.3    39  THR39      -0.2211
      7  CG2       74.9590   59.7160   39.9950 C.3    39  THR39       0.0375
      8  N         70.6090   62.4580   43.3200 N.3    44  LYS44      -0.1231
      9  CA        71.3370   61.1960   43.3320 C.3    44  LYS44       0.1693
     10  C         72.8430   61.4350   43.3440 C.2    44  LYS44       0.2592
     11  O         73.3670   62.1950   42.5220 O.2    44  LYS44      -0.2718
     12  CB        70.9680   60.3710   42.0950 C.3    44  LYS44       0.0285
     13  CG        69.5480   59.8380   42.0780 C.3    44  LYS44       0.0035
     14  CD        69.2410   59.1810   40.7310 C.3    44  LYS44       0.0206
     15  CE        67.9890   58.3240   40.7700 C.3    44  LYS44       0.1093
     16  NZ        66.7370   59.1310   40.8710 N.3    44  LYS44      -0.1314
     17  N         73.5410   60.7790   44.2720 N.am   45  VAL45      -0.1966
     18  CA        75.0000   60.8430   44.3260 C.3    45  VAL45       0.1727
     19  C         75.5790   59.4340   44.3950 C.2    45  VAL45       0.2616
     20  O         74.8910   58.5080   44.8050 O.2    45  VAL45      -0.2715
     21  CB        75.5030   61.6670   45.5360 C.3    45  VAL45       0.0290
     22  CG1       74.8810   63.0740   45.5410 C.3    45  VAL45       0.0023
     23  CG2       75.2220   60.9420   46.8550 C.3    45  VAL45       0.0023
     24  N         76.8340   59.2870   43.9770 N.am   46  ARG46      -0.1977
     25  CA        77.5810   58.0340   44.1360 C.3    46  ARG46       0.1597
     26  C         78.9270   58.2960   44.7920 C.2    46  ARG46       0.2287
     27  O         79.5280   59.3530   44.5850 O.2    46  ARG46      -0.2864
     28  CB        77.8340   57.3700   42.7840 C.3    46  ARG46       0.0334
     29  CG        76.6170   56.7540   42.1490 C.3    46  ARG46       0.0492
     30  CD        77.0230   55.8370   41.0050 C.3    46  ARG46       0.2205
     31  NE        75.8740   55.2710   40.3090 N.pl3  46  ARG46      -0.0865
     32  CZ        75.0760   54.3250   40.8030 C.cat  46  ARG46       0.5346
     33  NH1       75.2510   53.8350   42.0240 N.pl3  46  ARG46       0.1354
     34  NH2       74.0650   53.8850   40.0710 N.pl3  46  ARG46       0.1354
     35  N         75.2890   54.3190   45.6840 N.3    53  GLY53      -0.1210
     36  CA        74.4040   55.4400   45.3770 C.3    53  GLY53       0.1956
     37  C         73.4270   55.7530   46.4970 C.2    53  GLY53       0.2612
     38  O         72.8580   54.8410   47.0950 O.2    53  GLY53      -0.2717
     39  N         73.2510   57.0430   46.7920 N.am   54  LEU54      -0.1965
     40  CA        72.2470   57.5010   47.7630 C.3    54  LEU54       0.1728
     41  C         71.4730   58.6900   47.2060 C.2    54  LEU54       0.2616
     42  O         72.0470   59.5380   46.5160 O.2    54  LEU54      -0.2715
     43  CB        72.9120   57.9110   49.0770 C.3    54  LEU54       0.0311
     44  CG        73.5530   56.7910   49.8990 C.3    54  LEU54       0.0022
     45  CD1       74.3810   57.3770   51.0570 C.3    54  LEU54       0.0001
     46  CD2       72.4820   55.8340   50.4190 C.3    54  LEU54       0.0001
     47  N         70.1760   58.7380   47.4980 N.am   55  GLN55      -0.1963
     48  CA        69.3230   59.8610   47.0860 C.3    55  GLN55       0.1733
     49  C         68.3000   60.1800   48.1780 C.2    55  GLN55       0.2617
     50  O         68.3320   59.5800   49.2600 O.2    55  GLN55      -0.2715
     51  CB        68.6340   59.5460   45.7500 C.3    55  GLN55       0.0408
     52  CG        67.6440   58.3830   45.7710 C.3    55  GLN55       0.0908
     53  CD        66.9640   58.1610   44.4290 C.2    55  GLN55       0.2608
     54  OE1       66.8750   57.0280   43.9350 O.2    55  GLN55      -0.2717
     55  NE2       66.4750   59.2320   43.8360 N.am   55  GLN55      -0.0878
     56  N         67.4040   61.1270   47.9040 N.am   56  SER56      -0.1936
     57  CA        66.3780   61.5340   48.8670 C.3    56  SER56       0.2055
     58  C         67.0050   61.9390   50.1990 C.2    56  SER56       0.2643
     59  O         66.5790   61.4970   51.2760 O.2    56  SER56      -0.2714
     60  CB        65.3410   60.4220   49.0610 C.3    56  SER56       0.2130
     61  OG        64.8080   60.0120   47.8120 O.3    56  SER56      -0.2179
     62  N         68.0270   62.7850   50.0990 N.am   57  TRP57      -0.1959
     63  CA        68.7080   63.3380   51.2580 C.3    57  TRP57       0.1771
     64  C         67.7530   64.2200   52.0590 C.2    57  TRP57       0.2619
     65  O         66.9860   65.0060   51.4900 O.2    57  TRP57      -0.2715
     66  CB        69.9530   64.1220   50.8130 C.3    57  TRP57       0.0590
     67  CG        71.0200   63.2380   50.2190 C.ar   57  TRP57       0.0006
     68  CD1       71.1280   62.8340   48.9210 C.ar   57  TRP57       0.0946
     69  CD2       72.1160   62.6420   50.9180 C.ar   57  TRP57       0.0152
     70  NE1       72.2320   62.0230   48.7640 N.ar   57  TRP57      -0.2442
     71  CE2       72.8550   61.8900   49.9770 C.ar   57  TRP57       0.0810
     72  CE3       72.5490   62.6730   52.2510 C.ar   57  TRP57       0.0012
     73  CZ2       73.9970   61.1750   50.3270 C.ar   57  TRP57       0.0191
     74  CZ3       73.6870   61.9610   52.5970 C.ar   57  TRP57       0.0001
     75  CH2       74.3970   61.2220   51.6390 C.ar   57  TRP57       0.0015
     76  N         67.7880   64.0630   53.3800 N.am   58  LYS58      -0.1977
     77  CA        66.8950   64.7870   54.2750 C.3    58  LYS58       0.1596
     78  C         67.6810   65.7530   55.1430 C.2    58  LYS58       0.2287
     79  O         68.8470   65.5090   55.4590 O.2    58  LYS58      -0.2864
     80  CB        66.1190   63.8050   55.1630 C.3    58  LYS58       0.0298
     81  CG        65.2050   62.8600   54.3930 C.3    58  LYS58       0.0038
     82  CD        64.0580   63.6010   53.7080 C.3    58  LYS58       0.0206
     83  CE        63.2900   62.6880   52.7610 C.3    58  LYS58       0.1093
     84  NZ        62.1220   63.3730   52.1410 N.3    58  LYS58      -0.1314
     85  N         70.7910   65.0520   57.5830 N.3    61  ASP61      -0.1239
     86  CA        71.6170   63.9090   57.1790 C.3    61  ASP61       0.1674
     87  C         73.0800   64.3280   57.1620 C.2    61  ASP61       0.2266
     88  O         73.4150   65.4110   56.6670 O.2    61  ASP61      -0.2867
     89  CB        71.2530   63.3990   55.7790 C.3    61  ASP61       0.1410
     90  CG        70.0260   62.5040   55.7600 C.2    61  ASP61       0.3668
     91  OD1       69.4540   62.1870   56.8270 O.co2  61  ASP61      -0.2456
     92  OD2       69.6270   62.1160   54.6410 O.co2  61  ASP61      -0.2456
     93  N         75.9090   58.5340   56.6900 N.3    66  GLU66      -0.1245
     94  CA        75.1530   57.7750   55.6940 C.3    66  GLU66       0.1567
     95  C         76.0710   56.8470   54.8850 C.2    66  GLU66       0.2260
     96  O         75.7040   55.7040   54.6020 O.2    66  GLU66      -0.2867
     97  CB        74.3700   58.7150   54.7700 C.3    66  GLU66       0.0388
     98  CG        73.3240   59.5800   55.4830 C.3    66  GLU66       0.1160
     99  CD        72.2250   58.7760   56.1670 C.2    66  GLU66       0.3649
    100  OE1       71.5290   57.9980   55.4860 O.co2  66  GLU66      -0.2457
    101  OE2       72.0450   58.9350   57.3900 O.co2  66  GLU66      -0.2457
    102  N         75.2600   52.6980   54.9930 N.3    70  TRP70      -0.1227
    103  CA        74.8180   51.9610   53.8080 C.3    70  TRP70       0.1737
    104  C         75.9370   51.1790   53.0960 C.2    70  TRP70       0.2595
    105  O         75.6760   50.1310   52.4840 O.2    70  TRP70      -0.2718
    106  CB        74.1300   52.9330   52.8450 C.3    70  TRP70       0.0564
    107  CG        72.8910   53.5820   53.4300 C.ar   70  TRP70       0.0003
    108  CD1       72.7360   54.8950   53.7800 C.ar   70  TRP70       0.0946
    109  CD2       71.6470   52.9400   53.7380 C.ar   70  TRP70       0.0152
    110  NE1       71.4740   55.1100   54.2810 N.ar   70  TRP70      -0.2442
    111  CE2       70.7840   53.9280   54.2660 C.ar   70  TRP70       0.0810
    112  CE3       71.1750   51.6250   53.6150 C.ar   70  TRP70       0.0012
    113  CZ2       69.4760   53.6460   54.6630 C.ar   70  TRP70       0.0191
    114  CZ3       69.8770   51.3460   54.0100 C.ar   70  TRP70       0.0001
    115  CH2       69.0410   52.3540   54.5330 C.ar   70  TRP70       0.0015
    116  N         77.1730   51.6650   53.2010 N.am   71  PHE71      -0.1976
    117  CA        78.3180   51.0640   52.5070 C.3    71  PHE71       0.1639
    118  C         79.5120   50.8640   53.4520 C.2    71  PHE71       0.2290
    119  O         80.6030   51.3910   53.2050 O.2    71  PHE71      -0.2864
    120  CB        78.7130   51.9310   51.3030 C.3    71  PHE71       0.0560
    121  CG        77.5360   52.4140   50.4930 C.ar   71  PHE71      -0.0200
    122  CD1       76.7120   51.5170   49.8310 C.ar   71  PHE71      -0.0042
    123  CD2       77.2600   53.7750   50.3920 C.ar   71  PHE71      -0.0042
    124  CE1       75.6150   51.9700   49.0930 C.ar   71  PHE71      -0.0003
    125  CE2       76.1740   54.2310   49.6570 C.ar   71  PHE71      -0.0003
    126  CZ        75.3510   53.3290   49.0130 C.ar   71  PHE71      -0.0000
@<TRIPOS>BOND
     1     4     3    2
     2     3     2    1
     3     2     5    1
     4     2     1    1
     5     5     6    1
     6     5     7    1
     7    34    32    1
     8    31    32    2
     9    31    30    1
    10    14    15    1
    11    14    13    1
    12    15    16    1
    13    32    33    1
    14    30    29    1
    15    13    12    1
    16    12     9    1
    17    29    28    1
    18    11    10    2
    19    28    25    1
    20     8     9    1
    21     9    10    1
    22    10    17   am
    23    55    53   am
    24    54    53    2
    25    24    25    1
    26    24    19   am
    27    25    26    1
    28    17    18    1
    29    18    19    1
    30    18    21    1
    31    19    20    2
    32    53    52    1
    33    27    26    2
    34    36    35    1
    35    36    37    1
    36    21    22    1
    37    21    23    1
    38    51    52    1
    39    51    48    1
    40    37    39   am
    41    37    38    2
    42    42    41    2
    43    39    40    1
    44    48    47    1
    45    48    49    1
    46    41    47   am
    47    41    40    1
    48    40    43    1
    49    61    60    1
    50    56    49   am
    51    56    57    1
    52    49    50    2
    53    70    68   ar
    54    70    71   ar
    55    57    60    1
    56    57    58    1
    57    68    67   ar
    58   126   124   ar
    59   126   125   ar
    60    43    44    1
    61   124   122   ar
    62   125   123   ar
    63   122   121   ar
    64    44    46    1
    65    44    45    1
    66    71    73   ar
    67    71    69   ar
    68    62    58   am
    69    62    63    1
    70    58    59    2
    71    67    66    1
    72    67    69   ar
    73    73    75   ar
    74   123   121   ar
    75   121   120    1
    76    66    63    1
    77    69    72   ar
    78    63    64    1
    79   120   117    1
    80    65    64    2
    81    75    74   ar
    82    64    76   am
    83    84    83    1
    84    72    74   ar
    85   105   104    2
    86   117   116    1
    87   117   118    1
    88    83    82    1
    89   106   107    1
    90   106   103    1
    91   104   116   am
    92   104   103    1
    93   119   118    2
    94    76    77    1
    95   107   109   ar
    96   107   108   ar
    97   112   109   ar
    98   112   114   ar
    99    82    81    1
   100   109   111   ar
   101   108   110   ar
   102   103   102    1
   103   114   115   ar
   104   111   110   ar
   105   111   113   ar
   106    77    78    1
   107    77    80    1
   108    81    80    1
   109   115   113   ar
   110    96    95    2
   111    92    90   ar
   112    97    98    1
   113    97    94    1
   114    95    94    1
   115    78    79    2
   116    98    99    1
   117   100    99   ar
   118    94    93    1
   119    90    89    1
   120    90    91   ar
   121    89    86    1
   122    99   101   ar
   123    88    87    2
   124    87    86    1
   125    86    85    1
