@<TRIPOS>MOLECULE
tmp/3f7iA00.pdb
 126 125 0 0 0
SMALL
GASTEIGER

@<TRIPOS>ATOM
      1  N         77.0610   63.2130   27.1640 N.3    39  THR39      -0.1218
      2  CA        75.6040   63.2550   27.2230 C.3    39  THR39       0.1862
      3  C         75.0460   62.2100   28.1840 C.2    39  THR39       0.2287
      4  O         73.9070   62.3210   28.6220 O.2    39  THR39      -0.2866
      5  CB        74.9500   63.0310   25.8410 C.3    39  THR39       0.1770
      6  OG1       75.1710   61.6810   25.4170 O.3    39  THR39      -0.2211
      7  CG2       75.4950   64.0040   24.8090 C.3    39  THR39       0.0375
      8  N         78.3910   59.3750   23.1870 N.3    44  LYS44      -0.1231
      9  CA        77.9290   60.6390   22.6340 C.3    44  LYS44       0.1693
     10  C         78.3720   61.7910   23.5180 C.2    44  LYS44       0.2592
     11  O         78.0600   61.8230   24.7120 O.2    44  LYS44      -0.2718
     12  CB        76.4050   60.6500   22.5100 C.3    44  LYS44       0.0285
     13  CG        75.8540   59.7190   21.4470 C.3    44  LYS44       0.0035
     14  CD        74.3520   59.5150   21.6170 C.3    44  LYS44       0.0206
     15  CE        73.7350   58.7880   20.4360 C.3    44  LYS44       0.1093
     16  NZ        74.0880   57.3410   20.3860 N.3    44  LYS44      -0.1314
     17  N         79.1060   62.7280   22.9240 N.am   45  VAL45      -0.1966
     18  CA        79.4960   63.9560   23.5920 C.3    45  VAL45       0.1727
     19  C         79.0110   65.1610   22.7940 C.2    45  VAL45       0.2616
     20  O         78.6300   65.0380   21.6280 O.2    45  VAL45      -0.2715
     21  CB        81.0200   64.0530   23.7700 C.3    45  VAL45       0.0290
     22  CG1       81.5580   62.8200   24.5040 C.3    45  VAL45       0.0023
     23  CG2       81.7140   64.2360   22.4230 C.3    45  VAL45       0.0023
     24  N         79.0370   66.3260   23.4280 N.am   46  ARG46      -0.1977
     25  CA        78.5790   67.5480   22.7850 C.3    46  ARG46       0.1597
     26  C         79.3560   68.7600   23.2750 C.2    46  ARG46       0.2287
     27  O         79.6870   68.8630   24.4540 O.2    46  ARG46      -0.2864
     28  CB        77.0910   67.7520   23.0420 C.3    46  ARG46       0.0334
     29  CG        76.4560   68.7520   22.1160 C.3    46  ARG46       0.0492
     30  CD        74.9810   68.9280   22.4120 C.3    46  ARG46       0.2205
     31  NE        74.1900   67.7200   22.1690 N.pl3  46  ARG46      -0.0865
     32  CZ        73.7960   67.2990   20.9680 C.cat  46  ARG46       0.5346
     33  NH1       74.1470   67.9460   19.8650 N.pl3  46  ARG46       0.1354
     34  NH2       73.0640   66.2010   20.8690 N.pl3  46  ARG46       0.1354
     35  N         77.4870   67.6270   18.2560 N.3    53  GLY53      -0.1210
     36  CA        77.6020   66.3240   18.8990 C.3    53  GLY53       0.1956
     37  C         78.5040   65.3910   18.1140 C.2    53  GLY53       0.2612
     38  O         78.4900   65.4100   16.8860 O.2    53  GLY53      -0.2717
     39  N         79.2920   64.5850   18.8300 N.am   54  LEU54      -0.1965
     40  CA        80.1410   63.5590   18.2240 C.3    54  LEU54       0.1728
     41  C         80.0040   62.2420   18.9820 C.2    54  LEU54       0.2616
     42  O         79.9050   62.2320   20.2110 O.2    54  LEU54      -0.2715
     43  CB        81.6090   63.9880   18.2350 C.3    54  LEU54       0.0311
     44  CG        81.9950   65.1420   17.3130 C.3    54  LEU54       0.0022
     45  CD1       83.4330   65.5690   17.5720 C.3    54  LEU54       0.0001
     46  CD2       81.8020   64.7660   15.8510 C.3    54  LEU54       0.0001
     47  N         80.0000   61.1380   18.2380 N.am   55  GLN55      -0.1963
     48  CA        79.9610   59.8050   18.8280 C.3    55  GLN55       0.1733
     49  C         80.8310   58.8520   18.0100 C.2    55  GLN55       0.2617
     50  O         81.5100   59.2820   17.0840 O.2    55  GLN55      -0.2715
     51  CB        78.5150   59.3050   18.9280 C.3    55  GLN55       0.0408
     52  CG        77.8250   59.0070   17.6120 C.3    55  GLN55       0.0908
     53  CD        76.4840   58.3310   17.8160 C.2    55  GLN55       0.2608
     54  OE1       76.3550   57.4250   18.6410 O.2    55  GLN55      -0.2717
     55  NE2       75.4780   58.7650   17.0630 N.am   55  GLN55      -0.0878
     56  N         80.8100   57.5690   18.3540 N.am   56  SER56      -0.1936
     57  CA        81.6060   56.5500   17.6540 C.3    56  SER56       0.2055
     58  C         83.0900   56.9260   17.6350 C.2    56  SER56       0.2643
     59  O         83.7450   56.9100   16.5860 O.2    56  SER56      -0.2714
     60  CB        81.0820   56.3210   16.2350 C.3    56  SER56       0.2130
     61  OG        79.7020   56.0120   16.2500 O.3    56  SER56      -0.2179
     62  N         83.6030   57.2600   18.8160 N.am   57  TRP57      -0.1959
     63  CA        85.0060   57.6110   18.9900 C.3    57  TRP57       0.1771
     64  C         85.8940   56.3880   18.8050 C.2    57  TRP57       0.2619
     65  O         85.5520   55.2860   19.2490 O.2    57  TRP57      -0.2715
     66  CB        85.2370   58.2110   20.3760 C.3    57  TRP57       0.0590
     67  CG        84.5870   59.5410   20.5380 C.ar   57  TRP57       0.0006
     68  CD1       83.2860   59.7810   20.8610 C.ar   57  TRP57       0.0946
     69  CD2       85.2010   60.8180   20.3620 C.ar   57  TRP57       0.0152
     70  NE1       83.0500   61.1320   20.9000 N.ar   57  TRP57      -0.2442
     71  CE2       84.2100   61.7940   20.5980 C.ar   57  TRP57       0.0810
     72  CE3       86.4930   61.2350   20.0290 C.ar   57  TRP57       0.0012
     73  CZ2       84.4710   63.1570   20.5130 C.ar   57  TRP57       0.0191
     74  CZ3       86.7520   62.5910   19.9420 C.ar   57  TRP57       0.0001
     75  CH2       85.7450   63.5360   20.1800 C.ar   57  TRP57       0.0015
     76  N         87.0240   56.5900   18.1330 N.am   58  LYS58      -0.1977
     77  CA        88.0120   55.5380   17.9310 C.3    58  LYS58       0.1596
     78  C         89.1960   55.7850   18.8470 C.2    58  LYS58       0.2287
     79  O         89.5000   56.9320   19.1830 O.2    58  LYS58      -0.2864
     80  CB        88.4720   55.5070   16.4720 C.3    58  LYS58       0.0298
     81  CG        87.3570   55.2250   15.4640 C.3    58  LYS58       0.0038
     82  CD        86.5170   54.0160   15.8720 C.3    58  LYS58       0.0206
     83  CE        85.7450   53.4280   14.7000 C.3    58  LYS58       0.1093
     84  NZ        84.6200   52.5670   15.1650 N.3    58  LYS58      -0.1314
     85  N         91.6350   58.9370   18.9240 N.3    61  ASP61      -0.1239
     86  CA        90.9970   60.1400   18.3790 C.3    61  ASP61       0.1674
     87  C         91.3930   61.3230   19.2490 C.2    61  ASP61       0.2266
     88  O         91.3850   61.2230   20.4790 O.2    61  ASP61      -0.2867
     89  CB        89.4660   60.0430   18.4000 C.3    61  ASP61       0.1410
     90  CG        88.8710   59.4730   17.1220 C.2    61  ASP61       0.3668
     91  OD1       89.5950   59.2010   16.1400 O.co2  61  ASP61      -0.2456
     92  OD2       87.6360   59.3030   17.1110 O.co2  61  ASP61      -0.2456
     93  N         89.0640   66.4640   16.1400 N.3    66  GLU66      -0.1245
     94  CA        87.7080   66.1190   15.7230 C.3    66  GLU66       0.1567
     95  C         86.7960   67.3450   15.7730 C.2    66  GLU66       0.2260
     96  O         85.9530   67.5210   14.9000 O.2    66  GLU66      -0.2867
     97  CB        87.1390   64.9810   16.5750 C.3    66  GLU66       0.0388
     98  CG        87.9100   63.6630   16.4790 C.3    66  GLU66       0.1160
     99  CD        87.9480   63.0930   15.0750 C.2    66  GLU66       0.3649
    100  OE1       86.8650   62.8470   14.5020 O.co2  66  GLU66      -0.2457
    101  OE2       89.0620   62.8730   14.5470 O.co2  66  GLU66      -0.2457
    102  N         84.9790   68.6190   12.2240 N.3    70  TRP70      -0.1227
    103  CA        83.5250   68.5650   12.0350 C.3    70  TRP70       0.1737
    104  C         82.8100   69.8930   12.2800 C.2    70  TRP70       0.2595
    105  O         81.7570   70.1380   11.6920 O.2    70  TRP70      -0.2718
    106  CB        82.9130   67.4880   12.9390 C.3    70  TRP70       0.0564
    107  CG        83.4040   66.1120   12.6250 C.ar   70  TRP70       0.0003
    108  CD1       84.2540   65.3570   13.3740 C.ar   70  TRP70       0.0946
    109  CD2       83.0880   65.3300   11.4660 C.ar   70  TRP70       0.0152
    110  NE1       84.4850   64.1520   12.7580 N.ar   70  TRP70      -0.2442
    111  CE2       83.7810   64.1080   11.5850 C.ar   70  TRP70       0.0810
    112  CE3       82.2800   65.5410   10.3420 C.ar   70  TRP70       0.0012
    113  CZ2       83.6940   63.1000   10.6220 C.ar   70  TRP70       0.0191
    114  CZ3       82.1920   64.5380    9.3870 C.ar   70  TRP70       0.0001
    115  CH2       82.8960   63.3330    9.5340 C.ar   70  TRP70       0.0015
    116  N         83.3640   70.7330   13.1530 N.am   71  PHE71      -0.1976
    117  CA        82.7280   72.0040   13.5210 C.3    71  PHE71       0.1639
    118  C         83.7100   73.1740   13.4560 C.2    71  PHE71       0.2290
    119  O         83.9130   73.8710   14.4520 O.2    71  PHE71      -0.2864
    120  CB        82.1280   71.9070   14.9240 C.3    71  PHE71       0.0560
    121  CG        81.3120   70.6700   15.1470 C.ar   71  PHE71      -0.0200
    122  CD1       80.1560   70.4460   14.4130 C.ar   71  PHE71      -0.0042
    123  CD2       81.6980   69.7280   16.0840 C.ar   71  PHE71      -0.0042
    124  CE1       79.4000   69.2980   14.6090 C.ar   71  PHE71      -0.0003
    125  CE2       80.9450   68.5800   16.2840 C.ar   71  PHE71      -0.0003
    126  CZ        79.7990   68.3640   15.5450 C.ar   71  PHE71      -0.0000
@<TRIPOS>BOND
     1   114   115   ar
     2   114   112   ar
     3   115   113   ar
     4   112   109   ar
     5   113   111   ar
     6   109   111   ar
     7   109   107   ar
     8   111   110   ar
     9   105   104    2
    10   103   102    1
    11   103   104    1
    12   103   106    1
    13   104   116   am
    14   107   106    1
    15   107   108   ar
    16   110   108   ar
    17   116   117    1
    18   118   117    1
    19   118   119    2
    20   117   120    1
    21   122   124   ar
    22   122   121   ar
    23   100    99   ar
    24   101    99   ar
    25   124   126   ar
    26    83    84    1
    27    83    82    1
    28    96    95    2
    29   120   121    1
    30    99    98    1
    31   121   123   ar
    32    81    82    1
    33    81    80    1
    34   126   125   ar
    35    94    95    1
    36    94    93    1
    37    94    97    1
    38    46    44    1
    39   123   125   ar
    40    91    90   ar
    41    60    61    1
    42    60    57    1
    43    80    77    1
    44    98    97    1
    45    59    58    2
    46    38    37    2
    47    55    53   am
    48    50    49    2
    49    92    90   ar
    50    90    89    1
    51    44    45    1
    52    44    43    1
    53    52    53    1
    54    52    51    1
    55    58    57    1
    56    58    62   am
    57    57    56    1
    58    53    54    2
    59    77    76    1
    60    77    78    1
    61    49    56   am
    62    49    48    1
    63    37    39   am
    64    37    36    1
    65    76    64   am
    66    40    43    1
    67    40    39    1
    68    40    41    1
    69    47    48    1
    70    47    41   am
    71    35    36    1
    72    86    89    1
    73    86    85    1
    74    86    87    1
    75    64    63    1
    76    64    65    2
    77    62    63    1
    78    48    51    1
    79    78    79    2
    80    41    42    2
    81    63    66    1
    82    87    88    2
    83    33    32    1
    84    74    72   ar
    85    74    75   ar
    86    72    69   ar
    87    75    73   ar
    88    69    67   ar
    89    69    71   ar
    90    66    67    1
    91    16    15    1
    92    15    14    1
    93    73    71   ar
    94    67    68   ar
    95    71    70   ar
    96    68    70   ar
    97    34    32    1
    98    32    31    2
    99    13    14    1
   100    13    12    1
   101    20    19    2
   102    29    30    1
   103    29    28    1
   104    31    30    1
   105    23    21    1
   106    12     9    1
   107     9     8    1
   108     9    10    1
   109    25    28    1
   110    25    26    1
   111    25    24    1
   112    19    24   am
   113    19    18    1
   114    17    10   am
   115    17    18    1
   116    26    27    2
   117    10    11    2
   118    18    21    1
   119    21    22    1
   120     7     5    1
   121     6     5    1
   122     5     2    1
   123     1     2    1
   124     2     3    1
   125     3     4    2
