@<TRIPOS>MOLECULE
tmp/3f7oA00.pdb
 137 128 0 0 0
SMALL
GASTEIGER

@<TRIPOS>ATOM
      1  N         25.2910  -21.1840   -2.9580 N.3    42  THR42      -0.1218
      2  CA        25.2160  -22.4230   -3.7020 C.3    42  THR42       0.1862
      3  C         23.7580  -22.7380   -4.0570 C.2    42  THR42       0.2287
      4  O         23.4650  -23.7810   -4.6310 O.2    42  THR42      -0.2866
      5  CB        25.7890  -23.6040   -2.8770 C.3    42  THR42       0.1770
      6  OG1       25.1120  -23.6970   -1.6120 O.3    42  THR42      -0.2211
      7  CG2       27.2850  -23.4350   -2.6430 C.3    42  THR42       0.0375
      8  N         24.9950  -28.5260   -2.0760 N.3    70  ASN70      -0.1240
      9  CA        26.1550  -28.2920   -1.2280 C.3    70  ASN70       0.1653
     10  C         25.7060  -28.1260    0.2180 C.2    70  ASN70       0.2266
     11  O         26.2020  -28.8090    1.1120 O.2    70  ASN70      -0.2867
     12  CB        26.8790  -27.0350   -1.7050 C.3    70  ASN70       0.1155
     13  CG        28.0290  -26.6690   -0.8180 C.2    70  ASN70       0.2627
     14  OD1       27.8480  -26.3470    0.3500 O.2    70  ASN70      -0.2716
     15  ND2       29.2300  -26.7450   -1.3540 N.am   70  ASN70      -0.0877
     16  N         25.4750  -24.8990    1.9140 N.3    72  HIS72      -0.1241
     17  CA        25.8010  -23.5410    2.3500 C.3    72  HIS72       0.1621
     18  C         24.6780  -22.5120    2.2180 C.2    72  HIS72       0.2264
     19  O         24.3210  -21.8680    3.2000 O.2    72  HIS72      -0.2867
     20  CB        27.0350  -23.0580    1.5930 C.3    72  HIS72       0.0745
     21  CG        27.9150  -22.1360    2.3910 C.ar   72  HIS72       0.0817
     22  ND1       27.8840  -20.7750    2.2490 N.ar   72  HIS72      -0.2268
     23  CD2       28.8370  -22.4090    3.3420 C.ar   72  HIS72       0.1154
     24  CE1       28.7600  -20.2270    3.0840 C.ar   72  HIS72       0.1986
     25  NE2       29.3460  -21.1920    3.7530 N.ar   72  HIS72      -0.2212
     26  N         27.7560  -20.1820   -6.8800 N.3    99  LEU99      -0.1245
     27  CA        28.8300  -21.1030   -6.5170 C.3    99  LEU99       0.1561
     28  C         28.3490  -22.4980   -6.8620 C.2    99  LEU99       0.2260
     29  O         27.2470  -22.8670   -6.4590 O.2    99  LEU99      -0.2867
     30  CB        29.1100  -21.0230   -5.0100 C.3    99  LEU99       0.0270
     31  CG        29.5990  -19.6990   -4.4220 C.3    99  LEU99       0.0019
     32  CD1       29.5110  -19.7750   -2.9260 C.3    99  LEU99       0.0001
     33  CD2       31.0400  -19.4080   -4.8660 C.3    99  LEU99       0.0001
     34  N         31.3770  -26.0400   -4.2220 N.3   103  GLY103     -0.1210
     35  CA        31.6130  -24.7740   -3.5350 C.3   103  GLY103      0.1956
     36  C         32.5700  -23.8270   -4.2400 C.2   103  GLY103      0.2613
     37  O         33.4580  -23.2520   -3.6060 O.2   103  GLY103     -0.2717
     38  N         32.3950  -23.6560   -5.5460 N.am  104  SER104     -0.1938
     39  CA        33.2710  -22.7790   -6.3230 C.3   104  SER104      0.2055
     40  C         32.5340  -21.9030   -7.3370 C.2   104  SER104      0.2643
     41  O         31.6380  -22.3660   -8.0520 O.2   104  SER104     -0.2714
     42  CB        34.3250  -23.6120   -7.0710 C.3   104  SER104      0.2130
     43  OG        35.0040  -22.8390   -8.0460 O.3   104  SER104     -0.2179
     44  N         32.9330  -20.6370   -7.4040 N.am  105  GLY105     -0.1954
     45  CA        32.3150  -19.7150   -8.3360 C.3   105  GLY105      0.1869
     46  C         33.3130  -18.7630   -8.9540 C.2   105  GLY105      0.2309
     47  O         34.2390  -18.3130   -8.2740 O.2   105  GLY105     -0.2863
     48  N         34.5440  -15.1790  -10.5240 N.3   107  TYR107     -0.1241
     49  CA        34.1810  -13.8320  -10.1100 C.3   107  TYR107      0.1605
     50  C         33.1570  -13.2960  -11.0840 C.2   107  TYR107      0.2264
     51  O         32.2220  -12.6040  -10.6930 O.2   107  TYR107     -0.2867
     52  CB        35.4070  -12.9330  -10.0360 C.3   107  TYR107      0.0534
     53  CG        36.0910  -13.0640   -8.6930 C.ar  107  TYR107     -0.0201
     54  CD1       35.3480  -13.3340   -7.5420 C.ar  107  TYR107     -0.0009
     55  CD2       37.4560  -12.8850   -8.5620 C.ar  107  TYR107     -0.0009
     56  CE1       35.9480  -13.4310   -6.3030 C.ar  107  TYR107      0.0417
     57  CE2       38.0740  -12.9790   -7.3200 C.ar  107  TYR107      0.0417
     58  CZ        37.3110  -13.2490   -6.1920 C.ar  107  TYR107      0.1957
     59  OH        37.8870  -13.3620   -4.9480 O.3   107  TYR107     -0.2866
     60  N         29.8250  -14.4850  -10.2180 N.3   110  ILE110     -0.1245
     61  CA        29.3930  -13.8500   -8.9850 C.3   110  ILE110      0.1561
     62  C         28.9060  -12.4320   -9.2490 C.2   110  ILE110      0.2260
     63  O         27.9160  -11.9860   -8.6670 O.2   110  ILE110     -0.2867
     64  CB        30.5520  -13.8090   -7.9640 C.3   110  ILE110      0.0252
     65  CG1       30.8220  -15.2220   -7.4550 C.3   110  ILE110      0.0019
     66  CG2       30.2350  -12.8300   -6.8140 C.3   110  ILE110      0.0019
     67  CD1       32.0650  -15.3390   -6.6570 C.3   110  ILE110      0.0001
     68  N         27.6480  -14.8010    1.7980 N.3   135  SER135     -0.1202
     69  CA        28.4860  -15.5050    2.7450 C.3   135  SER135      0.2020
     70  C         29.4980  -16.2860    1.9060 C.2   135  SER135      0.2619
     71  O         29.5340  -17.5120    1.9010 O.2   135  SER135     -0.2717
     72  CB        27.6330  -16.4450    3.6010 C.3   135  SER135      0.2103
     73  OG        26.8700  -15.7190    4.5590 O.3   135  SER135     -0.2182
     74  N         30.3170  -15.5450    1.1790 N.am  136  LEU136     -0.1965
     75  CA        31.3310  -16.1420    0.3350 C.3   136  LEU136      0.1728
     76  C         32.5120  -15.1940    0.2570 C.2   136  LEU136      0.2617
     77  O         32.4040  -14.0390    0.6530 O.2   136  LEU136     -0.2715
     78  CB        30.7590  -16.4090   -1.0650 C.3   136  LEU136      0.0311
     79  CG        30.2800  -15.2710   -1.9770 C.3   136  LEU136      0.0022
     80  CD1       31.4070  -14.8910   -2.9160 C.3   136  LEU136      0.0001
     81  CD2       29.0730  -15.7350   -2.7840 C.3   136  LEU136      0.0001
     82  N         33.6390  -15.6870   -0.2420 N.am  137  GLY137     -0.1940
     83  CA        34.8070  -14.8400   -0.3270 C.3   137  GLY137      0.2014
     84  C         35.9840  -15.4640   -1.0370 C.2   137  GLY137      0.2639
     85  O         36.0290  -16.6670   -1.2740 O.2   137  GLY137     -0.2714
     86  N         36.9430  -14.6130   -1.3830 N.am  138  GLY138     -0.1954
     87  CA        38.1500  -15.0500   -2.0550 C.3   138  GLY138      0.1869
     88  C         39.1430  -13.9040   -1.9790 C.2   138  GLY138      0.2309
     89  O         38.9490  -12.9490   -1.2170 O.2   138  GLY138     -0.2863
     90  N         30.2320  -11.7480    4.2530 N.3   161  ALA161     -0.1245
     91  CA        31.0700  -12.3930    5.2550 C.3   161  ALA161      0.1562
     92  C         32.4930  -11.8170    5.3120 C.2   161  ALA161      0.2260
     93  O         33.1400  -11.6290    4.2710 O.2   161  ALA161     -0.2867
     94  CB        31.1210  -13.8940    5.0010 C.3   161  ALA161      0.0290
     95  N         35.1890  -13.2370    6.4950 N.3   163  GLY163     -0.1210
     96  CA        36.1190  -14.2530    6.0380 C.3   163  GLY163      0.1956
     97  C         36.4390  -15.1800    7.2000 C.2   163  GLY163      0.2611
     98  O         36.1610  -14.8420    8.3490 O.2   163  GLY163     -0.2717
     99  N         37.0120  -16.3470    6.9060 N.am  164  ASN164     -0.1974
    100  CA        37.3510  -17.3180    7.9520 C.3   164  ASN164      0.1688
    101  C         38.8570  -17.5040    7.9850 C.2   164  ASN164      0.2292
    102  O         39.3280  -18.6150    8.1920 O.2   164  ASN164     -0.2864
    103  CB        36.7160  -18.6830    7.6650 C.3   164  ASN164      0.1181
    104  CG        35.2150  -18.6720    7.7880 C.2   164  ASN164      0.2629
    105  OD1       34.6270  -17.6820    8.2120 O.2   164  ASN164     -0.2716
    106  ND2       34.5850  -19.7820    7.4350 N.am  164  ASN164     -0.0877
    107  N         30.0130  -23.6230   11.8020 N.3   224  SER224     -0.1202
    108  CA        30.5950  -22.3580   12.2400 C.3   224  SER224      0.2020
    109  C         31.3130  -21.6220   11.0990 C.2   224  SER224      0.2619
    110  O         31.9770  -22.2270   10.2570 O.2   224  SER224     -0.2717
    111  CB        31.5960  -22.6020   13.3810 C.3   224  SER224      0.2103
    112  OG        31.0240  -23.3560   14.4200 O.3   224  SER224     -0.2182
    113  N         31.1890  -20.3050   11.0940 N.am  225  GLY225     -0.1942
    114  CA        31.8400  -19.5350   10.0590 C.3   225  GLY225      0.2014
    115  C         31.2680  -18.1390    9.9570 C.2   225  GLY225      0.2640
    116  O         30.2070  -17.8330   10.5240 O.2   225  GLY225     -0.2714
    117  N         31.9570  -17.2650    9.2390 N.am  226  THR226     -0.1936
    118  CA        31.4540  -15.9130    9.1170 C.3   226  THR226      0.2028
    119  C         30.2340  -15.9230    8.1790 C.2   226  THR226      0.2643
    120  O         29.5410  -14.9280    8.0600 O.2   226  THR226     -0.2714
    121  CB        32.5420  -14.9690    8.5900 C.3   226  THR226      0.1808
    122  OG1       33.0820  -15.4800    7.3610 O.3   226  THR226     -0.2208
    123  CG2       33.6770  -14.8250    9.6330 C.3   226  THR226      0.0379
    124  N         29.9650  -17.0630    7.5410 N.am  227  SER227     -0.1935
    125  CA        28.8090  -17.1810    6.6660 C.3   227  SER227      0.2055
    126  C         27.6160  -17.4860    7.5290 C.2   227  SER227      0.2642
    127  O         26.4980  -17.5570    7.0260 O.2   227  SER227     -0.2714
    128  CB        28.9180  -18.3300    5.6720 C.3   227  SER227      0.2130
    129  OG        30.2150  -18.5340    5.2090 O.3   227  SER227     -0.2179
    130  N         27.8610  -17.7460    8.8090 N.am  228  MET228     -0.1976
    131  CA        26.7670  -18.0300    9.7300 C.3   228  MET228      0.1605
    132  C         26.4210  -16.7290   10.4360 C.2   228  MET228      0.2287
    133  O         25.2790  -16.5080   10.8510 O.2   228  MET228     -0.2864
    134  CB        27.1500  -19.0930   10.7670 C.3   228  MET228      0.0413
    135  CG        27.0580  -20.5370   10.2680 C.3   228  MET228      0.0598
    136  SD        28.3680  -21.0230    9.0760 S.3   228  MET228     -0.1393
    137  CE        27.4580  -21.2650    7.6540 C.3   228  MET228      0.0692
@<TRIPOS>BOND
     1    50    51    2
     2    50    49    1
     3    48    49    1
     4    60    61    1
     5    49    52    1
     6    52    53    1
     7    62    61    1
     8    62    63    2
     9    61    64    1
    10    46    45    1
    11    46    47    2
    12    53    55   ar
    13    53    54   ar
    14    55    57   ar
    15    45    44    1
    16    41    40    2
    17    43    42    1
    18    64    65    1
    19    64    66    1
    20    54    56   ar
    21    65    67    1
    22    44    40   am
    23    40    39    1
    24    57    58   ar
    25    42    39    1
    26    26    27    1
    27    28    27    1
    28    28    29    2
    29    27    30    1
    30    39    38    1
    31    56    58   ar
    32    58    59    1
    33    38    36   am
    34    30    31    1
    35    33    31    1
    36     4     3    2
    37    31    32    1
    38    36    37    2
    39    36    35    1
    40    34    35    1
    41     3     2    1
    42     2     1    1
    43     2     5    1
    44    80    79    1
    45     5     7    1
    46     5     6    1
    47    81    79    1
    48     8     9    1
    49    87    88    1
    50    87    86    1
    51    88    89    2
    52    79    78    1
    53    12     9    1
    54    12    13    1
    55    86    84   am
    56    15    13   am
    57    85    84    2
    58     9    10    1
    59    78    75    1
    60    84    83    1
    61    13    14    2
    62    83    82    1
    63    82    76   am
    64    10    11    2
    65    76    75    1
    66    76    77    2
    67    75    74    1
    68    74    70   am
    69    20    17    1
    70    20    21    1
    71    68    69    1
    72    71    70    2
    73    70    69    1
    74    16    17    1
    75    18    17    1
    76    18    19    2
    77    22    21   ar
    78    22    24   ar
    79    21    23   ar
    80    69    72    1
    81    24    25   ar
    82    23    25   ar
    83    72    73    1
    84    90    91    1
    85    93    92    2
    86    94    91    1
    87   129   128    1
    88    91    92    1
    89   128   125    1
    90    96    95    1
    91    96    97    1
    92   125   126    1
    93   125   124    1
    94    99    97   am
    95    99   100    1
    96   127   126    2
    97    97    98    2
    98   122   121    1
    99   106   104   am
   100   126   130   am
   101   124   119   am
   102   137   136    1
   103   103   104    1
   104   103   100    1
   105   104   105    2
   106   100   101    1
   107   101   102    2
   108   120   119    2
   109   119   118    1
   110   121   118    1
   111   121   123    1
   112   130   131    1
   113   136   135    1
   114   118   117    1
   115   117   115   am
   116   131   132    1
   117   131   134    1
   118   115   114    1
   119   115   116    2
   120   114   113    1
   121   110   109    2
   122   135   134    1
   123   132   133    2
   124   113   109   am
   125   109   108    1
   126   107   108    1
   127   108   111    1
   128   111   112    1
