@<TRIPOS>MOLECULE
tmp/3f7tA00.pdb
 102 96 0 0 0
SMALL
GASTEIGER

@<TRIPOS>ATOM
      1  N         47.7080  -36.5320   62.0660 N.3    12  CYS12      -0.1235
      2  CA        48.0000  -35.4610   61.1100 C.3    12  CYS12       0.1677
      3  C         47.6280  -34.1170   61.7360 C.2    12  CYS12       0.2270
      4  O         47.1760  -34.0800   62.8820 O.2    12  CYS12      -0.2867
      5  CB        47.2190  -35.6770   59.8310 C.3    12  CYS12       0.0956
      6  SG        45.4550  -35.5570   60.1040 S.3    12  CYS12      -0.0801
      7  N         43.7290  -33.7380   62.2430 N.3    15  VAL15      -0.1245
      8  CA        43.2170  -34.5260   63.3570 C.3    15  VAL15       0.1561
      9  C         43.6370  -33.9090   64.6990 C.2    15  VAL15       0.2260
     10  O         42.8010  -33.7560   65.6320 O.2    15  VAL15      -0.2867
     11  CB        43.6400  -36.0000   63.2030 C.3    15  VAL15       0.0252
     12  CG1       43.3420  -36.8440   64.4690 C.3    15  VAL15       0.0019
     13  CG2       42.9220  -36.5970   61.9960 C.3    15  VAL15       0.0019
     14  N         36.6940  -37.4970   64.3100 N.3    40  VAL40      -0.1231
     15  CA        37.5990  -38.1900   63.3990 C.3    40  VAL40       0.1692
     16  C         37.2160  -39.6410   63.4090 C.2    40  VAL40       0.2592
     17  O         36.5180  -40.0780   64.3280 O.2    40  VAL40      -0.2718
     18  CB        39.0540  -38.0620   63.8390 C.3    40  VAL40       0.0266
     19  CG1       39.4240  -36.5980   63.9340 C.3    40  VAL40       0.0020
     20  CG2       39.3230  -38.7840   65.2120 C.3    40  VAL40       0.0020
     21  N         37.6650  -40.3950   62.4040 N.am   41  HIS41      -0.1976
     22  CA        37.2540  -41.8130   62.2590 C.3    41  HIS41       0.1656
     23  C         38.1630  -42.7630   63.0040 C.2    41  HIS41       0.2291
     24  O         38.9030  -43.5800   62.4110 O.2    41  HIS41      -0.2864
     25  CB        37.2020  -42.1900   60.7760 C.3    41  HIS41       0.0771
     26  CG        36.1090  -41.4870   60.0170 C.ar   41  HIS41       0.0820
     27  ND1       36.2070  -41.2090   58.6680 N.ar   41  HIS41      -0.2267
     28  CD2       34.8940  -41.0120   60.4120 C.ar   41  HIS41       0.1154
     29  CE1       35.1030  -40.5930   58.2600 C.ar   41  HIS41       0.1986
     30  NE2       34.2870  -40.4620   59.2990 N.ar   41  HIS41      -0.2212
     31  N         36.1190  -33.1050   61.3750 N.3    73  ALA73      -0.1231
     32  CA        37.2440  -32.8200   60.4980 C.3    73  ALA73       0.1694
     33  C         37.0030  -32.9740   58.9960 C.2    73  ALA73       0.2592
     34  O         37.7260  -32.3590   58.1740 O.2    73  ALA73      -0.2718
     35  CB        38.4920  -33.6570   60.9590 C.3    73  ALA73       0.0304
     36  N         36.0100  -33.7850   58.6340 N.am   74  HIS74      -0.1976
     37  CA        35.6970  -34.1870   57.2350 C.3    74  HIS74       0.1656
     38  C         34.9620  -33.1330   56.4790 C.2    74  HIS74       0.2291
     39  O         34.9440  -33.1420   55.2310 O.2    74  HIS74      -0.2864
     40  CB        34.9150  -35.5290   57.2340 C.3    74  HIS74       0.0771
     41  CG        35.4620  -36.4790   58.2370 C.ar   74  HIS74       0.0820
     42  ND1       34.9820  -36.5120   59.5210 N.ar   74  HIS74      -0.2267
     43  CD2       36.5480  -37.3020   58.2080 C.ar   74  HIS74       0.1154
     44  CE1       35.6980  -37.3780   60.2300 C.ar   74  HIS74       0.1986
     45  NE2       36.6610  -37.8590   59.4610 N.ar   74  HIS74      -0.2212
     46  N         31.3510  -41.3980   51.6300 N.3   124  HIS124     -0.1241
     47  CA        32.2900  -40.8810   52.6430 C.3   124  HIS124      0.1621
     48  C         31.8680  -39.4560   53.0520 C.2   124  HIS124      0.2264
     49  O         31.4190  -38.7080   52.1940 O.2   124  HIS124     -0.2867
     50  CB        33.7090  -40.8530   52.1260 C.3   124  HIS124      0.0745
     51  CG        34.7060  -40.5500   53.1950 C.ar  124  HIS124      0.0817
     52  ND1       35.0040  -39.2670   53.6040 N.ar  124  HIS124     -0.2268
     53  CD2       35.4640  -41.3720   53.9630 C.ar  124  HIS124      0.1154
     54  CE1       35.9290  -39.3120   54.5510 C.ar  124  HIS124      0.1986
     55  NE2       36.2180  -40.5780   54.7910 N.ar  124  HIS124     -0.2212
     56  N         33.4510  -36.7990   53.7410 N.3   126  GLU126     -0.1245
     57  CA        34.2080  -35.7460   53.0820 C.3   126  GLU126      0.1567
     58  C         33.6680  -35.4640   51.6940 C.2   126  GLU126      0.2260
     59  O         33.5820  -34.3130   51.2690 O.2   126  GLU126     -0.2867
     60  CB        35.6810  -36.0620   52.9820 C.3   126  GLU126      0.0388
     61  CG        36.4820  -34.8620   52.3920 C.3   126  GLU126      0.1160
     62  CD        37.9100  -35.2170   52.0670 C.2   126  GLU126      0.3649
     63  OE1       38.3850  -34.7820   51.0110 O.co2 126  GLU126     -0.2457
     64  OE2       38.5740  -35.9590   52.8630 O.co2 126  GLU126     -0.2457
     65  N         42.2090  -38.2040   51.0460 N.3   168  THR168     -0.1218
     66  CA        42.8070  -39.4070   51.6520 C.3   168  THR168      0.1862
     67  C         42.9190  -40.6150   50.6970 C.2   168  THR168      0.2287
     68  O         43.0410  -41.7850   51.1280 O.2   168  THR168     -0.2866
     69  CB        42.0110  -39.8630   52.8530 C.3   168  THR168      0.1770
     70  OG1       40.6520  -40.0570   52.4480 O.3   168  THR168     -0.2211
     71  CG2       42.0490  -38.8410   53.9240 C.3   168  THR168      0.0375
     72  N         37.8030  -45.4340   58.6480 N.3   225  SER225     -0.1202
     73  CA        38.8880  -44.4770   58.2710 C.3   225  SER225      0.2020
     74  C         39.4310  -44.7680   56.8880 C.2   225  SER225      0.2619
     75  O         40.0730  -45.7830   56.6610 O.2   225  SER225     -0.2717
     76  CB        40.0430  -44.4970   59.2690 C.3   225  SER225      0.2103
     77  OG        41.1200  -43.6730   58.8110 O.3   225  SER225     -0.2182
     78  N         39.1220  -43.8800   55.9460 N.am  226  SER226     -0.1937
     79  CA        39.5410  -44.0450   54.5770 C.3   226  SER226      0.2055
     80  C         41.0660  -44.0920   54.4550 C.2   226  SER226      0.2643
     81  O         41.6350  -45.0070   53.8620 O.2   226  SER226     -0.2714
     82  CB        38.9200  -42.9210   53.7200 C.3   226  SER226      0.2130
     83  OG        39.7250  -42.6130   52.5920 O.3   226  SER226     -0.2179
     84  N         41.7490  -43.1010   54.9980 N.am  227  ASN227     -0.1971
     85  CA        43.1970  -43.0870   54.8820 C.3   227  ASN227      0.1688
     86  C         43.8600  -44.3680   55.4700 C.2   227  ASN227      0.2292
     87  O         44.8470  -44.8680   54.9150 O.2   227  ASN227     -0.2864
     88  CB        43.7690  -41.7830   55.4660 C.3   227  ASN227      0.1181
     89  CG        43.9390  -41.8480   56.9750 C.2   227  ASN227      0.2629
     90  OD1       44.9820  -42.2370   57.4350 O.2   227  ASN227     -0.2716
     91  ND2       42.9090  -41.5210   57.7360 N.am  227  ASN227     -0.0877
     92  N         45.9460  -41.5720   60.1000 N.3   268  ALA268     -0.1231
     93  CA        46.0100  -40.1810   60.5690 C.3   268  ALA268      0.1694
     94  C         45.1100  -39.8590   61.7500 C.2   268  ALA268      0.2592
     95  O         45.2250  -38.7890   62.3740 O.2   268  ALA268     -0.2718
     96  CB        45.6930  -39.2580   59.3860 C.3   268  ALA268      0.0304
     97  N         44.2140  -40.7710   62.0930 N.am  269  SER269     -0.1952
     98  CA        43.3140  -40.5090   63.2280 C.3   269  SER269      0.1924
     99  C         43.6260  -41.4350   64.4290 C.2   269  SER269      0.2314
    100  O         42.9070  -41.3860   65.4500 O.2   269  SER269     -0.2863
    101  CB        41.8430  -40.6700   62.8170 C.3   269  SER269      0.2116
    102  OG        41.7070  -41.9180   62.1560 O.3   269  SER269     -0.2180
@<TRIPOS>BOND
     1    67    68    2
     2    67    66    1
     3    63    62   ar
     4    65    66    1
     5    59    58    2
     6    46    47    1
     7    66    69    1
     8    58    57    1
     9    62    61    1
    10    62    64   ar
    11    50    47    1
    12    50    51    1
    13    49    48    2
    14    61    60    1
    15    70    69    1
    16    83    82    1
    17    47    48    1
    18    69    71    1
    19    60    57    1
    20    57    56    1
    21    51    52   ar
    22    51    53   ar
    23    52    54   ar
    24    82    79    1
    25    81    80    2
    26    53    55   ar
    27    80    79    1
    28    80    84   am
    29    54    55   ar
    30    79    78    1
    31    85    84    1
    32    85    88    1
    33    85    86    1
    34    87    86    2
    35    39    38    2
    36    88    89    1
    37    78    74   am
    38    38    37    1
    39    75    74    2
    40    74    73    1
    41    89    90    2
    42    89    91   am
    43    40    37    1
    44    40    41    1
    45    37    36    1
    46    34    33    2
    47    43    41   ar
    48    43    45   ar
    49    41    42   ar
    50    29    27   ar
    51    29    30   ar
    52    73    72    1
    53    73    76    1
    54    36    33   am
    55    27    26   ar
    56    77    76    1
    57    33    32    1
    58    30    28   ar
    59    96    93    1
    60    45    44   ar
    61    42    44   ar
    62     5     6    1
    63     5     2    1
    64    26    28   ar
    65    26    25    1
    66    92    93    1
    67    32    35    1
    68    32    31    1
    69    93    94    1
    70    25    22    1
    71     2     3    1
    72     2     1    1
    73     3     4    2
    74    94    97   am
    75    94    95    2
    76    13    11    1
    77    97    98    1
    78   102   101    1
    79     7     8    1
    80    22    21    1
    81    22    23    1
    82    21    16   am
    83    24    23    2
    84   101    98    1
    85    11     8    1
    86    11    12    1
    87    98    99    1
    88     8     9    1
    89    15    16    1
    90    15    18    1
    91    15    14    1
    92    16    17    2
    93    18    19    1
    94    18    20    1
    95    99   100    2
    96     9    10    2
