@<TRIPOS>MOLECULE
tmp/3f7uC00.pdb
 199 195 0 0 0
SMALL
GASTEIGER

@<TRIPOS>ATOM
      1  N         22.8020   58.4390  132.6820 N.3     1  TRP1       -0.1241
      2  CA        24.2890   58.6810  132.8580 C.3     1  TRP1        0.1605
      3  C         24.7070   58.7250  134.3060 C.2     1  TRP1        0.2264
      4  O         24.0450   59.3110  135.1040 O.2     1  TRP1       -0.2867
      5  CB        24.7600   59.9370  132.1340 C.3     1  TRP1        0.0550
      6  CG        24.5550   61.2750  132.7820 C.ar    1  TRP1        0.0003
      7  CD1       23.5380   62.1630  132.5290 C.ar    1  TRP1        0.0946
      8  CD2       25.4910   61.9540  133.6410 C.ar    1  TRP1        0.0152
      9  NE1       23.7420   63.3400  133.2590 N.ar    1  TRP1       -0.2442
     10  CE2       24.9460   63.2350  133.9300 C.ar    1  TRP1        0.0810
     11  CE3       26.7340   61.5920  134.2040 C.ar    1  TRP1        0.0012
     12  CZ2       25.6070   64.1800  134.7690 C.ar    1  TRP1        0.0191
     13  CZ3       27.4080   62.5360  135.0590 C.ar    1  TRP1        0.0001
     14  CH2       26.8010   63.8160  135.3450 C.ar    1  TRP1        0.0015
     15  N         28.5300   58.4350  137.0300 N.3     3  TYR3       -0.1241
     16  CA        29.9710   58.2080  137.2170 C.3     3  TYR3        0.1605
     17  C         30.2660   56.7530  137.6020 C.2     3  TYR3        0.2264
     18  O         29.4000   56.0970  138.2090 O.2     3  TYR3       -0.2867
     19  CB        30.4730   59.1240  138.3300 C.3     3  TYR3        0.0534
     20  CG        30.4590   60.5970  137.8990 C.ar    3  TYR3       -0.0201
     21  CD1       31.3770   61.0860  136.9630 C.ar    3  TYR3       -0.0009
     22  CD2       29.5170   61.4680  138.4110 C.ar    3  TYR3       -0.0009
     23  CE1       31.3370   62.4690  136.5660 C.ar    3  TYR3        0.0417
     24  CE2       29.4560   62.8200  138.0210 C.ar    3  TYR3        0.0417
     25  CZ        30.3490   63.3200  137.1410 C.ar    3  TYR3        0.1957
     26  OH        30.2670   64.6920  136.7970 O.3     3  TYR3       -0.2866
     27  N         22.3850   68.7900  142.7420 N.3    60  ASN60      -0.1240
     28  CA        21.6610   68.3690  141.5380 C.3    60  ASN60       0.1653
     29  C         21.8490   66.9150  141.2590 C.2    60  ASN60       0.2266
     30  O         21.4760   66.4400  140.1970 O.2    60  ASN60      -0.2867
     31  CB        22.1030   69.1930  140.3160 C.3    60  ASN60       0.1155
     32  CG        23.5210   68.9600  139.9730 C.2    60  ASN60       0.2627
     33  OD1       24.1620   68.0720  140.5370 O.2    60  ASN60      -0.2716
     34  ND2       24.0660   69.7800  139.0650 N.am   60  ASN60      -0.0877
     35  N         24.6870   65.3960  140.9630 N.3    62  HIS62      -0.1226
     36  CA        26.0200   65.0590  140.4040 C.3    62  HIS62       0.1752
     37  C         27.1030   65.9090  141.0000 C.2    62  HIS62       0.2596
     38  O         28.2890   65.6130  140.8090 O.2    62  HIS62      -0.2718
     39  CB        26.0770   65.2930  138.8880 C.3    62  HIS62       0.0759
     40  CG        24.7890   65.0210  138.1960 C.ar   62  HIS62       0.0818
     41  ND1       24.4010   63.7420  137.8710 N.ar   62  HIS62      -0.2268
     42  CD2       23.8020   65.8460  137.7740 C.ar   62  HIS62       0.1154
     43  CE1       23.2120   63.7840  137.2910 C.ar   62  HIS62       0.1986
     44  NE2       22.8230   65.0480  137.2260 N.ar   62  HIS62      -0.2212
     45  N         26.6960   67.0280  141.6160 N.am   63  SER63      -0.1952
     46  CA        27.6120   67.9880  142.2350 C.3    63  SER63       0.1924
     47  C         26.8080   68.8820  143.2190 C.2    63  SER63       0.2314
     48  O         25.6010   68.6880  143.4150 O.2    63  SER63      -0.2863
     49  CB        28.2750   68.8880  141.1710 C.3    63  SER63       0.2116
     50  OG        29.3480   69.5950  141.7600 O.3    63  SER63      -0.2180
     51  N         26.1630   73.0970  143.3940 N.3    65  MET65      -0.1245
     52  CA        26.1980   74.1170  142.3980 C.3    65  MET65       0.1570
     53  C         25.6620   75.4070  142.9810 C.2    65  MET65       0.2261
     54  O         24.5390   75.4460  143.4190 O.2    65  MET65      -0.2867
     55  CB        25.2620   73.6890  141.2410 C.3    65  MET65       0.0387
     56  CG        25.2520   74.6750  140.0850 C.3    65  MET65       0.0595
     57  SD        24.2890   73.9730  138.7250 S.3    65  MET65      -0.1393
     58  CE        22.7280   73.7780  139.5810 C.3    65  MET65       0.0692
     59  N         27.1830   81.8470  135.0960 N.3    86  LYS86      -0.1231
     60  CA        25.9250   81.1610  135.2860 C.3    86  LYS86       0.1693
     61  C         25.8860   80.3640  136.5930 C.2    86  LYS86       0.2591
     62  O         24.8880   80.4050  137.3190 O.2    86  LYS86      -0.2718
     63  CB        25.6530   80.1460  134.1500 C.3    86  LYS86       0.0285
     64  CG        25.6180   80.7700  132.6660 C.3    86  LYS86       0.0035
     65  CD        24.5950   81.8970  132.6600 C.3    86  LYS86       0.0206
     66  CE        24.6340   82.7280  131.3800 C.3    86  LYS86       0.1093
     67  NZ        23.2980   83.4650  131.2000 N.3    86  LYS86      -0.1314
     68  N         26.9320   79.5690  136.8300 N.am   87  GLN87      -0.1979
     69  CA        26.9310   78.6740  137.9900 C.3    87  GLN87       0.1601
     70  C         28.3470   78.2760  138.3020 C.2    87  GLN87       0.2287
     71  O         29.2390   78.4130  137.4570 O.2    87  GLN87      -0.2864
     72  CB        26.0470   77.4430  137.7290 C.3    87  GLN87       0.0394
     73  CG        26.2660   76.7640  136.4120 C.3    87  GLN87       0.0908
     74  CD        26.9270   75.3520  136.5410 C.2    87  GLN87       0.2608
     75  OE1       27.7100   75.0800  137.4770 O.2    87  GLN87      -0.2717
     76  NE2       26.6100   74.4600  135.5800 N.am   87  GLN87      -0.0878
     77  N         30.4090   74.8980  140.3860 N.3    89  HIS89      -0.1241
     78  CA        30.2350   73.5980  141.0480 C.3    89  HIS89       0.1621
     79  C         31.6230   72.9990  141.1840 C.2    89  HIS89       0.2264
     80  O         32.6150   73.5860  140.7050 O.2    89  HIS89      -0.2867
     81  CB        29.3510   72.6520  140.1660 C.3    89  HIS89       0.0745
     82  CG        29.9620   72.3960  138.8030 C.ar   89  HIS89       0.0817
     83  ND1       29.7460   73.2150  137.7060 N.ar   89  HIS89      -0.2268
     84  CD2       30.8640   71.4630  138.3920 C.ar   89  HIS89       0.1154
     85  CE1       30.3990   72.7280  136.6530 C.ar   89  HIS89       0.1986
     86  NE2       31.1440   71.7150  137.0550 N.ar   89  HIS89      -0.2212
     87  N         34.1610   69.1020  141.5270 N.3    91  HIS91      -0.1241
     88  CA        34.3430   67.6660  141.4020 C.3    91  HIS91       0.1621
     89  C         35.3460   67.3220  142.4850 C.2    91  HIS91       0.2264
     90  O         36.2190   68.1260  142.7890 O.2    91  HIS91      -0.2867
     91  CB        34.9140   67.3480  139.9860 C.3    91  HIS91       0.0745
     92  CG        34.0690   67.9030  138.8610 C.ar   91  HIS91       0.0817
     93  ND1       33.1900   67.1260  138.1290 N.ar   91  HIS91      -0.2268
     94  CD2       33.9550   69.1710  138.3650 C.ar   91  HIS91       0.1154
     95  CE1       32.5590   67.8910  137.2330 C.ar   91  HIS91       0.1986
     96  NE2       33.0150   69.1370  137.3620 N.ar   91  HIS91      -0.2212
     97  N         34.7480   74.4620  139.0930 N.3   114  HIS114     -0.1241
     98  CA        34.4510   75.0490  137.7810 C.3   114  HIS114      0.1621
     99  C         33.4920   76.2400  137.8700 C.2   114  HIS114      0.2264
    100  O         32.4340   76.0880  138.4710 O.2   114  HIS114     -0.2867
    101  CB        33.7860   73.9990  136.8810 C.3   114  HIS114      0.0745
    102  CG        34.7310   72.9220  136.4400 C.ar  114  HIS114      0.0817
    103  ND1       34.3240   71.6450  136.1000 N.ar  114  HIS114     -0.2268
    104  CD2       36.0830   72.9330  136.3440 C.ar  114  HIS114      0.1154
    105  CE1       35.3870   70.9180  135.7980 C.ar  114  HIS114      0.1986
    106  NE2       36.4710   71.6800  135.9250 N.ar  114  HIS114     -0.2212
    107  N         31.3180   78.4670  135.4200 N.3   116  VAL116     -0.1231
    108  CA        30.8220   78.2740  134.0950 C.3   116  VAL116      0.1692
    109  C         30.2230   79.6190  133.6020 C.2   116  VAL116      0.2592
    110  O         29.2790   80.1570  134.1990 O.2   116  VAL116     -0.2718
    111  CB        29.7460   77.1870  134.1870 C.3   116  VAL116      0.0266
    112  CG1       29.0990   76.9190  132.8260 C.3   116  VAL116      0.0020
    113  CG2       30.3480   75.8280  134.7950 C.3   116  VAL116      0.0020
    114  N         30.7870   80.1730  132.5390 N.am  117  HIS117     -0.1962
    115  CA        30.2100   81.4340  131.9860 C.3   117  HIS117      0.1787
    116  C         29.7240   81.2840  130.5180 C.2   117  HIS117      0.2620
    117  O         30.1530   80.4120  129.7960 O.2   117  HIS117     -0.2715
    118  CB        31.2490   82.5260  131.9750 C.3   117  HIS117      0.0785
    119  CG        31.9590   82.7370  133.2780 C.ar  117  HIS117      0.0821
    120  ND1       32.8130   81.8060  133.8400 N.ar  117  HIS117     -0.2267
    121  CD2       31.9810   83.8160  134.1020 C.ar  117  HIS117      0.1154
    122  CE1       33.3190   82.3050  134.9580 C.ar  117  HIS117      0.1986
    123  NE2       32.8150   83.5140  135.1480 N.ar  117  HIS117     -0.2212
    124  N         28.8900   82.2220  130.0850 N.am  118  GLU118     -0.1977
    125  CA        28.2400   82.2260  128.7820 C.3   118  GLU118      0.1602
    126  C         28.6370   83.4840  127.9730 C.2   118  GLU118      0.2287
    127  O         28.6150   84.6000  128.4850 O.2   118  GLU118     -0.2864
    128  CB        26.7470   82.1890  129.0560 C.3   118  GLU118      0.0415
    129  CG        25.8240   81.8990  127.9000 C.3   118  GLU118      0.1163
    130  CD        25.3060   80.4430  127.8670 C.2   118  GLU118      0.3649
    131  OE1       24.9390   79.8510  128.9380 O.co2 118  GLU118     -0.2457
    132  OE2       25.2470   79.9120  126.7140 O.co2 118  GLU118     -0.2457
    133  N         30.9340   78.7910  125.7900 N.3   126  ILE126     -0.1245
    134  CA        31.0800   78.6650  127.2260 C.3   126  ILE126      0.1561
    135  C         32.5310   78.7960  127.5650 C.2   126  ILE126      0.2260
    136  O         33.3830   78.1220  126.9740 O.2   126  ILE126     -0.2867
    137  CB        30.5660   77.2300  127.6450 C.3   126  ILE126      0.0252
    138  CG1       29.1030   77.1390  127.1960 C.3   126  ILE126      0.0019
    139  CG2       30.7260   76.9990  129.1740 C.3   126  ILE126      0.0019
    140  CD1       28.5690   75.7530  127.2030 C.3   126  ILE126      0.0001
    141  N         34.7140   77.9900  130.8170 N.3   128  VAL128     -0.1245
    142  CA        34.8350   77.5140  132.2250 C.3   128  VAL128      0.1561
    143  C         36.1520   77.9060  132.8430 C.2   128  VAL128      0.2260
    144  O         37.2260   77.7240  132.2380 O.2   128  VAL128     -0.2867
    145  CB        34.7100   76.0270  132.3000 C.3   128  VAL128      0.0252
    146  CG1       34.9560   75.5460  133.7960 C.3   128  VAL128      0.0019
    147  CG2       33.3720   75.6040  131.7130 C.3   128  VAL128      0.0019
    148  N         32.2050   70.2670  127.5570 N.3   187  LEU187     -0.1231
    149  CA        31.5920   70.0950  128.8590 C.3   187  LEU187      0.1693
    150  C         32.0220   68.7080  129.3350 C.2   187  LEU187      0.2593
    151  O         32.1800   67.7460  128.4920 O.2   187  LEU187     -0.2718
    152  CB        30.0710   70.1500  128.7140 C.3   187  LEU187      0.0284
    153  CG        29.5950   71.5430  128.2380 C.3   187  LEU187      0.0019
    154  CD1       28.1210   71.4170  127.8570 C.3   187  LEU187      0.0001
    155  CD2       29.7960   72.5640  129.3920 C.3   187  LEU187      0.0001
    156  N         32.2450   68.5540  130.6340 N.am  188  THR188     -0.1939
    157  CA        32.7080   67.2310  131.1330 C.3   188  THR188      0.2028
    158  C         31.5790   66.3040  131.6280 C.2   188  THR188      0.2643
    159  O         31.8420   65.2110  132.2200 O.2   188  THR188     -0.2714
    160  CB        33.7720   67.3800  132.2290 C.3   188  THR188      0.1808
    161  OG1       33.1560   67.9150  133.4260 O.3   188  THR188     -0.2208
    162  CG2       34.9020   68.3360  131.7610 C.3   188  THR188      0.0379
    163  N         30.3310   66.7330  131.4310 N.am  189  THR189     -0.1937
    164  CA        29.2020   65.8570  131.6640 C.3   189  THR189      0.2013
    165  C         28.2840   65.8560  130.4720 C.2   189  THR189      0.2484
    166  O         28.2500   66.8420  129.7490 O.2   189  THR189     -0.2729
    167  CB        28.3090   66.3350  132.8480 C.3   189  THR189      0.1807
    168  OG1       27.8840   67.6850  132.6290 O.3   189  THR189     -0.2208
    169  CG2       29.0440   66.2270  134.1820 C.3   189  THR189      0.0379
    170  N         27.4810   64.7940  130.3080 N.am  190  PRO190     -0.2726
    171  CA        26.5670   64.7770  129.1130 C.3   190  PRO190      0.1402
    172  C         25.7500   66.0300  129.0620 C.2   190  PRO190      0.2269
    173  O         25.3880   66.5170  130.1140 O.2   190  PRO190     -0.2865
    174  CB        25.6640   63.5590  129.3620 C.3   190  PRO190      0.0296
    175  CG        26.5870   62.5540  130.1930 C.3   190  PRO190      0.0237
    176  CD        27.4620   63.5210  131.0620 C.3   190  PRO190      0.0939
    177  N         31.8340   73.0560  123.0520 N.3   195  LYS195     -0.1245
    178  CA        31.6860   74.4670  122.8700 C.3   195  LYS195      0.1561
    179  C         32.3460   75.2530  124.0180 C.2   195  LYS195      0.2260
    180  O         31.9210   76.3580  124.3300 O.2   195  LYS195     -0.2867
    181  CB        30.2010   74.8250  122.7590 C.3   195  LYS195      0.0271
    182  CG        29.2740   74.1680  123.7790 C.3   195  LYS195      0.0035
    183  CD        27.7550   74.2960  123.3380 C.3   195  LYS195      0.0206
    184  CE        26.9700   75.3740  124.1170 C.3   195  LYS195      0.1093
    185  NZ        25.6900   74.6900  124.6160 N.3   195  LYS195     -0.1314
    186  N         38.4120   76.5470  127.6940 N.3   198  TRP198     -0.1241
    187  CA        38.9190   76.1810  129.0170 C.3   198  TRP198      0.1605
    188  C         40.0340   77.1000  129.5160 C.2   198  TRP198      0.2264
    189  O         40.9620   77.4390  128.7880 O.2   198  TRP198     -0.2867
    190  CB        39.4540   74.6910  129.0330 C.3   198  TRP198      0.0550
    191  CG        38.3490   73.7300  129.1680 C.ar  198  TRP198      0.0003
    192  CD1       37.6840   73.0630  128.1330 C.ar  198  TRP198      0.0946
    193  CD2       37.6610   73.3540  130.3970 C.ar  198  TRP198      0.0152
    194  NE1       36.6680   72.2860  128.6560 N.ar  198  TRP198     -0.2442
    195  CE2       36.6390   72.4390  130.0390 C.ar  198  TRP198      0.0810
    196  CE3       37.8190   73.7130  131.7600 C.ar  198  TRP198      0.0012
    197  CZ2       35.7530   71.8900  130.9860 C.ar  198  TRP198      0.0191
    198  CZ3       36.9810   73.1050  132.7270 C.ar  198  TRP198      0.0001
    199  CH2       35.9150   72.2220  132.3090 C.ar  198  TRP198      0.0015
@<TRIPOS>BOND
     1   181   178    1
     2   181   182    1
     3   178   177    1
     4   178   179    1
     5   183   182    1
     6   183   184    1
     7   179   180    2
     8   184   185    1
     9   133   134    1
    10   132   130   ar
    11   136   135    2
    12   138   140    1
    13   138   137    1
    14   134   135    1
    15   134   137    1
    16   148   149    1
    17   137   139    1
    18   186   187    1
    19   154   153    1
    20   130   129    1
    21   130   131   ar
    22   129   128    1
    23   126   127    2
    24   126   125    1
    25   192   194   ar
    26   192   191   ar
    27   153   152    1
    28   153   155    1
    29   151   150    2
    30   194   195   ar
    31   152   149    1
    32   125   128    1
    33   125   124    1
    34   189   188    2
    35   149   150    1
    36   187   190    1
    37   187   188    1
    38   190   191    1
    39   172   171    1
    40   172   173    2
    41   171   174    1
    42   171   170    1
    43   191   193   ar
    44   150   156   am
    45   174   175    1
    46   166   165    2
    47   117   116    2
    48   195   193   ar
    49   195   197   ar
    50   124   116   am
    51   175   176    1
    52   170   165   am
    53   170   176    1
    54   193   196   ar
    55   165   164    1
    56   116   115    1
    57   156   157    1
    58   141   142    1
    59   197   199   ar
    60   157   158    1
    61   157   160    1
    62    67    66    1
    63    66    65    1
    64   163   158   am
    65   163   164    1
    66   158   159    2
    67   164   167    1
    68   147   145    1
    69   196   198   ar
    70   162   160    1
    71   118   115    1
    72   118   119    1
    73   115   114    1
    74     5     6    1
    75     5     2    1
    76   142   145    1
    77   142   143    1
    78   160   161    1
    79   144   143    2
    80   145   146    1
    81   199   198   ar
    82     7     6   ar
    83     7     9   ar
    84   114   109   am
    85   168   167    1
    86    65    64    1
    87    64    63    1
    88     1     2    1
    89     6     8   ar
    90   112   111    1
    91   167   169    1
    92     2     3    1
    93     9    10   ar
    94   119   120   ar
    95   119   121   ar
    96   109   108    1
    97   109   110    2
    98     8    10   ar
    99     8    11   ar
   100   120   122   ar
   101    10    12   ar
   102   108   111    1
   103   108   107    1
   104   121   123   ar
   105    63    60    1
   106   111   113    1
   107    11    13   ar
   108     3     4    2
   109    12    14   ar
   110   122   123   ar
   111    13    14   ar
   112    59    60    1
   113    60    61    1
   114    76    74   am
   115   105   106   ar
   116   105   103   ar
   117   106   104   ar
   118   103   102   ar
   119   104   102   ar
   120    73    74    1
   121    73    72    1
   122   102   101    1
   123    74    75    2
   124    23    21   ar
   125    23    25   ar
   126    61    68   am
   127    61    62    2
   128    85    86   ar
   129    85    83   ar
   130    26    25    1
   131    68    69    1
   132   101    98    1
   133    21    20   ar
   134    15    16    1
   135    86    84   ar
   136    25    24   ar
   137    16    17    1
   138    16    19    1
   139    44    43   ar
   140    44    42   ar
   141    95    96   ar
   142    95    93   ar
   143    43    41   ar
   144    96    94   ar
   145    71    70    2
   146    17    18    2
   147    83    82   ar
   148    72    69    1
   149    42    40   ar
   150    98    99    1
   151    98    97    1
   152    99   100    2
   153    41    40   ar
   154    20    19    1
   155    20    22   ar
   156    69    70    1
   157    24    22   ar
   158    93    92   ar
   159    40    39    1
   160    94    92   ar
   161    84    82   ar
   162    57    58    1
   163    57    56    1
   164    82    81    1
   165    92    91    1
   166    39    36    1
   167    34    32   am
   168    32    31    1
   169    32    33    2
   170    91    88    1
   171    56    55    1
   172    81    78    1
   173    30    29    2
   174    31    28    1
   175    77    78    1
   176    36    35    1
   177    36    37    1
   178    80    79    2
   179    38    37    2
   180    37    45   am
   181    78    79    1
   182    49    50    1
   183    49    46    1
   184    55    52    1
   185    29    28    1
   186    88    87    1
   187    88    89    1
   188    28    27    1
   189    45    46    1
   190    46    47    1
   191    52    53    1
   192    52    51    1
   193    89    90    2
   194    53    54    2
   195    47    48    2
