@<TRIPOS>MOLECULE
tmp/3f7zA00.pdb
 148 139 0 0 0
SMALL
GASTEIGER

@<TRIPOS>ATOM
      1  N         -1.5270   21.4240   17.2680 N.3    29  ILE29      -0.1231
      2  CA        -2.3820   20.6410   16.3720 C.3    29  ILE29       0.1692
      3  C         -3.3730   19.7620   17.1430 C.2    29  ILE29       0.2592
      4  O         -4.3470   19.2610   16.5740 O.2    29  ILE29      -0.2718
      5  CB        -1.5360   19.8210   15.3700 C.3    29  ILE29       0.0266
      6  CG1       -0.4690   18.9940   16.0930 C.3    29  ILE29       0.0019
      7  CG2       -0.9010   20.7490   14.3160 C.3    29  ILE29       0.0020
      8  CD1       -0.0490   17.7460   15.3240 C.3    29  ILE29       0.0001
      9  N         -3.1110   19.5930   18.4360 N.am   30  GLY30      -0.1957
     10  CA        -3.9960   18.9030   19.3440 C.3    30  GLY30       0.1869
     11  C         -3.8010   19.4160   20.7590 C.2    30  GLY30       0.2309
     12  O         -2.6890   19.7650   21.1600 O.2    30  GLY30      -0.2863
     13  N         -4.6080   14.0500   26.3170 N.3    34  PHE34      -0.1241
     14  CA        -3.2600   13.5770   26.0040 C.3    34  PHE34       0.1605
     15  C         -2.1890   14.6230   26.2980 C.2    34  PHE34       0.2264
     16  O         -1.0220   14.2940   26.4870 O.2    34  PHE34      -0.2867
     17  CB        -3.1740   13.1520   24.5350 C.3    34  PHE34       0.0534
     18  CG        -3.9130   14.0710   23.5880 C.ar   34  PHE34      -0.0203
     19  CD1       -5.2050   13.7530   23.1520 C.ar   34  PHE34      -0.0042
     20  CD2       -3.3290   15.2520   23.1410 C.ar   34  PHE34      -0.0042
     21  CE1       -5.8890   14.5900   22.2880 C.ar   34  PHE34      -0.0003
     22  CE2       -4.0170   16.1010   22.2790 C.ar   34  PHE34      -0.0003
     23  CZ        -5.2970   15.7640   21.8480 C.ar   34  PHE34      -0.0000
     24  N         -0.2330   18.8350   21.6820 N.3    37  VAL37      -0.1245
     25  CA         0.6180   18.3470   20.6040 C.3    37  VAL37       0.1561
     26  C          0.8530   19.4900   19.6160 C.2    37  VAL37       0.2260
     27  O         -0.0730   20.2370   19.2630 O.2    37  VAL37      -0.2867
     28  CB         0.0500   17.0810   19.9170 C.3    37  VAL37       0.0252
     29  CG1        0.9440   16.6110   18.7730 C.3    37  VAL37       0.0019
     30  CG2       -0.1350   15.9440   20.9430 C.3    37  VAL37       0.0019
     31  N          6.2370   16.2270   15.3870 N.3    50  ALA50      -0.1245
     32  CA         5.2000   16.5560   16.3470 C.3    50  ALA50       0.1562
     33  C          5.8970   16.6720   17.6780 C.2    50  ALA50       0.2260
     34  O          6.9070   15.9850   17.9140 O.2    50  ALA50      -0.2867
     35  CB         4.1470   15.4830   16.3970 C.3    50  ALA50       0.0290
     36  N          4.9270   16.4650   21.6760 N.3    52  LYS52      -0.1245
     37  CA         3.9420   16.2040   22.7070 C.3    52  LYS52       0.1561
     38  C          4.4550   16.7470   24.0270 C.2    52  LYS52       0.2260
     39  O          5.5520   16.4090   24.4680 O.2    52  LYS52      -0.2867
     40  CB         3.6590   14.7070   22.8090 C.3    52  LYS52       0.0271
     41  CG         2.7790   14.3270   23.9870 C.3    52  LYS52       0.0035
     42  CD         2.2910   12.9150   23.8450 C.3    52  LYS52       0.0206
     43  CE         1.3140   12.5960   24.9410 C.3    52  LYS52       0.1093
     44  NZ         0.9380   11.1690   24.9100 N.3    52  LYS52      -0.1314
     45  N          5.2920    6.8730   30.0150 N.3    64  GLU64      -0.1245
     46  CA         5.2550    7.0070   28.5660 C.3    64  GLU64       0.1567
     47  C          6.6720    7.1630   27.9900 C.2    64  GLU64       0.2260
     48  O          7.0120    6.5210   26.9920 O.2    64  GLU64      -0.2867
     49  CB         4.3460    8.1550   28.1570 C.3    64  GLU64       0.0388
     50  CG         4.3070    8.4320   26.6630 C.3    64  GLU64       0.1160
     51  CD         3.2340    9.4390   26.3040 C.2    64  GLU64       0.3649
     52  OE1        2.6900   10.1040   27.2230 O.co2  64  GLU64      -0.2457
     53  OE2        2.9340    9.5530   25.1020 O.co2  64  GLU64      -0.2457
     54  N          5.2850    5.5580   15.8240 N.3    77  VAL77      -0.1245
     55  CA         5.8120    6.9150   15.8190 C.3    77  VAL77       0.1561
     56  C          7.0910    6.9030   16.6500 C.2    77  VAL77       0.2260
     57  O          7.0940    6.4650   17.7790 O.2    77  VAL77      -0.2867
     58  CB         4.7390    7.9150   16.3360 C.3    77  VAL77       0.0252
     59  CG1        5.3400    9.1590   16.9100 C.3    77  VAL77       0.0019
     60  CG2        3.8190    8.2970   15.2180 C.3    77  VAL77       0.0019
     61  N          8.5280   13.9290   18.1860 N.3    96  LEU96      -0.1231
     62  CA         8.1220   12.6970   17.5090 C.3    96  LEU96       0.1693
     63  C          8.0640   12.8090   15.9860 C.2    96  LEU96       0.2592
     64  O          7.9380   13.9170   15.4470 O.2    96  LEU96      -0.2718
     65  CB         6.7440   12.2930   18.0390 C.3    96  LEU96       0.0284
     66  CG         6.6120   12.0640   19.5540 C.3    96  LEU96       0.0019
     67  CD1        5.1590   12.2190   20.0270 C.3    96  LEU96       0.0001
     68  CD2        7.1400   10.6980   19.9480 C.3    96  LEU96       0.0001
     69  N          8.1620   11.6630   15.3050 N.am   97  ASP97      -0.1960
     70  CA         7.8710   11.5530   13.8740 C.3    97  ASP97       0.1840
     71  C          6.5590   12.2500   13.6030 C.2    97  ASP97       0.2622
     72  O          5.5750   11.9820   14.2850 O.2    97  ASP97      -0.2715
     73  CB         7.5930   10.0920   13.4860 C.3    97  ASP97       0.1450
     74  CG         8.8420    9.2600   13.2790 C.2    97  ASP97       0.3671
     75  OD1        9.9680    9.8200   13.1900 O.co2  97  ASP97      -0.2456
     76  OD2        8.7640    8.0050   13.1900 O.co2  97  ASP97      -0.2456
     77  N          6.5210   13.1210   12.6020 N.am   98  TYR98      -0.1960
     78  CA         5.2540   13.7110   12.1970 C.3    98  TYR98       0.1771
     79  C          4.6050   12.8210   11.1380 C.2    98  TYR98       0.2619
     80  O          5.2800   12.3410   10.2280 O.2    98  TYR98      -0.2715
     81  CB         5.4350   15.1380   11.6700 C.3    98  TYR98       0.0574
     82  CG         4.1500   15.7210   11.1350 C.ar   98  TYR98      -0.0198
     83  CD1        3.2400   16.3670   11.9820 C.ar   98  TYR98      -0.0009
     84  CD2        3.8220   15.5910    9.7870 C.ar   98  TYR98      -0.0009
     85  CE1        2.0520   16.8860   11.4800 C.ar   98  TYR98       0.0417
     86  CE2        2.6380   16.0930    9.2840 C.ar   98  TYR98       0.0417
     87  CZ         1.7600   16.7380   10.1260 C.ar   98  TYR98       0.1957
     88  OH         0.5890   17.2310    9.5950 O.3    98  TYR98      -0.2866
     89  N          3.3010   12.5880   11.2780 N.am   99  VAL99      -0.1964
     90  CA         2.5360   11.8090   10.3140 C.3    99  VAL99       0.1712
     91  C          1.2470   12.5770   10.0330 C.2    99  VAL99       0.2458
     92  O          0.5110   12.9040   10.9650 O.2    99  VAL99      -0.2730
     93  CB         2.2120   10.3750   10.8250 C.3    99  VAL99       0.0289
     94  CG1        1.8430    9.4500    9.6590 C.3    99  VAL99       0.0023
     95  CG2        3.3690    9.7920   11.6290 C.3    99  VAL99       0.0023
     96  N          0.9670   12.8550    8.7600 N.am  100  PRO100     -0.2727
     97  CA        -0.0940   13.8090    8.3870 C.3   100  PRO100      0.1402
     98  C         -1.5720   13.4070    8.6040 C.2   100  PRO100      0.2269
     99  O         -2.3840   14.2980    8.8490 O.2   100  PRO100     -0.2865
    100  CB         0.1920   14.0840    6.9010 C.3   100  PRO100      0.0296
    101  CG         0.8760   12.8560    6.4090 C.3   100  PRO100      0.0237
    102  CD         1.6610   12.3080    7.5780 C.3   100  PRO100      0.0939
    103  N         -4.9000   10.4360    9.8870 N.3   102  THR102     -0.1218
    104  CA        -5.3160    9.3630   10.8020 C.3   102  THR102      0.1862
    105  C         -6.3270    8.4330   10.1440 C.2   102  THR102      0.2287
    106  O         -7.0430    8.8340    9.2230 O.2   102  THR102     -0.2866
    107  CB        -5.9230    9.9160   12.1150 C.3   102  THR102      0.1770
    108  OG1       -7.1710   10.5580   11.8160 O.3   102  THR102     -0.2211
    109  CG2       -5.0660   11.0490   12.6990 C.3   102  THR102      0.0375
    110  N         -8.2240    6.9090   16.0220 N.3   149  GLN149     -0.1231
    111  CA        -7.5650    8.1950   16.2750 C.3   149  GLN149      0.1698
    112  C         -6.0690    8.0720   16.5310 C.2   149  GLN149      0.2592
    113  O         -5.3230    9.0150   16.2840 O.2   149  GLN149     -0.2718
    114  CB        -8.2040    8.9060   17.4760 C.3   149  GLN149      0.0381
    115  CG        -9.1120   10.0500   17.1100 C.3   149  GLN149      0.0905
    116  CD        -9.0390   11.2120   18.1030 C.2   149  GLN149      0.2608
    117  OE1       -9.9990   11.4550   18.8550 O.2   149  GLN149     -0.2717
    118  NE2       -7.9090   11.9420   18.1020 N.am  149  GLN149     -0.0878
    119  N         -5.6500    6.9230   17.0540 N.am  150  ASN150     -0.1974
    120  CA        -4.2570    6.6710   17.4030 C.3   150  ASN150      0.1688
    121  C         -3.4810    5.9110   16.3170 C.2   150  ASN150      0.2292
    122  O         -2.3290    5.5260   16.5110 O.2   150  ASN150     -0.2864
    123  CB        -4.1650    5.9580   18.7670 C.3   150  ASN150      0.1181
    124  CG        -4.4900    6.8870   19.9530 C.2   150  ASN150      0.2629
    125  OD1       -4.5410    8.0960   19.8140 O.2   150  ASN150     -0.2716
    126  ND2       -4.7260    6.3080   21.1060 N.am  150  ASN150     -0.0877
    127  N         -1.8770    6.6320   12.8720 N.3   152  LEU152     -0.1245
    128  CA        -1.4860    7.6870   11.9450 C.3   152  LEU152      0.1561
    129  C         -1.1620    7.1350   10.5660 C.2   152  LEU152      0.2260
    130  O         -0.5980    6.0560   10.4480 O.2   152  LEU152     -0.2867
    131  CB        -0.3210    8.4870   12.4990 C.3   152  LEU152      0.0270
    132  CG        -0.4810    8.9700   13.9360 C.3   152  LEU152      0.0019
    133  CD1        0.6150    9.9240   14.2610 C.3   152  LEU152      0.0001
    134  CD2       -1.8600    9.6180   14.2350 C.3   152  LEU152      0.0001
    135  N          0.4970    5.5410   17.4960 N.3   163  CYS163     -0.1221
    136  CA         0.8910    6.6600   18.3490 C.3   163  CYS163      0.1808
    137  C          0.0980    6.7130   19.6610 C.2   163  CYS163      0.2601
    138  O         -0.8550    5.9740   19.8370 O.2   163  CYS163     -0.2717
    139  CB         0.7610    7.9780   17.5790 C.3   163  CYS163      0.0970
    140  SG        -0.9050    8.6750   17.6460 S.3   163  CYS163     -0.0800
    141  N          0.5110    7.6070   20.5630 N.am  164  ASP164     -0.1973
    142  CA        -0.1000    7.8310   21.8950 C.3   164  ASP164      0.1709
    143  C          0.1010    6.6830   22.8830 C.2   164  ASP164      0.2293
    144  O         -0.7870    5.8490   23.1010 O.2   164  ASP164     -0.2864
    145  CB        -1.5770    8.2570   21.8180 C.3   164  ASP164      0.1436
    146  CG        -2.1230    8.7630   23.1670 C.2   164  ASP164      0.3671
    147  OD1       -1.3320    9.0590   24.0960 O.co2 164  ASP164     -0.2456
    148  OD2       -3.3470    8.9060   23.3960 O.co2 164  ASP164     -0.2456
@<TRIPOS>BOND
     1   101   100    1
     2   101   102    1
     3   100    97    1
     4   102    96    1
     5    97    98    1
     6    97    96    1
     7    98    99    2
     8    96    91   am
     9   106   105    2
    10    86    84   ar
    11    86    87   ar
    12    88    87    1
    13    94    93    1
    14    84    82   ar
    15   103   104    1
    16    91    90    1
    17    91    92    2
    18    87    85   ar
    19   105   104    1
    20    80    79    2
    21    90    93    1
    22    90    89    1
    23   130   129    2
    24   129   128    1
    25   104   107    1
    26    93    95    1
    27    82    81    1
    28    82    83   ar
    29    79    89   am
    30    79    78    1
    31    85    83   ar
    32    81    78    1
    33   108   107    1
    34   128   131    1
    35   128   127    1
    36   107   109    1
    37    78    77    1
    38   131   132    1
    39    77    71   am
    40    76    74   ar
    41    75    74   ar
    42    74    73    1
    43    73    70    1
    44    71    70    1
    45    71    72    2
    46    70    69    1
    47   132   134    1
    48   132   133    1
    49     7     5    1
    50    60    58    1
    51    69    63   am
    52     8     6    1
    53     5     6    1
    54     5     2    1
    55    31    32    1
    56    64    63    2
    57    55    54    1
    58    55    58    1
    59    55    56    1
    60    63    62    1
    61   110   111    1
    62   111   112    1
    63   111   114    1
    64   113   112    2
    65   121   122    2
    66   121   120    1
    67    58    59    1
    68    32    35    1
    69    32    33    1
    70     2     3    1
    71     2     1    1
    72   112   119   am
    73     4     3    2
    74    56    57    2
    75   119   120    1
    76   115   114    1
    77   115   116    1
    78     3     9   am
    79   120   123    1
    80   135   136    1
    81    62    65    1
    82    62    61    1
    83   139   140    1
    84   139   136    1
    85    33    34    2
    86    65    66    1
    87   118   116   am
    88   116   117    2
    89   136   137    1
    90     9    10    1
    91   123   124    1
    92    29    28    1
    93    27    26    2
    94    10    11    1
    95    66    68    1
    96    66    67    1
    97    26    25    1
    98   137   138    2
    99   137   141   am
   100   125   124    2
   101    28    25    1
   102    28    30    1
   103   124   126   am
   104   141   142    1
   105    25    24    1
   106    11    12    2
   107    36    37    1
   108   145   142    1
   109   145   146    1
   110    23    22   ar
   111    23    21   ar
   112   142   143    1
   113    22    20   ar
   114    21    19   ar
   115    37    40    1
   116    37    38    1
   117    40    41    1
   118   143   144    2
   119    20    18   ar
   120    19    18   ar
   121   146   148   ar
   122   146   147   ar
   123    18    17    1
   124    42    41    1
   125    42    43    1
   126    38    39    2
   127    17    14    1
   128    44    43    1
   129    53    51   ar
   130    14    15    1
   131    14    13    1
   132    15    16    2
   133    51    50    1
   134    51    52   ar
   135    50    49    1
   136    48    47    2
   137    47    46    1
   138    49    46    1
   139    46    45    1
