@<TRIPOS>MOLECULE
tmp/3f80A00.pdb
 135 124 0 0 0
SMALL
GASTEIGER

@<TRIPOS>ATOM
      1  N         26.8490   -7.4560    8.2690 N.3    96  HIS96      -0.1241
      2  CA        26.7350   -7.2900    6.8240 C.3    96  HIS96       0.1621
      3  C         25.4830   -6.6070    6.2800 C.2    96  HIS96       0.2264
      4  O         25.4100   -6.3450    5.0820 O.2    96  HIS96      -0.2867
      5  CB        26.9110   -8.6420    6.1300 C.3    96  HIS96       0.0745
      6  CG        27.7740   -8.5810    4.9090 C.ar   96  HIS96       0.0817
      7  ND1       28.3290   -9.7020    4.3300 N.ar   96  HIS96      -0.2268
      8  CD2       28.1910   -7.5280    4.1650 C.ar   96  HIS96       0.1154
      9  CE1       29.0520   -9.3430    3.2840 C.ar   96  HIS96       0.1986
     10  NE2       28.9840   -8.0300    3.1620 N.ar   96  HIS96      -0.2212
     11  N         32.0640  -14.3260    0.7380 N.3   119  ASP119     -0.1239
     12  CA        31.2560  -14.7060    1.8840 C.3   119  ASP119      0.1674
     13  C         30.9700  -16.2110    1.8740 C.2   119  ASP119      0.2266
     14  O         31.0170  -16.8540    0.8300 O.2   119  ASP119     -0.2867
     15  CB        29.9330  -13.9460    1.7600 C.3   119  ASP119      0.1410
     16  CG        29.2130  -13.7640    3.0780 C.2   119  ASP119      0.3668
     17  OD1       29.1710  -14.7050    3.8930 O.co2 119  ASP119     -0.2456
     18  OD2       28.6590  -12.6610    3.2800 O.co2 119  ASP119     -0.2456
     19  N         28.1520  -17.0820    2.8200 N.3   121  HIS121     -0.1241
     20  CA        26.7140  -16.9520    2.5550 C.3   121  HIS121      0.1621
     21  C         26.4130  -15.9890    1.4010 C.2   121  HIS121      0.2264
     22  O         27.1960  -15.0900    1.1150 O.2   121  HIS121     -0.2867
     23  CB        26.0040  -16.4430    3.8130 C.3   121  HIS121      0.0745
     24  CG        26.4440  -17.1250    5.0710 C.ar  121  HIS121      0.0817
     25  ND1       27.4830  -16.6590    5.8490 N.ar  121  HIS121     -0.2268
     26  CD2       26.0190  -18.2700    5.6560 C.ar  121  HIS121      0.1154
     27  CE1       27.6780  -17.4880    6.8580 C.ar  121  HIS121      0.1986
     28  NE2       26.8040  -18.4740    6.7630 N.ar  121  HIS121     -0.2212
     29  N         23.6580  -14.0270    1.3350 N.3   123  ASP123     -0.1239
     30  CA        22.9670  -12.8600    1.8940 C.3   123  ASP123      0.1674
     31  C         21.9380  -12.2800    0.9290 C.2   123  ASP123      0.2266
     32  O         21.7970  -11.0560    0.8080 O.2   123  ASP123     -0.2867
     33  CB        23.9770  -11.7690    2.2660 C.3   123  ASP123      0.1410
     34  CG        24.9190  -12.2010    3.3670 C.2   123  ASP123      0.3668
     35  OD1       24.6700  -13.2710    3.9760 O.co2 123  ASP123     -0.2456
     36  OD2       25.8990  -11.4620    3.6250 O.co2 123  ASP123     -0.2456
     37  N         18.5450  -13.4600    0.9370 N.3   125  ASN125     -0.1240
     38  CA        17.1880  -13.7710    1.3770 C.3   125  ASN125      0.1653
     39  C         16.3600  -12.4890    1.2950 C.2   125  ASN125      0.2266
     40  O         16.8910  -11.3810    1.4530 O.2   125  ASN125     -0.2867
     41  CB        17.1710  -14.2600    2.8330 C.3   125  ASN125      0.1155
     42  CG        17.3110  -15.7600    2.9500 C.2   125  ASN125      0.2627
     43  OD1       16.5580  -16.5140    2.3390 O.2   125  ASN125     -0.2716
     44  ND2       18.2630  -16.2010    3.7510 N.am  125  ASN125     -0.0877
     45  N         13.5750  -15.2400    4.1930 N.3   130  THR130     -0.1203
     46  CA        14.4080  -15.4130    5.3730 C.3   130  THR130      0.1994
     47  C         13.7140  -16.2860    6.4120 C.2   130  THR130      0.2619
     48  O         12.4930  -16.2390    6.5770 O.2   130  THR130     -0.2717
     49  CB        14.7540  -14.0580    6.0380 C.3   130  THR130      0.1784
     50  OG1       15.5700  -14.2900    7.1900 O.3   130  THR130     -0.2211
     51  CG2       13.4890  -13.3300    6.4720 C.3   130  THR130      0.0376
     52  N         14.4920  -17.0950    7.1130 N.am  131  THR131     -0.1938
     53  CA        13.9140  -17.9290    8.1470 C.3   131  THR131      0.2028
     54  C         14.4610  -17.4800    9.5120 C.2   131  THR131      0.2642
     55  O         13.8540  -17.7340   10.5590 O.2   131  THR131     -0.2714
     56  CB        14.2180  -19.4180    7.8840 C.3   131  THR131      0.1808
     57  OG1       13.4910  -20.2200    8.8180 O.3   131  THR131     -0.2208
     58  CG2       15.6980  -19.6940    8.0170 C.3   131  THR131      0.0379
     59  N         15.5950  -16.7830    9.4830 N.am  132  SER132     -0.1949
     60  CA        16.2310  -16.2820   10.6950 C.3   132  SER132      0.1924
     61  C         15.6780  -14.9060   11.0790 C.2   132  SER132      0.2314
     62  O         15.5940  -14.5630   12.2630 O.2   132  SER132     -0.2863
     63  CB        17.7450  -16.1630   10.4910 C.3   132  SER132      0.2116
     64  OG        18.0460  -15.1340    9.5620 O.3   132  SER132     -0.2180
     65  N         17.1760  -12.2860   10.4520 N.3   134  ASN134     -0.1240
     66  CA        18.3490  -11.4250   10.6050 C.3   134  ASN134      0.1653
     67  C         18.6150  -10.7230    9.2840 C.2   134  ASN134      0.2266
     68  O         18.8020  -11.3690    8.2530 O.2   134  ASN134     -0.2867
     69  CB        19.5740  -12.2440   11.0210 C.3   134  ASN134      0.1155
     70  CG        19.3910  -12.9220   12.3690 C.2   134  ASN134      0.2627
     71  OD1       18.7040  -12.3990   13.2500 O.2   134  ASN134     -0.2716
     72  ND2       20.0120  -14.0840   12.5410 N.am  134  ASN134     -0.0877
     73  N         21.2450   -9.2030    8.1950 N.3   136  HIS136     -0.1226
     74  CA        22.5630   -9.3130    7.5680 C.3   136  HIS136      0.1752
     75  C         22.5630  -10.4610    6.5560 C.2   136  HIS136      0.2596
     76  O         23.5120  -10.6400    5.8020 O.2   136  HIS136     -0.2718
     77  CB        23.6980   -9.4680    8.6120 C.3   136  HIS136      0.0759
     78  CG        23.7410  -10.7910    9.3210 C.ar  136  HIS136      0.0818
     79  ND1       24.8730  -11.2380    9.9750 N.ar  136  HIS136     -0.2268
     80  CD2       22.8060  -11.7580    9.4890 C.ar  136  HIS136      0.1154
     81  CE1       24.6340  -12.4220   10.5110 C.ar  136  HIS136      0.1986
     82  NE2       23.3880  -12.7610   10.2310 N.ar  136  HIS136     -0.2212
     83  N         21.4630  -11.2100    6.5150 N.am  137  GLY137     -0.1957
     84  CA        21.3410  -12.3090    5.5700 C.3   137  GLY137      0.1869
     85  C         20.4200  -11.9520    4.4090 C.2   137  GLY137      0.2309
     86  O         20.0290  -12.8230    3.6200 O.2   137  GLY137     -0.2863
     87  N         27.1910  -22.1880    2.6590 N.3   176  ASP176     -0.1239
     88  CA        25.9910  -22.3300    3.4960 C.3   176  ASP176      0.1674
     89  C         24.9050  -21.4070    2.9200 C.2   176  ASP176      0.2266
     90  O         24.6880  -20.2890    3.4030 O.2   176  ASP176     -0.2867
     91  CB        26.2730  -21.9610    4.9560 C.3   176  ASP176      0.1410
     92  CG        25.1680  -22.4240    5.8980 C.2   176  ASP176      0.3668
     93  OD1       24.0510  -22.7220    5.4160 O.co2 176  ASP176     -0.2456
     94  OD2       25.4130  -22.4840    7.1220 O.co2 176  ASP176     -0.2456
     95  N         20.8660  -20.8470    1.8410 N.3   178  ASP178     -0.1239
     96  CA        19.5150  -21.2940    2.1550 C.3   178  ASP178      0.1674
     97  C         18.8030  -21.7070    0.8600 C.2   178  ASP178      0.2266
     98  O         19.1640  -21.2410   -0.2240 O.2   178  ASP178     -0.2867
     99  CB        18.7470  -20.1750    2.8710 C.3   178  ASP178      0.1410
    100  CG        19.3820  -19.7900    4.2110 C.2   178  ASP178      0.3668
    101  OD1       20.0440  -20.6520    4.8270 O.co2 178  ASP178     -0.2456
    102  OD2       19.2040  -18.6350    4.6610 O.co2 178  ASP178     -0.2456
    103  N         17.4590  -18.9580   -1.2640 N.3   181  GLU181     -0.1245
    104  CA        18.5760  -18.2080   -1.8290 C.3   181  GLU181      0.1567
    105  C         19.1250  -18.9320   -3.0470 C.2   181  GLU181      0.2260
    106  O         19.4660  -18.3010   -4.0460 O.2   181  GLU181     -0.2867
    107  CB        19.6930  -18.0300   -0.7990 C.3   181  GLU181      0.0388
    108  CG        19.3670  -17.0610    0.3260 C.3   181  GLU181      0.1160
    109  CD        20.5330  -16.8760    1.2810 C.2   181  GLU181      0.3649
    110  OE1       20.8690  -17.8340    2.0010 O.co2 181  GLU181     -0.2457
    111  OE2       21.1220  -15.7780    1.3090 O.co2 181  GLU181     -0.2457
    112  N         33.0520  -10.4130    3.7970 N.3   227  ASP227     -0.1239
    113  CA        32.5450  -10.9300    5.0620 C.3   227  ASP227      0.1674
    114  C         33.6780  -11.8080    5.5560 C.2   227  ASP227      0.2266
    115  O         34.0870  -12.7440    4.8600 O.2   227  ASP227     -0.2867
    116  CB        31.2940  -11.7790    4.8260 C.3   227  ASP227      0.1410
    117  CG        30.6760  -12.2940    6.1140 C.2   227  ASP227      0.3668
    118  OD1       31.3820  -12.3680    7.1430 O.co2 227  ASP227     -0.2456
    119  OD2       29.4700  -12.6430    6.0900 O.co2 227  ASP227     -0.2456
    120  N         28.5670  -16.0830   12.2840 N.3   241  THR241     -0.1218
    121  CA        28.1210  -17.2670   11.5560 C.3   241  THR241      0.1862
    122  C         29.2500  -18.0080   10.8320 C.2   241  THR241      0.2287
    123  O         29.3040  -18.0430    9.6010 O.2   241  THR241     -0.2866
    124  CB        27.0260  -16.8820   10.5370 C.3   241  THR241      0.1770
    125  OG1       27.4620  -15.7530    9.7720 O.3   241  THR241     -0.2211
    126  CG2       25.7400  -16.5170   11.2530 C.3   241  THR241      0.0375
    127  N         31.5990   -8.2500    9.6500 N.3   272  GLU272     -0.1245
    128  CA        31.3660   -9.3530   10.5790 C.3   272  GLU272      0.1567
    129  C         32.4560   -9.7440   11.5790 C.2   272  GLU272      0.2260
    130  O         32.4460  -10.8590   12.1030 O.2   272  GLU272     -0.2867
    131  CB        30.9070  -10.5960    9.8030 C.3   272  GLU272      0.0388
    132  CG        29.5710  -10.4270    9.0520 C.3   272  GLU272      0.1160
    133  CD        28.3590  -10.2440    9.9650 C.2   272  GLU272      0.3649
    134  OE1       28.4520  -10.5240   11.1800 O.co2 272  GLU272     -0.2457
    135  OE2       27.2940   -9.8280    9.4560 O.co2 272  GLU272     -0.2457
@<TRIPOS>BOND
     1   106   105    2
     2   105   104    1
     3   104   103    1
     4   104   107    1
     5   107   108    1
     6    98    97    2
     7   108   109    1
     8    11    12    1
     9    32    31    2
    10    14    13    2
    11    97    96    1
    12    31    30    1
    13    37    38    1
    14    22    21    2
    15   109   111   ar
    16   109   110   ar
    17    39    38    1
    18    39    40    2
    19    29    30    1
    20    38    41    1
    21    21    20    1
    22    15    12    1
    23    15    16    1
    24    95    96    1
    25    13    12    1
    26    30    33    1
    27    96    99    1
    28    33    34    1
    29    43    42    2
    30    20    19    1
    31    20    23    1
    32    87    88    1
    33    41    42    1
    34    99   100    1
    35    89    90    2
    36    89    88    1
    37    42    44   am
    38    16    18   ar
    39    16    17   ar
    40    10     9   ar
    41    10     8   ar
    42     9     7   ar
    43    34    36   ar
    44    34    35   ar
    45    88    91    1
    46    86    85    2
    47   112   113    1
    48    23    24    1
    49     8     6   ar
    50    45    46    1
    51   100   102   ar
    52   100   101   ar
    53     7     6   ar
    54    85    84    1
    55   116   113    1
    56   116   117    1
    57   115   114    2
    58     6     5    1
    59    91    92    1
    60   113   114    1
    61    24    26   ar
    62    24    25   ar
    63     4     3    2
    64    46    49    1
    65    46    47    1
    66    93    92   ar
    67    84    83    1
    68    26    28   ar
    69    76    75    2
    70    25    27   ar
    71    92    94   ar
    72    49    51    1
    73    49    50    1
    74   119   117   ar
    75   117   118   ar
    76     5     2    1
    77     3     2    1
    78    47    48    2
    79    47    52   am
    80    83    75   am
    81    75    74    1
    82    28    27   ar
    83     2     1    1
    84    52    53    1
    85    74    73    1
    86    74    77    1
    87    56    58    1
    88    56    53    1
    89    56    57    1
    90    53    54    1
    91    68    67    2
    92    77    78    1
    93   132   131    1
    94   132   133    1
    95    67    66    1
    96    78    80   ar
    97    78    79   ar
    98   135   133   ar
    99    59    54   am
   100    59    60    1
   101    80    82   ar
   102    54    55    2
   103    64    63    1
   104   123   122    2
   105   127   128    1
   106   125   124    1
   107   131   128    1
   108   133   134   ar
   109    79    81   ar
   110    82    81   ar
   111    65    66    1
   112    63    60    1
   113   124   126    1
   114   124   121    1
   115   128   129    1
   116    66    69    1
   117    60    61    1
   118   122   121    1
   119    69    70    1
   120    61    62    2
   121   121   120    1
   122   129   130    2
   123    70    72   am
   124    70    71    2
