@<TRIPOS>MOLECULE
tmp/3f81B00.pdb
 90 87 0 0 0
SMALL
GASTEIGER

@<TRIPOS>ATOM
      1  N         20.6730   10.7810   22.5800 N.3    19  LEU19      -0.1245
      2  CA        21.7060    9.8580   23.0410 C.3    19  LEU19       0.1561
      3  C         22.5810   10.5450   24.1240 C.2    19  LEU19       0.2260
      4  O         22.5680   11.7850   24.2380 O.2    19  LEU19      -0.2867
      5  CB        22.5490    9.3830   21.8590 C.3    19  LEU19       0.0270
      6  CG        21.7930    8.5720   20.7710 C.3    19  LEU19       0.0019
      7  CD1       22.7280    8.3600   19.6060 C.3    19  LEU19       0.0001
      8  CD2       21.2820    7.2210   21.3100 C.3    19  LEU19       0.0001
      9  N         29.6130   -8.1400   19.9340 N.3    62  PHE62      -0.1227
     10  CA        29.7970   -6.7070   19.7450 C.3    62  PHE62       0.1736
     11  C         28.8390   -5.8840   20.5990 C.2    62  PHE62       0.2595
     12  O         29.1170   -4.7150   20.8770 O.2    62  PHE62      -0.2718
     13  CB        29.7180   -6.3010   18.2630 C.3    62  PHE62       0.0547
     14  CG        28.3240   -6.2480   17.7190 C.ar   62  PHE62      -0.0202
     15  CD1       27.6260   -7.4280   17.4280 C.ar   62  PHE62      -0.0042
     16  CD2       27.7060   -5.0190   17.4860 C.ar   62  PHE62      -0.0042
     17  CE1       26.3350   -7.3890   16.9260 C.ar   62  PHE62      -0.0003
     18  CE2       26.4100   -4.9710   16.9830 C.ar   62  PHE62      -0.0003
     19  CZ        25.7290   -6.1620   16.6970 C.ar   62  PHE62      -0.0000
     20  N         27.7190   -6.4190   21.0520 N.am   63  MET63      -0.1979
     21  CA        26.8960   -5.6610   22.0060 C.3    63  MET63       0.1605
     22  C         26.9980   -5.9770   23.5260 C.2    63  MET63       0.2287
     23  O         26.1240   -5.6830   24.2860 O.2    63  MET63      -0.2864
     24  CB        25.4900   -5.4090   21.5380 C.3    63  MET63       0.0413
     25  CG        25.2320   -3.9690   20.9180 C.3    63  MET63       0.0598
     26  SD        25.0810   -2.5800   22.0510 S.3    63  MET63      -0.1393
     27  CE        25.6310   -1.3670   20.9520 C.3    63  MET63       0.0692
     28  N         20.1910   -6.4360   25.2650 N.3    86  ASP86      -0.1239
     29  CA        19.2890   -5.3200   25.1530 C.3    86  ASP86       0.1674
     30  C         18.1510   -5.6660   24.1820 C.2    86  ASP86       0.2266
     31  O         18.0920   -5.1530   23.0710 O.2    86  ASP86      -0.2867
     32  CB        20.0260   -4.0230   24.7630 C.3    86  ASP86       0.1410
     33  CG        19.0780   -2.8640   24.6100 C.2    86  ASP86       0.3668
     34  OD1       18.0330   -2.8600   25.3240 O.co2  86  ASP86      -0.2456
     35  OD2       19.3490   -2.0030   23.7340 O.co2  86  ASP86      -0.2456
     36  N         26.6440   -0.5660   30.7570 N.3   118  CYS118     -0.1221
     37  CA        26.3880   -1.5830   29.7390 C.3   118  CYS118      0.1808
     38  C         27.2510   -1.2050   28.5420 C.2   118  CYS118      0.2601
     39  O         28.3860   -0.7450   28.7460 O.2   118  CYS118     -0.2717
     40  CB        24.8910   -1.7200   29.4500 C.3   118  CYS118      0.0970
     41  SG        23.9740   -0.1570   29.2140 S.3   118  CYS118     -0.0800
     42  N         26.7940   -1.3930   27.3150 N.am  119  ARG119     -0.1965
     43  CA        27.6560   -1.0180   26.1870 C.3   119  ARG119      0.1729
     44  C         27.5750    0.5040   25.9980 C.2   119  ARG119      0.2616
     45  O         28.5840    1.1650   25.8340 O.2   119  ARG119     -0.2715
     46  CB        27.3100   -1.7980   24.8890 C.3   119  ARG119      0.0348
     47  CG        28.2710   -1.5150   23.7350 C.3   119  ARG119      0.0492
     48  CD        29.3960   -2.5390   23.5920 C.3   119  ARG119      0.2205
     49  NE        30.6310   -1.8090   23.2670 N.pl3 119  ARG119     -0.0865
     50  CZ        31.8520   -2.2630   23.4640 C.cat 119  ARG119      0.5346
     51  NH1       32.0570   -3.4750   23.9840 N.pl3 119  ARG119      0.1354
     52  NH2       32.8720   -1.4760   23.1480 N.pl3 119  ARG119      0.1354
     53  N         26.3690    1.0540   26.0640 N.am  120  GLU120     -0.1977
     54  CA        26.1880    2.4830   25.8560 C.3   120  GLU120      0.1602
     55  C         25.6930    3.2660   27.0810 C.2   120  GLU120      0.2287
     56  O         25.6360    4.4960   27.0320 O.2   120  GLU120     -0.2864
     57  CB        25.2820    2.7020   24.6390 C.3   120  GLU120      0.0415
     58  CG        25.8480    1.9840   23.3870 C.3   120  GLU120      0.1163
     59  CD        24.9990    2.1940   22.1350 C.2   120  GLU120      0.3649
     60  OE1       24.1810    3.1430   22.1320 O.co2 120  GLU120     -0.2457
     61  OE2       25.1640    1.4270   21.1500 O.co2 120  GLU120     -0.2457
     62  N         22.6560    3.1410   28.1460 N.3   122  TYR122     -0.1227
     63  CA        21.4650    3.7220   27.5250 C.3   122  TYR122      0.1736
     64  C         20.1880    2.9300   27.8410 C.2   122  TYR122      0.2596
     65  O         19.1590    3.5280   28.1500 O.2   122  TYR122     -0.2718
     66  CB        21.6710    3.8740   26.0040 C.3   122  TYR122      0.0548
     67  CG        20.5370    4.6310   25.3210 C.ar  122  TYR122     -0.0200
     68  CD1       20.4070    6.0170   25.4760 C.ar  122  TYR122     -0.0009
     69  CD2       19.5770    3.9500   24.5780 C.ar  122  TYR122     -0.0009
     70  CE1       19.3430    6.7260   24.8840 C.ar  122  TYR122      0.0417
     71  CE2       18.5130    4.6370   23.9660 C.ar  122  TYR122      0.0417
     72  CZ        18.4130    6.0100   24.1050 C.ar  122  TYR122      0.1957
     73  OH        17.3630    6.6440   23.4810 O.3   122  TYR122     -0.2866
     74  N         20.2770    1.6020   27.8150 N.am  123  SER123     -0.1938
     75  CA        19.1080    0.7280   28.0170 C.3   123  SER123      0.2055
     76  C         19.2270   -0.2770   29.1840 C.2   123  SER123      0.2642
     77  O         18.4270   -0.2380   30.1040 O.2   123  SER123     -0.2714
     78  CB        18.7070    0.0280   26.6860 C.3   123  SER123      0.2130
     79  OG        17.5970   -0.8490   26.8970 O.3   123  SER123     -0.2179
     80  N         20.2400   -1.1490   29.1670 N.am  124  ARG124     -0.1977
     81  CA        20.3580   -2.1790   30.2040 C.3   124  ARG124      0.1597
     82  C         20.6900   -1.5770   31.5690 C.2   124  ARG124      0.2287
     83  O         19.9390   -1.7720   32.5220 O.2   124  ARG124     -0.2864
     84  CB        21.4190   -3.2180   29.8270 C.3   124  ARG124      0.0334
     85  CG        20.8680   -4.1950   28.7600 C.3   124  ARG124      0.0492
     86  CD        21.9830   -4.9810   28.1010 C.3   124  ARG124      0.2205
     87  NE        22.7770   -4.1700   27.1630 N.pl3 124  ARG124     -0.0865
     88  CZ        23.7040   -4.6730   26.3240 C.cat 124  ARG124      0.5346
     89  NH1       23.9800   -5.9880   26.3130 N.pl3 124  ARG124      0.1354
     90  NH2       24.3590   -3.8700   25.4970 N.pl3 124  ARG124      0.1354
@<TRIPOS>BOND
     1    19    17   ar
     2    19    18   ar
     3    17    15   ar
     4    18    16   ar
     5    15    14   ar
     6    16    14   ar
     7    14    13    1
     8    13    10    1
     9     7     6    1
    10    10     9    1
    11    10    11    1
    12    11    12    2
    13    11    20   am
    14     6     8    1
    15     6     5    1
    16    25    24    1
    17    25    26    1
    18    27    26    1
    19    20    21    1
    20    61    59   ar
    21    24    21    1
    22     5     2    1
    23    21    22    1
    24    60    59   ar
    25    59    58    1
    26     1     2    1
    27     2     3    1
    28    31    30    2
    29    52    50    1
    30    49    50    2
    31    49    48    1
    32    58    57    1
    33    50    51    1
    34    73    72    1
    35    22    23    2
    36    48    47    1
    37    35    33   ar
    38    47    46    1
    39    71    72   ar
    40    71    69   ar
    41    72    70   ar
    42     3     4    2
    43    30    29    1
    44    69    67   ar
    45    33    32    1
    46    33    34   ar
    47    57    54    1
    48    32    29    1
    49    70    68   ar
    50    46    43    1
    51    29    28    1
    52    67    68   ar
    53    67    66    1
    54    90    88    1
    55    45    44    2
    56    54    53    1
    57    54    55    1
    58    44    53   am
    59    44    43    1
    60    66    63    1
    61    43    42    1
    62    89    88    1
    63    88    87    2
    64    78    79    1
    65    78    75    1
    66    56    55    2
    67    87    86    1
    68    42    38   am
    69    63    64    1
    70    63    62    1
    71    74    64   am
    72    74    75    1
    73    64    65    2
    74    75    76    1
    75    86    85    1
    76    38    39    2
    77    38    37    1
    78    85    84    1
    79    80    76   am
    80    80    81    1
    81    76    77    2
    82    41    40    1
    83    40    37    1
    84    37    36    1
    85    84    81    1
    86    81    82    1
    87    82    83    2
