@<TRIPOS>MOLECULE
tmp/3f82A00.pdb
 213 203 0 0 0
SMALL
GASTEIGER

@<TRIPOS>ATOM
      1  N          4.2200   18.9050   57.1410 N.3    30  ILE30      -0.1231
      2  CA         4.1720   17.9740   58.2580 C.3    30  ILE30       0.1692
      3  C          5.3800   17.0490   58.1640 C.2    30  ILE30       0.2592
      4  O          6.3370   17.1760   58.9200 O.2    30  ILE30      -0.2718
      5  CB         2.8760   17.1420   58.2130 C.3    30  ILE30       0.0266
      6  CG1        1.7090   17.9090   58.8370 C.3    30  ILE30       0.0019
      7  CG2        3.0840   15.7930   58.8780 C.3    30  ILE30       0.0020
      8  CD1        0.3700   17.2280   58.6570 C.3    30  ILE30       0.0001
      9  N          5.3250   16.1250   57.2080 N.am   31  GLY31      -0.1957
     10  CA         6.3710   15.1420   56.9800 C.3    31  GLY31       0.1869
     11  C          7.6000   15.6610   56.2640 C.2    31  GLY31       0.2309
     12  O          8.4240   16.3370   56.8660 O.2    31  GLY31      -0.2863
     13  N          4.8270   15.2290   53.2170 N.3    38  VAL38      -0.1245
     14  CA         3.5330   15.3410   53.8920 C.3    38  VAL38       0.1561
     15  C          3.1410   16.7800   54.2200 C.2    38  VAL38       0.2260
     16  O          3.9470   17.5490   54.7440 O.2    38  VAL38      -0.2867
     17  CB         3.4660   14.4430   55.1680 C.3    38  VAL38       0.0252
     18  CG1        2.0290   14.3510   55.6890 C.3    38  VAL38       0.0019
     19  CG2        4.0280   13.0470   54.8800 C.3    38  VAL38       0.0019
     20  N         -4.0870   14.7950   56.3210 N.3    49  ALA49      -0.1245
     21  CA        -2.6690   14.7700   55.9940 C.3    49  ALA49       0.1562
     22  C         -2.5990   14.3650   54.5310 C.2    49  ALA49       0.2260
     23  O         -3.3540   13.4970   54.0840 O.2    49  ALA49      -0.2867
     24  CB        -1.9300   13.7730   56.8710 C.3    49  ALA49       0.0290
     25  N         -0.0840   13.1020   51.5870 N.3    51  LYS51      -0.1245
     26  CA         1.1970   12.5350   51.1750 C.3    51  LYS51       0.1561
     27  C          1.3930   12.6500   49.6620 C.2    51  LYS51       0.2260
     28  O          0.4930   12.3400   48.8750 O.2    51  LYS51      -0.2867
     29  CB         1.2960   11.0700   51.5990 C.3    51  LYS51       0.0271
     30  CG         2.6560   10.4280   51.3610 C.3    51  LYS51       0.0035
     31  CD         2.6070    8.9750   51.7650 C.3    51  LYS51       0.0206
     32  CE         3.8730    8.2240   51.4130 C.3    51  LYS51       0.1093
     33  NZ         3.7220    6.7840   51.7900 N.3    51  LYS51      -0.1314
     34  N          3.0640    3.6140   44.0030 N.3    61  PHE61      -0.1241
     35  CA         2.4280    4.5810   44.8960 C.3    61  PHE61       0.1605
     36  C          0.9240    4.3190   44.9720 C.2    61  PHE61       0.2264
     37  O          0.3910    4.0280   46.0460 O.2    61  PHE61      -0.2867
     38  CB         2.6960    6.0060   44.4010 C.3    61  PHE61       0.0534
     39  CG         2.3020    7.0850   45.3800 C.ar   61  PHE61      -0.0203
     40  CD1        3.0320    7.2930   46.5360 C.ar   61  PHE61      -0.0042
     41  CD2        1.2440    7.9360   45.1050 C.ar   61  PHE61      -0.0042
     42  CE1        2.6940    8.3020   47.4170 C.ar   61  PHE61      -0.0003
     43  CE2        0.8940    8.9350   45.9870 C.ar   61  PHE61      -0.0003
     44  CZ         1.6270    9.1250   47.1410 C.ar   61  PHE61      -0.0000
     45  N          0.1030    0.8010   46.5020 N.3    64  GLU64      -0.1231
     46  CA         0.2420    0.7160   47.9550 C.3    64  GLU64       0.1699
     47  C         -0.9780    1.3550   48.5960 C.2    64  GLU64       0.2592
     48  O         -1.3920    0.9680   49.6930 O.2    64  GLU64      -0.2718
     49  CB         1.4920    1.4700   48.4180 C.3    64  GLU64       0.0402
     50  CG         2.7910    0.7020   48.2660 C.3    64  GLU64       0.1161
     51  CD         3.9920    1.6160   48.0560 C.2    64  GLU64       0.3649
     52  OE1        3.8480    2.8480   48.2280 O.co2  64  GLU64      -0.2457
     53  OE2        5.0800    1.1040   47.7150 O.co2  64  GLU64      -0.2457
     54  N         -1.5380    2.3460   47.9060 N.am   65  GLY65      -0.1957
     55  CA        -2.7080    3.0780   48.3600 C.3    65  GLY65       0.1869
     56  C         -3.9710    2.2450   48.3320 C.2    65  GLY65       0.2309
     57  O         -4.7150    2.2030   49.3040 O.2    65  GLY65      -0.2863
     58  N         -4.5800   -0.1990   51.2050 N.3    68  MET68      -0.1245
     59  CA        -5.0290    0.4550   52.4350 C.3    68  MET68       0.1570
     60  C         -6.5500    0.5320   52.5020 C.2    68  MET68       0.2261
     61  O         -7.1230    0.7360   53.5760 O.2    68  MET68      -0.2867
     62  CB        -4.5030    1.8900   52.4710 C.3    68  MET68       0.0387
     63  CG        -3.4120    2.1630   53.4720 C.3    68  MET68       0.0595
     64  SD        -2.8380    3.8640   53.3000 S.3    68  MET68      -0.1393
     65  CE        -3.1280    4.4840   54.9260 C.3    68  MET68       0.0692
     66  N         -8.0950   -1.7810   54.8700 N.3    71  PHE71      -0.1241
     67  CA        -7.6060   -1.7110   56.2380 C.3    71  PHE71       0.1605
     68  C         -8.6320   -0.9700   57.0930 C.2    71  PHE71       0.2264
     69  O         -8.6150    0.2590   57.1970 O.2    71  PHE71      -0.2867
     70  CB        -6.2350   -1.0240   56.3110 C.3    71  PHE71       0.0534
     71  CG        -5.1260   -1.8130   55.6680 C.ar   71  PHE71      -0.0203
     72  CD1       -5.3470   -3.1160   55.2260 C.ar   71  PHE71      -0.0042
     73  CD2       -3.8580   -1.2460   55.4930 C.ar   71  PHE71      -0.0042
     74  CE1       -4.3290   -3.8370   54.6190 C.ar   71  PHE71      -0.0003
     75  CE2       -2.8330   -1.9580   54.8830 C.ar   71  PHE71      -0.0003
     76  CZ        -3.0680   -3.2530   54.4410 C.ar   71  PHE71      -0.0000
     77  N         -5.2010    0.4650   62.9010 N.3    76  VAL76      -0.1231
     78  CA        -4.5080    0.4920   61.6120 C.3    76  VAL76       0.1692
     79  C         -4.8750    1.8010   60.9250 C.2    76  VAL76       0.2591
     80  O         -6.0460    2.1610   60.8770 O.2    76  VAL76      -0.2718
     81  CB        -4.9320   -0.7210   60.6990 C.3    76  VAL76       0.0266
     82  CG1       -4.2550   -0.6270   59.3470 C.3    76  VAL76       0.0020
     83  CG2       -4.6340   -2.0710   61.3800 C.3    76  VAL76       0.0020
     84  N         -3.8920    2.5100   60.3760 N.am   77  LEU77      -0.1980
     85  CA        -4.1880    3.7730   59.7090 C.3    77  LEU77       0.1596
     86  C         -5.0420    3.5960   58.4680 C.2    77  LEU77       0.2287
     87  O         -4.7760    2.7440   57.6240 O.2    77  LEU77      -0.2864
     88  CB        -2.9310    4.6060   59.4220 C.3    77  LEU77       0.0297
     89  CG        -3.1770    6.0570   58.9630 C.3    77  LEU77       0.0022
     90  CD1       -3.8020    6.9260   60.0690 C.3    77  LEU77       0.0001
     91  CD2       -1.9110    6.6930   58.4210 C.3    77  LEU77       0.0001
     92  N         -1.9660   11.0050   48.3400 N.3    92  VAL92      -0.1245
     93  CA        -2.6300   10.0760   49.2330 C.3    92  VAL92       0.1561
     94  C         -3.1580   10.9060   50.3940 C.2    92  VAL92       0.2260
     95  O         -2.4380   11.7310   50.9530 O.2    92  VAL92      -0.2867
     96  CB        -1.6990    8.9260   49.6610 C.3    92  VAL92       0.0252
     97  CG1       -2.3290    8.1040   50.7640 C.3    92  VAL92       0.0019
     98  CG2       -1.4090    8.0440   48.4610 C.3    92  VAL92       0.0019
     99  N         -4.8520   11.1280   54.1210 N.3    94  LEU94      -0.1231
    100  CA        -5.0500   10.3910   55.3550 C.3    94  LEU94       0.1678
    101  C         -5.6770   11.1840   56.4970 C.2    94  LEU94       0.2434
    102  O         -5.5080   12.3940   56.6000 O.2    94  LEU94      -0.2733
    103  CB        -3.7160    9.7770   55.7970 C.3    94  LEU94       0.0284
    104  CG        -2.9740    9.1350   54.6180 C.3    94  LEU94       0.0019
    105  CD1       -1.6980    9.8970   54.2580 C.3    94  LEU94       0.0001
    106  CD2       -2.7070    7.6680   54.8250 C.3    94  LEU94       0.0001
    107  N         -6.3760   10.4930   57.4080 N.am   95  PRO95      -0.2718
    108  CA        -6.9000   11.2610   58.5470 C.3    95  PRO95       0.1535
    109  C         -5.7400   11.8980   59.3350 C.2    95  PRO95       0.2599
    110  O         -4.6440   11.3270   59.4280 O.2    95  PRO95      -0.2715
    111  CB        -7.5830   10.1910   59.4170 C.3    95  PRO95       0.0310
    112  CG        -7.5000    8.9050   58.6590 C.3    95  PRO95       0.0237
    113  CD        -6.4270    9.0390   57.6410 C.3    95  PRO95       0.0939
    114  N         -5.9780   13.0840   59.8880 N.am   96  TYR96      -0.1960
    115  CA        -4.9580   13.7840   60.6610 C.3    96  TYR96       0.1771
    116  C         -4.7270   13.1460   62.0250 C.2    96  TYR96       0.2619
    117  O         -5.6760   12.8530   62.7700 O.2    96  TYR96      -0.2715
    118  CB        -5.3270   15.2540   60.8520 C.3    96  TYR96       0.0574
    119  CG        -4.2340   16.0440   61.5380 C.ar   96  TYR96      -0.0198
    120  CD1       -2.9750   16.1330   60.9760 C.ar   96  TYR96      -0.0009
    121  CD2       -4.4520   16.6550   62.7660 C.ar   96  TYR96      -0.0009
    122  CE1       -1.9540   16.7970   61.6160 C.ar   96  TYR96       0.0417
    123  CE2       -3.4350   17.3440   63.4140 C.ar   96  TYR96       0.0417
    124  CZ        -2.1890   17.4230   62.8160 C.ar   96  TYR96       0.1957
    125  OH        -1.1610   18.1170   63.4180 O.3    96  TYR96      -0.2866
    126  N         -3.4560   12.9550   62.3610 N.am   97  MET97      -0.1977
    127  CA        -3.0740   12.3470   63.6290 C.3    97  MET97       0.1605
    128  C         -2.4620   13.4140   64.5120 C.2    97  MET97       0.2287
    129  O         -1.2970   13.7850   64.3620 O.2    97  MET97      -0.2864
    130  CB        -2.0960   11.1950   63.3860 C.3    97  MET97       0.0413
    131  CG        -2.6630   10.1060   62.4870 C.3    97  MET97       0.0598
    132  SD        -3.7740    8.9910   63.3350 S.3    97  MET97      -0.1393
    133  CE        -5.3410    9.3260   62.5280 C.3    97  MET97       0.0692
    134  N          1.1310   12.8390   66.0180 N.3   100  GLY100     -0.1210
    135  CA         2.2320   12.4030   65.1810 C.3   100  GLY100      0.1956
    136  C          2.6300   10.9590   65.4190 C.2   100  GLY100      0.2611
    137  O          1.8150   10.1530   65.8650 O.2   100  GLY100     -0.2717
    138  N          3.8840   10.6320   65.1160 N.am  101  ASP101     -0.1973
    139  CA         4.3820    9.2750   65.2670 C.3   101  ASP101      0.1709
    140  C          4.5940    8.9380   66.7200 C.2   101  ASP101      0.2293
    141  O          4.7410    9.8210   67.5500 O.2   101  ASP101     -0.2864
    142  CB         5.6600    9.0560   64.4640 C.3   101  ASP101      0.1436
    143  CG         6.8730    9.6030   65.1580 C.2   101  ASP101      0.3671
    144  OD1        7.5840    8.8170   65.8220 O.co2 101  ASP101     -0.2456
    145  OD2        7.1040   10.8250   65.0610 O.co2 101  ASP101     -0.2456
    146  N         -4.0260   -7.2310   60.6170 N.3   132  LEU132     -0.1245
    147  CA        -3.2220   -7.2630   59.3880 C.3   132  LEU132      0.1561
    148  C         -2.7580   -8.6600   59.0260 C.2   132  LEU132      0.2260
    149  O         -2.7370   -9.0300   57.8520 O.2   132  LEU132     -0.2867
    150  CB        -2.0060   -6.3340   59.5010 C.3   132  LEU132      0.0270
    151  CG        -2.3250   -4.8350   59.5540 C.3   132  LEU132      0.0019
    152  CD1       -1.0500   -4.0490   59.7410 C.3   132  LEU132      0.0001
    153  CD2       -3.0400   -4.3820   58.2850 C.3   132  LEU132      0.0001
    154  N         -1.4710   -9.7810   55.3760 N.3   137  PHE137     -0.1241
    155  CA        -0.6360   -8.6310   55.0310 C.3   137  PHE137      0.1605
    156  C          0.6420   -8.5400   55.8890 C.2   137  PHE137      0.2264
    157  O          0.5730   -8.3760   57.0980 O.2   137  PHE137     -0.2867
    158  CB        -1.4590   -7.3370   55.1040 C.3   137  PHE137      0.0534
    159  CG        -0.6450   -6.0780   54.9450 C.ar  137  PHE137     -0.0203
    160  CD1       -0.5890   -5.4190   53.7210 C.ar  137  PHE137     -0.0042
    161  CD2        0.0100   -5.5100   56.0410 C.ar  137  PHE137     -0.0042
    162  CE1        0.1520   -4.2430   53.5850 C.ar  137  PHE137     -0.0003
    163  CE2        0.7310   -4.3270   55.9180 C.ar  137  PHE137     -0.0003
    164  CZ         0.8150   -3.7000   54.6960 C.ar  137  PHE137     -0.0000
    165  N          3.8790   -6.5240   56.9660 N.3   139  HIS139     -0.1241
    166  CA         4.2330   -5.1060   57.0570 C.3   139  HIS139      0.1621
    167  C          5.6040   -4.7940   56.4910 C.2   139  HIS139      0.2264
    168  O          5.7380   -3.9280   55.6430 O.2   139  HIS139     -0.2867
    169  CB         4.0980   -4.6270   58.5150 C.3   139  HIS139      0.0745
    170  CG         4.0590   -3.1370   58.6770 C.ar  139  HIS139      0.0817
    171  ND1        5.1770   -2.3430   58.5340 N.ar  139  HIS139     -0.2268
    172  CD2        3.0550   -2.3070   59.0510 C.ar  139  HIS139      0.1154
    173  CE1        4.8520   -1.0810   58.7640 C.ar  139  HIS139      0.1986
    174  NE2        3.5690   -1.0330   59.0760 N.ar  139  HIS139     -0.2212
    175  N          1.2720    5.7810   64.2420 N.3   148  MET148     -0.1245
    176  CA         0.6960    7.0980   64.4930 C.3   148  MET148      0.1570
    177  C         -0.0910    7.1650   65.7950 C.2   148  MET148      0.2261
    178  O         -0.5120    6.1450   66.3510 O.2   148  MET148     -0.2867
    179  CB        -0.1960    7.5240   63.3180 C.3   148  MET148      0.0387
    180  CG         0.5110    7.4920   61.9650 C.3   148  MET148      0.0595
    181  SD         2.1080    8.3720   61.9630 S.3   148  MET148     -0.1393
    182  CE         1.6050   10.1080   62.2770 C.3   148  MET148      0.0692
    183  N         -1.1810    1.6670   63.3170 N.3   157  VAL157     -0.1231
    184  CA        -0.0330    1.1080   62.6170 C.3   157  VAL157      0.1692
    185  C         -0.0600    1.6850   61.2150 C.2   157  VAL157      0.2592
    186  O         -1.1140    1.7850   60.5860 O.2   157  VAL157     -0.2718
    187  CB        -0.0860   -0.4430   62.6100 C.3   157  VAL157      0.0266
    188  CG1        1.0450   -1.0150   61.7650 C.3   157  VAL157      0.0020
    189  CG2       -0.0500   -0.9850   64.0230 C.3   157  VAL157      0.0020
    190  N          1.0940    2.1290   60.7460 N.am  158  ALA158     -0.1966
    191  CA         1.1830    2.7440   59.4280 C.3   158  ALA158      0.1728
    192  C          2.5480    2.4660   58.8190 C.2   158  ALA158      0.2616
    193  O          3.3130    1.6690   59.3510 O.2   158  ALA158     -0.2715
    194  CB         0.9480    4.2380   59.5470 C.3   158  ALA158      0.0334
    195  N          2.8480    3.1360   57.7090 N.am  159  ASP159     -0.1957
    196  CA         4.1450    3.0090   57.0430 C.3   159  ASP159      0.1840
    197  C          4.4280    4.2850   56.2620 C.2   159  ASP159      0.2622
    198  O          3.8700    4.4860   55.1880 O.2   159  ASP159     -0.2715
    199  CB         4.1640    1.8060   56.0800 C.3   159  ASP159      0.1450
    200  CG         5.5830    1.3870   55.6800 C.2   159  ASP159      0.3671
    201  OD1        6.5150    2.2000   55.8410 O.co2 159  ASP159     -0.2456
    202  OD2        5.7700    0.2430   55.1940 O.co2 159  ASP159     -0.2456
    203  N          5.2960    5.1390   56.7970 N.am  160  PHE160     -0.1974
    204  CA         5.6510    6.3890   56.1160 C.3   160  PHE160      0.1639
    205  C          6.1970    6.1930   54.7070 C.2   160  PHE160      0.2290
    206  O          5.8540    6.9400   53.7970 O.2   160  PHE160     -0.2864
    207  CB         6.6660    7.1910   56.9320 C.3   160  PHE160      0.0560
    208  CG         6.0380    8.1460   57.9030 C.ar  160  PHE160     -0.0200
    209  CD1        5.5980    9.3900   57.4830 C.ar  160  PHE160     -0.0042
    210  CD2        5.8220    7.7680   59.2210 C.ar  160  PHE160     -0.0042
    211  CE1        5.0280   10.2600   58.3650 C.ar  160  PHE160     -0.0003
    212  CE2        5.2530    8.6430   60.1170 C.ar  160  PHE160     -0.0003
    213  CZ         4.8630    9.8940   59.6900 C.ar  160  PHE160     -0.0000
@<TRIPOS>BOND
     1    34    35    1
     2    38    35    1
     3    38    39    1
     4    35    36    1
     5    36    37    2
     6    41    39   ar
     7    41    43   ar
     8    39    40   ar
     9    43    44   ar
    10    45    46    1
    11    40    42   ar
    12    44    42   ar
    13    53    51   ar
    14    54    55    1
    15    54    47   am
    16    46    49    1
    17    46    47    1
    18    51    52   ar
    19    51    50    1
    20    50    49    1
    21    56    55    1
    22    56    57    2
    23    92    93    1
    24    98    96    1
    25    47    48    2
    26    28    27    2
    27    93    96    1
    28    93    94    1
    29    96    97    1
    30    27    26    1
    31    94    95    2
    32    26    25    1
    33    26    29    1
    34    58    59    1
    35    30    29    1
    36    30    31    1
    37    32    31    1
    38    32    33    1
    39    59    62    1
    40    59    60    1
    41    62    63    1
    42    60    61    2
    43    13    14    1
    44    64    63    1
    45    64    65    1
    46   162   160   ar
    47   162   164   ar
    48   160   159   ar
    49   206   205    2
    50    14    15    1
    51    14    17    1
    52    23    22    2
    53    99   100    1
    54    15    16    2
    55   105   104    1
    56    76    74   ar
    57    76    75   ar
    58    22    21    1
    59   104   106    1
    60   104   103    1
    61    74    72   ar
    62   164   163   ar
    63   205   204    1
    64    66    67    1
    65    19    17    1
    66    75    73   ar
    67   159   158    1
    68   159   161   ar
    69   155   158    1
    70   155   154    1
    71   155   156    1
    72    17    18    1
    73   198   197    2
    74   202   200   ar
    75    72    71   ar
    76   100   103    1
    77   100   101    1
    78    73    71   ar
    79   168   167    2
    80    71    70    1
    81   200   201   ar
    82   200   199    1
    83   156   157    2
    84   163   161   ar
    85    21    20    1
    86    21    24    1
    87   199   196    1
    88   204   203    1
    89   204   207    1
    90    67    70    1
    91    67    68    1
    92   197   203   am
    93   197   196    1
    94    11    12    2
    95    11    10    1
    96   167   166    1
    97   101   102    2
    98   101   107   am
    99   207   208    1
   100   165   166    1
   101    10     9    1
   102   196   195    1
   103   166   169    1
   104    68    69    2
   105     1     2    1
   106     9     3   am
   107   107   113    1
   108   107   108    1
   109   209   208   ar
   110   209   211   ar
   111    87    86    2
   112   113   112    1
   113   195   192   am
   114   149   148    2
   115   208   210   ar
   116     3     2    1
   117     3     4    2
   118     5     2    1
   119     5     6    1
   120     5     7    1
   121   153   151    1
   122   211   213   ar
   123    91    89    1
   124    86    85    1
   125   169   170    1
   126   171   170   ar
   127   171   173   ar
   128   108   109    1
   129   108   111    1
   130     8     6    1
   131   112   111    1
   132   170   172   ar
   133   173   174   ar
   134   192   193    2
   135   192   191    1
   136    89    88    1
   137    89    90    1
   138   148   147    1
   139   172   174   ar
   140   210   212   ar
   141   109   110    2
   142   109   114   am
   143    82    81    1
   144   147   150    1
   145   147   146    1
   146    88    85    1
   147   191   194    1
   148   191   190    1
   149   150   151    1
   150   151   152    1
   151   213   212   ar
   152    85    84    1
   153   114   115    1
   154    84    79   am
   155   186   185    2
   156   115   118    1
   157   115   116    1
   158    81    83    1
   159    81    78    1
   160   190   185   am
   161   118   119    1
   162    80    79    2
   163    79    78    1
   164   120   119   ar
   165   120   122   ar
   166   185   184    1
   167   119   121   ar
   168    78    77    1
   169   122   124   ar
   170   188   187    1
   171   181   180    1
   172   181   182    1
   173   180   179    1
   174   116   126   am
   175   116   117    2
   176   126   127    1
   177   131   132    1
   178   131   130    1
   179   133   132    1
   180   187   184    1
   181   187   189    1
   182   184   183    1
   183   121   123   ar
   184   124   123   ar
   185   124   125    1
   186   179   176    1
   187   130   127    1
   188   127   128    1
   189   175   176    1
   190   129   128    2
   191   142   143    1
   192   142   139    1
   193   176   177    1
   194   145   143   ar
   195   138   139    1
   196   138   136   am
   197   143   144   ar
   198   135   136    1
   199   135   134    1
   200   139   140    1
   201   136   137    2
   202   177   178    2
   203   140   141    2
