@<TRIPOS>MOLECULE
tmp/3f88B00.pdb
 150 140 0 0 0
SMALL
GASTEIGER

@<TRIPOS>ATOM
      1  N         32.9610  110.7130   14.1910 N.3    28  ILE28      -0.1231
      2  CA        32.0490  109.9890   13.3530 C.3    28  ILE28       0.1692
      3  C         31.0300  109.2380   14.1400 C.2    28  ILE28       0.2592
      4  O         29.9440  108.9840   13.6400 O.2    28  ILE28      -0.2718
      5  CB        32.7470  109.1050   12.3110 C.3    28  ILE28       0.0266
      6  CG1       33.7640  108.1650   12.9360 C.3    28  ILE28       0.0019
      7  CG2       33.3560  109.9830   11.2280 C.3    28  ILE28       0.0020
      8  CD1       34.3840  107.1890   11.9360 C.3    28  ILE28       0.0001
      9  N         31.3640  108.8850   15.3680 N.am   29  GLY29      -0.1957
     10  CA        30.3910  108.2480   16.2640 C.3    29  GLY29       0.1869
     11  C         30.5190  108.7720   17.6730 C.2    29  GLY29       0.2309
     12  O         31.5450  109.3510   18.0420 O.2    29  GLY29      -0.2863
     13  N         29.6170  103.3640   23.3130 N.3    33  PHE33      -0.1241
     14  CA        30.9100  102.7940   23.0500 C.3    33  PHE33       0.1605
     15  C         31.9730  103.8320   23.2690 C.2    33  PHE33       0.2264
     16  O         33.1820  103.5440   23.2060 O.2    33  PHE33      -0.2867
     17  CB        30.9780  102.2280   21.6200 C.3    33  PHE33       0.0534
     18  CG        30.4490  103.1590   20.5490 C.ar   33  PHE33      -0.0203
     19  CD1       29.1250  103.1280   20.1840 C.ar   33  PHE33      -0.0042
     20  CD2       31.2930  104.0530   19.9000 C.ar   33  PHE33      -0.0042
     21  CE1       28.6350  103.9890   19.1930 C.ar   33  PHE33      -0.0003
     22  CE2       30.8040  104.9240   18.9200 C.ar   33  PHE33      -0.0003
     23  CZ        29.4840  104.8840   18.5580 C.ar   33  PHE33      -0.0000
     24  N         34.0790  107.6180   18.5700 N.3    36  VAL36      -0.1245
     25  CA        34.9150  107.2140   17.4430 C.3    36  VAL36       0.1561
     26  C         35.1090  108.4210   16.5210 C.2    36  VAL36       0.2260
     27  O         34.1440  109.1180   16.1850 O.2    36  VAL36      -0.2867
     28  CB        34.3170  105.9760   16.7090 C.3    36  VAL36       0.0252
     29  CG1       35.1940  105.5240   15.5650 C.3    36  VAL36       0.0019
     30  CG2       34.1690  104.8300   17.6760 C.3    36  VAL36       0.0019
     31  N         40.6780  105.3520   12.2360 N.3    49  ALA49      -0.1245
     32  CA        39.6170  105.6430   13.1520 C.3    49  ALA49       0.1562
     33  C         40.2960  105.6170   14.4860 C.2    49  ALA49       0.2260
     34  O         41.3200  104.9440   14.6480 O.2    49  ALA49      -0.2867
     35  CB        38.5500  104.6120   13.0800 C.3    49  ALA49       0.0290
     36  N         39.1520  105.3810   18.5180 N.3    51  LYS51      -0.1245
     37  CA        38.0690  105.2090   19.4700 C.3    51  LYS51       0.1561
     38  C         38.6080  105.6950   20.7890 C.2    51  LYS51       0.2260
     39  O         39.6340  105.1940   21.2610 O.2    51  LYS51      -0.2867
     40  CB        37.6710  103.7410   19.5170 C.3    51  LYS51       0.0271
     41  CG        36.6800  103.3410   20.5520 C.3    51  LYS51       0.0035
     42  CD        36.7070  101.8230   20.6180 C.3    51  LYS51       0.0206
     43  CE        35.7200  101.3200   21.6150 C.3    51  LYS51       0.1093
     44  NZ        35.3020   99.9440   21.2660 N.3    51  LYS51      -0.1314
     45  N         39.6080   95.6020   26.8540 N.3    63  GLU63      -0.1245
     46  CA        39.5900   95.8250   25.4220 C.3    63  GLU63       0.1567
     47  C         41.0150   95.9720   24.8940 C.2    63  GLU63       0.2260
     48  O         41.4060   95.3100   23.9270 O.2    63  GLU63      -0.2867
     49  CB        38.7570   97.0600   25.0860 C.3    63  GLU63       0.0388
     50  CG        38.7340   97.3790   23.6150 C.3    63  GLU63       0.1160
     51  CD        37.6350   98.3370   23.2370 C.2    63  GLU63       0.3649
     52  OE1       36.9230   98.8270   24.1480 O.co2  63  GLU63      -0.2457
     53  OE2       37.4770   98.5870   22.0140 O.co2  63  GLU63      -0.2457
     54  N         39.5100   94.6420   12.8520 N.3    76  VAL76      -0.1245
     55  CA        40.0500   95.9740   12.7710 C.3    76  VAL76       0.1561
     56  C         41.3060   95.9410   13.5950 C.2    76  VAL76       0.2260
     57  O         41.2580   95.6170   14.7810 O.2    76  VAL76      -0.2867
     58  CB        39.0310   97.0120   13.3150 C.3    76  VAL76       0.0252
     59  CG1       39.7150   98.2840   13.7180 C.3    76  VAL76       0.0019
     60  CG2       38.0430   97.2920   12.2690 C.3    76  VAL76       0.0019
     61  N         42.8070  102.8490   15.0870 N.3    92  LEU92      -0.1231
     62  CA        42.3910  101.6580   14.3770 C.3    92  LEU92       0.1693
     63  C         42.3950  101.8880   12.8840 C.2    92  LEU92       0.2592
     64  O         42.3630  103.0410   12.4320 O.2    92  LEU92      -0.2718
     65  CB        40.9470  101.3940   14.7730 C.3    92  LEU92       0.0284
     66  CG        40.7830  101.2790   16.2700 C.3    92  LEU92       0.0019
     67  CD1       39.3970  101.6620   16.6420 C.3    92  LEU92       0.0001
     68  CD2       41.1440   99.8670   16.7200 C.3    92  LEU92       0.0001
     69  N         42.3790  100.8080   12.1020 N.am   93  ASP93      -0.1960
     70  CA        42.1470  100.9550   10.6730 C.3    93  ASP93       0.1840
     71  C         40.8380  101.7110   10.5120 C.2    93  ASP93       0.2622
     72  O         39.9320  101.6220   11.3590 O.2    93  ASP93      -0.2715
     73  CB        41.9460   99.6130    9.9830 C.3    93  ASP93       0.1450
     74  CG        43.1610   98.7430    9.9910 C.2    93  ASP93       0.3671
     75  OD1       44.3090   99.2480    9.8230 O.co2  93  ASP93      -0.2456
     76  OD2       42.9330   97.5120   10.1370 O.co2  93  ASP93      -0.2456
     77  N         40.7270  102.4550    9.4220 N.am   94  TYR94      -0.1960
     78  CA        39.4450  103.0250    9.0670 C.3    94  TYR94       0.1771
     79  C         38.7650  102.0950    8.0620 C.2    94  TYR94       0.2619
     80  O         39.3980  101.5490    7.1550 O.2    94  TYR94      -0.2715
     81  CB        39.5940  104.4500    8.5180 C.3    94  TYR94       0.0574
     82  CG        38.2950  105.0040    8.0190 C.ar   94  TYR94      -0.0198
     83  CD1       37.4510  105.6930    8.8630 C.ar   94  TYR94      -0.0009
     84  CD2       37.8970  104.8170    6.7010 C.ar   94  TYR94      -0.0009
     85  CE1       36.2570  106.1850    8.4200 C.ar   94  TYR94       0.0417
     86  CE2       36.6980  105.3220    6.2370 C.ar   94  TYR94       0.0417
     87  CZ        35.8730  106.0010    7.1030 C.ar   94  TYR94       0.1957
     88  OH        34.6400  106.4960    6.6620 O.3    94  TYR94      -0.2866
     89  N         37.4680  101.9020    8.2470 N.am   95  VAL95      -0.1964
     90  CA        36.6800  101.1080    7.3380 C.3    95  VAL95       0.1712
     91  C         35.3950  101.9030    7.1840 C.2    95  VAL95       0.2458
     92  O         34.7180  102.1440    8.1610 O.2    95  VAL95      -0.2730
     93  CB        36.4080   99.6900    7.8960 C.3    95  VAL95       0.0289
     94  CG1       35.6560   98.8950    6.8930 C.3    95  VAL95       0.0023
     95  CG2       37.7290   98.9400    8.2230 C.3    95  VAL95       0.0023
     96  N         35.0540  102.3080    5.9640 N.am   96  PRO96      -0.2727
     97  CA        34.0040  103.3080    5.8250 C.3    96  PRO96       0.1402
     98  C         32.5650  102.8780    6.1900 C.2    96  PRO96       0.2269
     99  O         31.8630  103.6120    6.8680 O.2    96  PRO96      -0.2865
    100  CB        34.1060  103.7010    4.3440 C.3    96  PRO96       0.0296
    101  CG        34.5560  102.4500    3.6950 C.3    96  PRO96       0.0237
    102  CD        35.5840  101.8930    4.6580 C.3    96  PRO96       0.0939
    103  N         29.2040  100.1960    7.4650 N.3    98  THR98      -0.1218
    104  CA        28.8460   99.1210    8.4090 C.3    98  THR98       0.1862
    105  C         27.7140   98.2840    7.8080 C.2    98  THR98       0.2287
    106  O         26.9190   98.8230    6.9870 O.2    98  THR98      -0.2866
    107  CB        28.3430   99.6530    9.7680 C.3    98  THR98       0.1770
    108  OG1       26.9950  100.0880    9.6250 O.3    98  THR98      -0.2211
    109  CG2       29.1620  100.8090   10.2430 C.3    98  THR98       0.0375
    110  N         24.2550   99.9300    8.1580 N.3   101  ARG101     -0.1245
    111  CA        23.8170  100.9940    7.2420 C.3   101  ARG101      0.1563
    112  C         23.5510  100.4580    5.8530 C.2   101  ARG101      0.2260
    113  O         22.6030  100.8900    5.1680 O.2   101  ARG101     -0.2867
    114  CB        24.8600  102.0930    7.1480 C.3   101  ARG101      0.0307
    115  CG        25.3840  102.5130    8.4880 C.3   101  ARG101      0.0489
    116  CD        26.7000  103.2250    8.3180 C.3   101  ARG101      0.2205
    117  NE        26.5220  104.6670    8.3520 N.pl3 101  ARG101     -0.0865
    118  CZ        26.9090  105.5120    7.4110 C.cat 101  ARG101      0.5346
    119  NH1       27.5060  105.1020    6.3100 N.pl3 101  ARG101      0.1354
    120  NH2       26.7010  106.7950    7.5910 N.pl3 101  ARG101      0.1354
    121  N         28.4730   96.2800   14.3140 N.3   146  ASN146     -0.1240
    122  CA        29.8470   95.9400   14.6940 C.3   146  ASN146      0.1653
    123  C         30.5810   95.2210   13.5870 C.2   146  ASN146      0.2266
    124  O         31.6990   94.7430   13.7690 O.2   146  ASN146     -0.2867
    125  CB        29.9030   95.1980   16.0560 C.3   146  ASN146      0.1155
    126  CG        29.5390   96.1210   17.2380 C.2   146  ASN146      0.2627
    127  OD1       29.5540   97.3590   17.0990 O.2   146  ASN146     -0.2716
    128  ND2       29.1820   95.5260   18.3940 N.am  146  ASN146     -0.0877
    129  N         32.1510   96.0880   10.2170 N.3   148  LEU148     -0.1245
    130  CA        32.5300   97.1310    9.2630 C.3   148  LEU148      0.1561
    131  C         32.8000   96.5660    7.8700 C.2   148  LEU148      0.2260
    132  O         33.4060   95.5010    7.7320 O.2   148  LEU148     -0.2867
    133  CB        33.7410   97.8890    9.7710 C.3   148  LEU148      0.0270
    134  CG        33.6240   98.6390   11.0930 C.3   148  LEU148      0.0019
    135  CD1       34.9910   99.2130   11.4390 C.3   148  LEU148      0.0001
    136  CD2       32.6020   99.7500   11.0380 C.3   148  LEU148      0.0001
    137  N         34.5360   94.6460   14.6090 N.3   159  CYS159     -0.1221
    138  CA        35.1170   95.6520   15.4840 C.3   159  CYS159      0.1808
    139  C         34.4360   95.7620   16.8360 C.2   159  CYS159      0.2601
    140  O         33.4470   95.1280   17.0860 O.2   159  CYS159     -0.2717
    141  CB        35.0840   97.0100   14.7890 C.3   159  CYS159      0.0970
    142  SG        33.4270   97.7260   14.7060 S.3   159  CYS159     -0.0800
    143  N         34.9610   96.6170   17.7010 N.am  160  ASP160     -0.1973
    144  CA        34.3170   96.9250   18.9740 C.3   160  ASP160      0.1709
    145  C         34.3190   95.6940   19.8550 C.2   160  ASP160      0.2293
    146  O         33.4500   94.7950   19.7600 O.2   160  ASP160     -0.2864
    147  CB        32.9190   97.4830   18.7620 C.3   160  ASP160      0.1436
    148  CG        32.2320   97.8350   20.0550 C.2   160  ASP160      0.3671
    149  OD1       32.9140   97.9620   21.0950 O.co2 160  ASP160     -0.2456
    150  OD2       30.9840   97.9640   20.0190 O.co2 160  ASP160     -0.2456
@<TRIPOS>BOND
     1   101   100    1
     2   101   102    1
     3   100    97    1
     4   102    96    1
     5   113   112    2
     6    97    96    1
     7    97    98    1
     8   112   111    1
     9    96    91   am
    10    98    99    2
    11    86    84   ar
    12    86    87   ar
    13   119   118    1
    14    88    87    1
    15    84    82   ar
    16    94    93    1
    17   106   105    2
    18    87    85   ar
    19   114   111    1
    20   114   115    1
    21    80    79    2
    22    91    90    1
    23    91    92    2
    24   111   110    1
    25    90    93    1
    26    90    89    1
    27   118   120    1
    28   118   117    2
    29   103   104    1
    30   132   131    2
    31   105   104    1
    32   131   130    1
    33    93    95    1
    34    82    81    1
    35    82    83   ar
    36    79    89   am
    37    79    78    1
    38   116   117    1
    39   116   115    1
    40   104   107    1
    41    85    83   ar
    42    81    78    1
    43    78    77    1
    44   130   133    1
    45   130   129    1
    46    77    71   am
    47   108   107    1
    48   107   109    1
    49   133   134    1
    50    75    74   ar
    51    73    74    1
    52    73    70    1
    53    74    76   ar
    54    71    70    1
    55    71    72    2
    56    70    69    1
    57   136   134    1
    58   134   135    1
    59     7     5    1
    60     8     6    1
    61    69    63   am
    62    31    32    1
    63    60    58    1
    64     5     6    1
    65     5     2    1
    66    64    63    2
    67    55    54    1
    68    55    58    1
    69    55    56    1
    70    63    62    1
    71    35    32    1
    72    32    33    1
    73    58    59    1
    74     2     3    1
    75     2     1    1
    76   123   124    2
    77   123   122    1
    78    56    57    2
    79     4     3    2
    80     3     9   am
    81   121   122    1
    82    62    65    1
    83    62    61    1
    84    33    34    2
    85   137   138    1
    86   122   125    1
    87   142   141    1
    88    65    66    1
    89   141   138    1
    90     9    10    1
    91   138   139    1
    92    29    28    1
    93   125   126    1
    94    27    26    2
    95    10    11    1
    96    66    67    1
    97    66    68    1
    98    26    25    1
    99    28    25    1
   100    28    30    1
   101   139   140    2
   102   139   143   am
   103   127   126    2
   104   126   128   am
   105    25    24    1
   106    11    12    2
   107   143   144    1
   108    36    37    1
   109    23    22   ar
   110    23    21   ar
   111   147   144    1
   112   147   148    1
   113    22    20   ar
   114   144   145    1
   115    21    19   ar
   116    37    40    1
   117    37    38    1
   118    40    41    1
   119   146   145    2
   120    20    18   ar
   121   150   148   ar
   122   148   149   ar
   123    19    18   ar
   124    18    17    1
   125    41    42    1
   126    42    43    1
   127    38    39    2
   128    44    43    1
   129    17    14    1
   130    53    51   ar
   131    14    15    1
   132    14    13    1
   133    16    15    2
   134    51    50    1
   135    51    52   ar
   136    50    49    1
   137    48    47    2
   138    47    46    1
   139    49    46    1
   140    46    45    1
