@<TRIPOS>MOLECULE
tmp/3f88B01.pdb
 85 78 0 0 0
SMALL
GASTEIGER

@<TRIPOS>ATOM
      1  N         32.9610  110.7130   14.1910 N.3    28  ILE28      -0.1231
      2  CA        32.0490  109.9890   13.3530 C.3    28  ILE28       0.1692
      3  C         31.0300  109.2380   14.1400 C.2    28  ILE28       0.2592
      4  O         29.9440  108.9840   13.6400 O.2    28  ILE28      -0.2718
      5  CB        32.7470  109.1050   12.3110 C.3    28  ILE28       0.0266
      6  CG1       33.7640  108.1650   12.9360 C.3    28  ILE28       0.0019
      7  CG2       33.3560  109.9830   11.2280 C.3    28  ILE28       0.0020
      8  CD1       34.3840  107.1890   11.9360 C.3    28  ILE28       0.0001
      9  N         31.3640  108.8850   15.3680 N.am   29  GLY29      -0.1957
     10  CA        30.3910  108.2480   16.2640 C.3    29  GLY29       0.1869
     11  C         30.5190  108.7720   17.6730 C.2    29  GLY29       0.2309
     12  O         31.5450  109.3510   18.0420 O.2    29  GLY29      -0.2863
     13  N         29.6170  103.3640   23.3130 N.3    33  PHE33      -0.1241
     14  CA        30.9100  102.7940   23.0500 C.3    33  PHE33       0.1605
     15  C         31.9730  103.8320   23.2690 C.2    33  PHE33       0.2264
     16  O         33.1820  103.5440   23.2060 O.2    33  PHE33      -0.2867
     17  CB        30.9780  102.2280   21.6200 C.3    33  PHE33       0.0534
     18  CG        30.4490  103.1590   20.5490 C.ar   33  PHE33      -0.0203
     19  CD1       29.1250  103.1280   20.1840 C.ar   33  PHE33      -0.0042
     20  CD2       31.2930  104.0530   19.9000 C.ar   33  PHE33      -0.0042
     21  CE1       28.6350  103.9890   19.1930 C.ar   33  PHE33      -0.0003
     22  CE2       30.8040  104.9240   18.9200 C.ar   33  PHE33      -0.0003
     23  CZ        29.4840  104.8840   18.5580 C.ar   33  PHE33      -0.0000
     24  N         34.0790  107.6180   18.5700 N.3    36  VAL36      -0.1245
     25  CA        34.9150  107.2140   17.4430 C.3    36  VAL36       0.1561
     26  C         35.1090  108.4210   16.5210 C.2    36  VAL36       0.2260
     27  O         34.1440  109.1180   16.1850 O.2    36  VAL36      -0.2867
     28  CB        34.3170  105.9760   16.7090 C.3    36  VAL36       0.0252
     29  CG1       35.1940  105.5240   15.5650 C.3    36  VAL36       0.0019
     30  CG2       34.1690  104.8300   17.6760 C.3    36  VAL36       0.0019
     31  N         29.2040  100.1960    7.4650 N.3    98  THR98      -0.1218
     32  CA        28.8460   99.1210    8.4090 C.3    98  THR98       0.1862
     33  C         27.7140   98.2840    7.8080 C.2    98  THR98       0.2287
     34  O         26.9190   98.8230    6.9870 O.2    98  THR98      -0.2866
     35  CB        28.3430   99.6530    9.7680 C.3    98  THR98       0.1770
     36  OG1       26.9950  100.0880    9.6250 O.3    98  THR98      -0.2211
     37  CG2       29.1620  100.8090   10.2430 C.3    98  THR98       0.0375
     38  N         26.7390   91.9440   15.7850 N.3   143  LYS143     -0.1245
     39  CA        25.5660   92.7050   15.2790 C.3   143  LYS143      0.1561
     40  C         25.9160   93.6160   14.1450 C.2   143  LYS143      0.2260
     41  O         27.0510   94.1200   14.0930 O.2   143  LYS143     -0.2867
     42  CB        24.9070   93.6010   16.3130 C.3   143  LYS143      0.0271
     43  CG        25.7930   94.3580   17.1580 C.3   143  LYS143      0.0035
     44  CD        24.9100   95.4620   17.7750 C.3   143  LYS143      0.0206
     45  CE        25.7850   96.6540   18.1720 C.3   143  LYS143      0.1093
     46  NZ        25.2580   97.3070   19.4740 N.3   143  LYS143     -0.1314
     47  N         25.8160   96.7060   13.4940 N.3   145  GLN145     -0.1231
     48  CA        26.6870   97.8530   13.6780 C.3   145  GLN145      0.1698
     49  C         28.1490   97.5120   13.9390 C.2   145  GLN145      0.2592
     50  O         28.9840   98.3680   13.8260 O.2   145  GLN145     -0.2718
     51  CB        26.2060   98.8220   14.7700 C.3   145  GLN145      0.0381
     52  CG        24.8200   99.4040   14.5970 C.3   145  GLN145      0.0905
     53  CD        23.6830   98.5330   15.2320 C.2   145  GLN145      0.2608
     54  OE1       23.7300   97.2620   15.2380 O.2   145  GLN145     -0.2717
     55  NE2       22.6450   99.2330   15.7350 N.am  145  GLN145     -0.0878
     56  N         28.4730   96.2800   14.3140 N.am  146  ASN146     -0.1974
     57  CA        29.8470   95.9400   14.6940 C.3   146  ASN146      0.1688
     58  C         30.5810   95.2210   13.5870 C.2   146  ASN146      0.2292
     59  O         31.6990   94.7430   13.7690 O.2   146  ASN146     -0.2864
     60  CB        29.9030   95.1980   16.0560 C.3   146  ASN146      0.1181
     61  CG        29.5390   96.1210   17.2380 C.2   146  ASN146      0.2629
     62  OD1       29.5540   97.3590   17.0990 O.2   146  ASN146     -0.2716
     63  ND2       29.1820   95.5260   18.3940 N.am  146  ASN146     -0.0877
     64  N         32.1510   96.0880   10.2170 N.3   148  LEU148     -0.1245
     65  CA        32.5300   97.1310    9.2630 C.3   148  LEU148      0.1561
     66  C         32.8000   96.5660    7.8700 C.2   148  LEU148      0.2260
     67  O         33.4060   95.5010    7.7320 O.2   148  LEU148     -0.2867
     68  CB        33.7410   97.8890    9.7710 C.3   148  LEU148      0.0270
     69  CG        33.6240   98.6390   11.0930 C.3   148  LEU148      0.0019
     70  CD1       34.9910   99.2130   11.4390 C.3   148  LEU148      0.0001
     71  CD2       32.6020   99.7500   11.0380 C.3   148  LEU148      0.0001
     72  N         34.5360   94.6460   14.6090 N.3   159  CYS159     -0.1221
     73  CA        35.1170   95.6520   15.4840 C.3   159  CYS159      0.1808
     74  C         34.4360   95.7620   16.8360 C.2   159  CYS159      0.2601
     75  O         33.4470   95.1280   17.0860 O.2   159  CYS159     -0.2717
     76  CB        35.0840   97.0100   14.7890 C.3   159  CYS159      0.0970
     77  SG        33.4270   97.7260   14.7060 S.3   159  CYS159     -0.0800
     78  N         34.9610   96.6170   17.7010 N.am  160  ASP160     -0.1973
     79  CA        34.3170   96.9250   18.9740 C.3   160  ASP160      0.1709
     80  C         34.3190   95.6940   19.8550 C.2   160  ASP160      0.2293
     81  O         33.4500   94.7950   19.7600 O.2   160  ASP160     -0.2864
     82  CB        32.9190   97.4830   18.7620 C.3   160  ASP160      0.1436
     83  CG        32.2320   97.8350   20.0550 C.2   160  ASP160      0.3671
     84  OD1       32.9140   97.9620   21.0950 O.co2 160  ASP160     -0.2456
     85  OD2       30.9840   97.9640   20.0190 O.co2 160  ASP160     -0.2456
@<TRIPOS>BOND
     1    34    33    2
     2    31    32    1
     3    67    66    2
     4    33    32    1
     5    66    65    1
     6    32    35    1
     7    65    68    1
     8    65    64    1
     9    36    35    1
    10    35    37    1
    11    68    69    1
    12    71    69    1
    13    69    70    1
    14     7     5    1
    15     8     6    1
    16     5     6    1
    17     5     2    1
    18     2     3    1
    19     2     1    1
    20    47    48    1
    21    58    59    2
    22    58    57    1
    23     4     3    2
    24    48    49    1
    25    48    51    1
    26    50    49    2
    27    49    56   am
    28    41    40    2
    29     3     9   am
    30    40    39    1
    31    56    57    1
    32    52    51    1
    33    52    53    1
    34    72    73    1
    35    57    60    1
    36    77    76    1
    37    76    73    1
    38    53    54    2
    39    53    55   am
    40    39    38    1
    41    39    42    1
    42     9    10    1
    43    73    74    1
    44    29    28    1
    45    60    61    1
    46    27    26    2
    47    10    11    1
    48    42    43    1
    49    26    25    1
    50    28    25    1
    51    28    30    1
    52    74    75    2
    53    74    78   am
    54    62    61    2
    55    43    44    1
    56    61    63   am
    57    25    24    1
    58    11    12    2
    59    78    79    1
    60    44    45    1
    61    45    46    1
    62    23    22   ar
    63    23    21   ar
    64    82    79    1
    65    82    83    1
    66    22    20   ar
    67    79    80    1
    68    21    19   ar
    69    81    80    2
    70    20    18   ar
    71    85    83   ar
    72    83    84   ar
    73    19    18   ar
    74    18    17    1
    75    17    14    1
    76    14    15    1
    77    14    13    1
    78    16    15    2
