@<TRIPOS>MOLECULE
tmp/3f8aA01.pdb
 129 120 0 0 0
SMALL
GASTEIGER

@<TRIPOS>ATOM
      1  N        -29.9790   23.4290    8.7470 N.3     9  ILE9       -0.1245
      2  CA       -30.2680   22.3140    9.6490 C.3     9  ILE9        0.1561
      3  C        -31.2660   22.7230   10.7360 C.2     9  ILE9        0.2260
      4  O        -31.1350   23.7850   11.3210 O.2     9  ILE9       -0.2867
      5  CB       -28.9490   21.7820   10.2510 C.3     9  ILE9        0.0252
      6  CG1      -29.1700   20.5210   11.0710 C.3     9  ILE9        0.0019
      7  CG2      -28.2450   22.8760   11.0650 C.3     9  ILE9        0.0019
      8  CD1      -27.8740   19.8230   11.4240 C.3     9  ILE9        0.0001
      9  N        -25.2110   13.1390   17.1280 N.3    15  PHE15      -0.1241
     10  CA       -23.9520   13.5690   16.5240 C.3    15  PHE15       0.1605
     11  C        -22.7170   13.4740   17.4420 C.2    15  PHE15       0.2264
     12  O        -21.6770   12.9720   17.0350 O.2    15  PHE15      -0.2867
     13  CB       -24.0460   14.9820   15.9200 C.3    15  PHE15       0.0534
     14  CG       -22.8560   15.3490   15.1030 C.ar   15  PHE15      -0.0203
     15  CD1      -22.4540   14.5430   14.0470 C.ar   15  PHE15      -0.0042
     16  CD2      -22.1390   16.5000   15.3740 C.ar   15  PHE15      -0.0042
     17  CE1      -21.3550   14.8760   13.2800 C.ar   15  PHE15      -0.0003
     18  CE2      -21.0320   16.8180   14.6390 C.ar   15  PHE15      -0.0003
     19  CZ       -20.6360   16.0200   13.5850 C.ar   15  PHE15      -0.0000
     20  N        -19.2720   11.1190   16.7870 N.3    19  LEU19      -0.1245
     21  CA       -17.8690   11.5580   16.8520 C.3    19  LEU19       0.1561
     22  C        -17.0910   10.7780   17.9150 C.2    19  LEU19       0.2260
     23  O        -15.8990   10.5580   17.7750 O.2    19  LEU19      -0.2867
     24  CB       -17.7590   13.0560   17.1680 C.3    19  LEU19       0.0270
     25  CG       -18.4000   13.9950   16.1340 C.3    19  LEU19       0.0019
     26  CD1      -18.3340   15.4410   16.6250 C.3    19  LEU19       0.0001
     27  CD2      -17.7630   13.7930   14.7410 C.3    19  LEU19       0.0001
     28  N        -12.9880   18.7600   20.5350 N.3    28  LEU28      -0.1245
     29  CA       -13.6630   19.0440   19.2550 C.3    28  LEU28       0.1561
     30  C        -15.1060   18.5700   19.3240 C.2    28  LEU28       0.2260
     31  O        -16.0100   19.1460   18.6790 O.2    28  LEU28      -0.2867
     32  CB       -12.9210   18.3380   18.0920 C.3    28  LEU28       0.0270
     33  CG       -13.5200   18.4970   16.6780 C.3    28  LEU28       0.0019
     34  CD1      -13.7140   19.9690   16.3560 C.3    28  LEU28       0.0001
     35  CD2      -12.6100   17.8160   15.6040 C.3    28  LEU28       0.0001
     36  N        -17.2320   21.3790   20.7390 N.3    31  ILE31      -0.1231
     37  CA       -17.2330   22.4620   19.7550 C.3    31  ILE31       0.1692
     38  C        -18.1440   22.1290   18.5770 C.2    31  ILE31       0.2591
     39  O        -18.8850   22.9730   18.0580 O.2    31  ILE31      -0.2718
     40  CB       -15.7930   22.6320   19.2190 C.3    31  ILE31       0.0266
     41  CG1      -14.8850   23.1570   20.3420 C.3    31  ILE31       0.0019
     42  CG2      -15.7600   23.5220   17.9570 C.3    31  ILE31       0.0020
     43  CD1      -13.4160   23.2110   19.9620 C.3    31  ILE31       0.0001
     44  N        -18.0660   20.8730   18.1450 N.am   32  ALA32      -0.1980
     45  CA       -18.7880   20.4410   16.9530 C.3    32  ALA32       0.1597
     46  C        -20.2950   20.4890   17.1250 C.2    32  ALA32       0.2287
     47  O        -21.0170   20.7540   16.1470 O.2    32  ALA32      -0.2864
     48  CB       -18.3320   19.0580   16.5440 C.3    32  ALA32       0.0319
     49  N        -21.3900   25.9320   15.2010 N.3    37  SER37      -0.1202
     50  CA       -20.6930   25.1080   14.2080 C.3    37  SER37       0.2020
     51  C        -21.6470   24.4670   13.1900 C.2    37  SER37       0.2619
     52  O        -21.2310   23.6030   12.4070 O.2    37  SER37      -0.2717
     53  CB       -19.8360   24.0320   14.8880 C.3    37  SER37       0.2103
     54  OG       -18.9520   24.5950   15.8320 O.3    37  SER37      -0.2182
     55  N        -22.9080   24.9100   13.1840 N.am   38  LYS38      -0.1966
     56  CA       -23.9390   24.3420   12.3020 C.3    38  LYS38       0.1713
     57  C        -23.5030   24.4390   10.8480 C.2    38  LYS38       0.2458
     58  O        -23.0240   25.4860   10.4210 O.2    38  LYS38      -0.2730
     59  CB       -25.2770   25.0830   12.4760 C.3    38  LYS38       0.0311
     60  CG       -26.1660   24.5810   13.6250 C.3    38  LYS38       0.0038
     61  CD       -27.3920   25.5060   13.7640 C.3    38  LYS38       0.0206
     62  CE       -28.1380   25.3270   15.0880 C.3    38  LYS38       0.1093
     63  NZ       -29.4350   26.0940   15.0990 N.3    38  LYS38      -0.1314
     64  N        -23.6250   23.3420   10.0910 N.am   39  PRO39      -0.2727
     65  CA       -23.2100   23.4030    8.6870 C.3    39  PRO39       0.1402
     66  C        -24.2840   23.9240    7.7460 C.2    39  PRO39       0.2269
     67  O        -25.4350   23.5090    7.8170 O.2    39  PRO39      -0.2865
     68  CB       -22.8610   21.9530    8.3620 C.3    39  PRO39       0.0296
     69  CG       -23.7510   21.1490    9.2640 C.3    39  PRO39       0.0237
     70  CD       -24.0310   21.9850   10.4990 C.3    39  PRO39       0.0939
     71  N        -20.1760   22.1310    1.8420 N.3    54  THR54      -0.1218
     72  CA       -20.5250   22.2660    3.2480 C.3    54  THR54       0.1862
     73  C        -19.6600   23.3800    3.8440 C.2    54  THR54       0.2287
     74  O        -18.4430   23.3910    3.6540 O.2    54  THR54      -0.2866
     75  CB       -20.2510   20.9540    4.0230 C.3    54  THR54       0.1770
     76  OG1      -20.9180   19.8690    3.3910 O.3    54  THR54      -0.2211
     77  CG2      -20.7450   21.0600    5.4710 C.3    54  THR54       0.0375
     78  N        -18.9040   25.7390    7.4230 N.3    56  THR56      -0.1218
     79  CA       -19.0960   26.0900    8.8110 C.3    56  THR56       0.1862
     80  C        -18.3200   27.3900    9.0670 C.2    56  THR56       0.2287
     81  O        -17.9830   28.1010    8.1120 O.2    56  THR56      -0.2866
     82  CB       -18.6410   24.9440    9.7140 C.3    56  THR56       0.1770
     83  OG1      -17.3040   24.5730    9.3690 O.3    56  THR56      -0.2211
     84  CG2      -19.5330   23.7200    9.4810 C.3    56  THR56       0.0375
     85  N        -14.4830   26.5490    7.9260 N.3    59  TRP59      -0.1241
     86  CA       -14.1910   25.4740    6.9920 C.3    59  TRP59       0.1605
     87  C        -15.2370   25.4580    5.8830 C.2    59  TRP59       0.2264
     88  O        -16.4110   25.6720    6.1520 O.2    59  TRP59      -0.2867
     89  CB       -14.3150   24.1180    7.7070 C.3    59  TRP59       0.0550
     90  CG       -13.1220   23.7130    8.4890 C.ar   59  TRP59       0.0003
     91  CD1      -12.9840   23.7340    9.8550 C.ar   59  TRP59       0.0946
     92  CD2      -11.8980   23.1730    7.9650 C.ar   59  TRP59       0.0152
     93  NE1      -11.7420   23.2490   10.2060 N.ar   59  TRP59      -0.2442
     94  CE2      -11.0520   22.9150    9.0640 C.ar   59  TRP59       0.0810
     95  CE3      -11.4370   22.8960    6.6780 C.ar   59  TRP59       0.0012
     96  CZ2       -9.7740   22.3830    8.9090 C.ar   59  TRP59       0.0191
     97  CZ3      -10.1620   22.3880    6.5170 C.ar   59  TRP59       0.0001
     98  CH2       -9.3360   22.1420    7.6270 C.ar   59  TRP59       0.0015
     99  N        -15.9270   22.8770    2.4630 N.3    61  THR61      -0.1218
    100  CA       -15.4620   21.7950    1.6090 C.3    61  THR61       0.1862
    101  C        -16.5060   21.4770    0.5230 C.2    61  THR61       0.2287
    102  O        -17.6890   21.8270    0.6500 O.2    61  THR61      -0.2866
    103  CB       -15.0870   20.5650    2.4360 C.3    61  THR61       0.1770
    104  OG1      -16.1450   20.3020    3.3340 O.3    61  THR61      -0.2211
    105  CG2      -13.8330   20.8820    3.3100 C.3    61  THR61       0.0375
    106  N        -16.3800   11.4210    8.3400 N.3    76  VAL76      -0.1245
    107  CA       -16.7950   12.5700    9.1200 C.3    76  VAL76       0.1561
    108  C        -15.6560   13.1060    9.9970 C.2    76  VAL76       0.2260
    109  O        -15.5570   14.2990   10.2160 O.2    76  VAL76      -0.2867
    110  CB       -18.0600   12.2860    9.9440 C.3    76  VAL76       0.0252
    111  CG1      -19.1030   11.5780    9.0920 C.3    76  VAL76       0.0019
    112  CG2      -17.7220   11.4730   11.1520 C.3    76  VAL76       0.0019
    113  N        -25.8650    9.4680    9.2160 N.3   123  MET123     -0.1245
    114  CA       -24.4520    9.1280    9.1730 C.3   123  MET123      0.1570
    115  C        -24.3040    8.0190   10.2140 C.2   123  MET123      0.2261
    116  O        -24.8420    8.1280   11.2960 O.2   123  MET123     -0.2867
    117  CB       -23.5840   10.3290    9.5680 C.3   123  MET123      0.0387
    118  CG       -23.3500   11.3780    8.4630 C.3   123  MET123      0.0595
    119  SD       -22.5690   12.8930    9.0810 S.3   123  MET123     -0.1393
    120  CE       -23.8810   13.3640   10.1870 C.3   123  MET123      0.0692
    121  N        -29.8330   13.9300   10.9030 N.3   132  LYS132     -0.1245
    122  CA       -29.9830   15.3600   10.7790 C.3   132  LYS132      0.1561
    123  C        -31.1160   15.6790    9.8290 C.2   132  LYS132      0.2260
    124  O        -31.3580   14.9470    8.8970 O.2   132  LYS132     -0.2867
    125  CB       -28.6780   15.9590   10.2780 C.3   132  LYS132      0.0271
    126  CG       -27.6300   16.0110   11.3800 C.3   132  LYS132      0.0035
    127  CD       -26.2640   16.4170   10.8500 C.3   132  LYS132      0.0206
    128  CE       -25.3240   16.8200   11.9780 C.3   132  LYS132      0.1093
    129  NZ       -24.0100   17.0320   11.3910 N.3   132  LYS132     -0.1314
@<TRIPOS>BOND
     1   101   102    2
     2   101   100    1
     3   100   103    1
     4   100    99    1
     5    71    72    1
     6   103   105    1
     7   103   104    1
     8    72    73    1
     9    72    75    1
    10    76    75    1
    11    74    73    2
    12    75    77    1
    13    87    88    2
    14    87    86    1
    15    97    95   ar
    16    97    98   ar
    17    95    92   ar
    18    86    89    1
    19    86    85    1
    20    78    79    1
    21    98    96   ar
    22    89    90    1
    23    66    67    2
    24    66    65    1
    25    92    90   ar
    26    92    94   ar
    27    81    80    2
    28   106   107    1
    29    68    65    1
    30    68    69    1
    31   118   119    1
    32   118   117    1
    33    90    91   ar
    34    65    64    1
    35     1     2    1
    36    79    80    1
    37    79    82    1
    38   124   123    2
    39    96    94   ar
    40    94    93   ar
    41   119   120    1
    42   111   110    1
    43   107   110    1
    44   107   108    1
    45   114   113    1
    46   114   117    1
    47   114   115    1
    48    69    70    1
    49    83    82    1
    50    84    82    1
    51     2     5    1
    52     2     3    1
    53   123   122    1
    54    91    93   ar
    55   110   112    1
    56   108   109    2
    57    64    70    1
    58    64    57   am
    59   115   116    2
    60     5     7    1
    61     5     6    1
    62   125   122    1
    63   125   126    1
    64    58    57    2
    65     3     4    2
    66   122   121    1
    67    57    56    1
    68   127   126    1
    69   127   128    1
    70     6     8    1
    71   129   128    1
    72    56    59    1
    73    56    55    1
    74    52    51    2
    75    59    60    1
    76    55    51   am
    77    51    50    1
    78    17    19   ar
    79    17    15   ar
    80    19    18   ar
    81    60    61    1
    82    61    62    1
    83    15    14   ar
    84    50    53    1
    85    50    49    1
    86    18    16   ar
    87    27    25    1
    88    53    54    1
    89    62    63    1
    90    14    16   ar
    91    14    13    1
    92    35    33    1
    93    13    10    1
    94    25    26    1
    95    25    24    1
    96    47    46    2
    97    34    33    1
    98    10     9    1
    99    10    11    1
   100    48    45    1
   101    33    32    1
   102    20    21    1
   103    21    24    1
   104    21    22    1
   105    45    46    1
   106    45    44    1
   107    12    11    2
   108    23    22    2
   109    42    40    1
   110    39    38    2
   111    32    29    1
   112    44    38   am
   113    38    37    1
   114    31    30    2
   115    40    37    1
   116    40    41    1
   117    29    30    1
   118    29    28    1
   119    37    36    1
   120    43    41    1
