@<TRIPOS>MOLECULE
tmp/3f8cA00.pdb
 106 99 0 0 0
SMALL
GASTEIGER

@<TRIPOS>ATOM
      1  N         -2.6710  -10.8110   -1.7650 N.3     6  MET6       -0.1245
      2  CA        -1.8770   -9.5720   -1.7590 C.3     6  MET6        0.1570
      3  C         -0.9380   -9.4850   -2.9820 C.2     6  MET6        0.2261
      4  O         -0.7140   -8.3930   -3.5410 O.2     6  MET6       -0.2867
      5  CB        -1.0760   -9.4330   -0.4590 C.3     6  MET6        0.0387
      6  CG        -0.3690   -8.0920   -0.3220 C.3     6  MET6        0.0595
      7  SD         0.6140   -7.9430    1.1870 S.3     6  MET6       -0.1393
      8  CE        -0.6780   -7.8210    2.4130 C.3     6  MET6        0.0692
      9  N         -3.0210   -8.5390   -5.7850 N.3     9  ALA9       -0.1245
     10  CA        -3.3430   -7.1190   -5.7010 C.3     9  ALA9        0.1562
     11  C         -2.1670   -6.2850   -6.2200 C.2     9  ALA9        0.2260
     12  O         -2.3580   -5.2990   -6.9140 O.2     9  ALA9       -0.2867
     13  CB        -3.6930   -6.7210   -4.2420 C.3     9  ALA9        0.0290
     14  N         -2.0100   -6.4640   -9.9480 N.3    12  ASN12      -0.1225
     15  CA        -3.0570   -5.5730  -10.4600 C.3    12  ASN12       0.1785
     16  C         -2.6200   -4.1160  -10.4640 C.2    12  ASN12       0.2597
     17  O         -2.8120   -3.4010  -11.4450 O.2    12  ASN12      -0.2718
     18  CB        -4.3080   -5.6830   -9.6030 C.3    12  ASN12       0.1169
     19  CG        -5.2180   -6.7510  -10.0660 C.2    12  ASN12       0.2627
     20  OD1       -5.0280   -7.3110  -11.1270 O.2    12  ASN12      -0.2716
     21  ND2       -6.2300   -7.0490   -9.2710 N.am   12  ASN12      -0.0877
     22  N         -2.0810   -3.6710   -9.3280 N.am   13  VAL13      -0.1980
     23  CA        -1.6640   -2.2950   -9.1650 C.3    13  VAL13       0.1595
     24  C         -0.5520   -1.9280  -10.1580 C.2    13  VAL13       0.2287
     25  O         -0.5180   -0.8190  -10.6950 O.2    13  VAL13      -0.2864
     26  CB        -1.1960   -2.0460   -7.7230 C.3    13  VAL13       0.0276
     27  CG1       -0.4560   -0.7180   -7.6070 C.3    13  VAL13       0.0022
     28  CG2       -2.4230   -2.1200   -6.7390 C.3    13  VAL13       0.0022
     29  N         -2.2150   -1.7170  -13.6980 N.3    16  LEU16      -0.1245
     30  CA        -3.0370   -0.5200  -13.8090 C.3    16  LEU16       0.1561
     31  C         -2.1630    0.7190  -13.9410 C.2    16  LEU16       0.2260
     32  O         -2.5490    1.6890  -14.5970 O.2    16  LEU16      -0.2867
     33  CB        -3.9920   -0.3860  -12.6140 C.3    16  LEU16       0.0270
     34  CG        -5.0900   -1.4620  -12.5870 C.3    16  LEU16       0.0019
     35  CD1       -5.8500   -1.3980  -11.2700 C.3    16  LEU16       0.0001
     36  CD2       -6.0440   -1.2910  -13.7500 C.3    16  LEU16       0.0001
     37  N        -10.8900   -7.1680  -14.7060 N.3    55  LEU55      -0.1245
     38  CA       -10.8100   -5.6920  -14.5600 C.3    55  LEU55       0.1561
     39  C        -11.8030   -5.0300  -15.4790 C.2    55  LEU55       0.2260
     40  O        -12.3950   -4.0180  -15.1460 O.2    55  LEU55      -0.2867
     41  CB        -9.3910   -5.1870  -14.8720 C.3    55  LEU55       0.0270
     42  CG        -8.3480   -5.5010  -13.8160 C.3    55  LEU55       0.0019
     43  CD1       -6.9930   -4.9970  -14.2820 C.3    55  LEU55       0.0001
     44  CD2       -8.7640   -4.8100  -12.4970 C.3    55  LEU55       0.0001
     45  N        -13.0820   -1.3030  -14.8250 N.3    60  ILE60      -0.1245
     46  CA       -11.8250   -0.5990  -14.4470 C.3    60  ILE60       0.1561
     47  C        -10.9690   -0.2640  -15.6960 C.2    60  ILE60       0.2260
     48  O        -10.2870    0.7560  -15.7370 O.2    60  ILE60      -0.2867
     49  CB       -10.9890   -1.4210  -13.4220 C.3    60  ILE60       0.0252
     50  CG1      -11.8060   -1.6700  -12.1600 C.3    60  ILE60       0.0019
     51  CG2       -9.6650   -0.6720  -13.0340 C.3    60  ILE60       0.0019
     52  CD1      -12.2390   -0.4030  -11.4840 C.3    60  ILE60       0.0001
     53  N        -10.8250    5.2130   -8.9880 N.3    83  ASN83      -0.1225
     54  CA       -10.5330    4.1730   -7.9910 C.3    83  ASN83       0.1785
     55  C         -9.0810    4.1330   -7.6140 C.2    83  ASN83       0.2597
     56  O         -8.7460    4.0210   -6.4420 O.2    83  ASN83      -0.2718
     57  CB       -10.9810    2.8030   -8.4870 C.3    83  ASN83       0.1169
     58  CG       -12.4630    2.6350   -8.4170 C.2    83  ASN83       0.2627
     59  OD1      -13.1430    3.4120   -7.7570 O.2    83  ASN83      -0.2716
     60  ND2      -12.9880    1.6250   -9.1040 N.am   83  ASN83      -0.0877
     61  N         -8.2020    4.2050   -8.6110 N.am   84  MET84      -0.1979
     62  CA        -6.7600    4.2980   -8.3350 C.3    84  MET84       0.1605
     63  C         -6.4220    5.5450   -7.5370 C.2    84  MET84       0.2287
     64  O         -5.5860    5.5080   -6.6240 O.2    84  MET84      -0.2864
     65  CB        -5.9660    4.3230   -9.6210 C.3    84  MET84       0.0413
     66  CG        -5.9840    3.0300  -10.3870 C.3    84  MET84       0.0598
     67  SD        -4.8030    3.1410  -11.7430 S.3    84  MET84      -0.1393
     68  CE        -3.2710    2.7160  -10.8570 C.3    84  MET84       0.0692
     69  N         -7.6880    5.0110   -3.9220 N.3    87  ALA87      -0.1231
     70  CA        -6.8120    4.0280   -3.2770 C.3    87  ALA87       0.1694
     71  C         -5.4630    4.6600   -2.9420 C.2    87  ALA87       0.2592
     72  O         -4.9380    4.4840   -1.8520 O.2    87  ALA87      -0.2718
     73  CB        -6.6180    2.7900   -4.1750 C.3    87  ALA87       0.0304
     74  N         -4.9010    5.3850   -3.8920 N.am   88  PHE88      -0.1976
     75  CA        -3.6010    6.0210   -3.6880 C.3    88  PHE88       0.1639
     76  C         -3.6690    7.0740   -2.5830 C.2    88  PHE88       0.2290
     77  O         -2.7840    7.1650   -1.7350 O.2    88  PHE88      -0.2864
     78  CB        -3.1380    6.6850   -4.9720 C.3    88  PHE88       0.0560
     79  CG        -1.8570    7.4310   -4.8290 C.ar   88  PHE88      -0.0200
     80  CD1       -0.6470    6.7490   -4.7910 C.ar   88  PHE88      -0.0042
     81  CD2       -1.8520    8.8230   -4.7200 C.ar   88  PHE88      -0.0042
     82  CE1        0.5540    7.4420   -4.6500 C.ar   88  PHE88      -0.0003
     83  CE2       -0.6540    9.5250   -4.5750 C.ar   88  PHE88      -0.0003
     84  CZ         0.5460    8.8410   -4.5430 C.ar   88  PHE88      -0.0000
     85  N         -4.1920    5.3340    0.9640 N.3    91  TRP91      -0.1241
     86  CA        -2.9520    4.6960    1.4200 C.3    91  TRP91       0.1605
     87  C         -1.8060    5.6830    1.7270 C.2    91  TRP91       0.2264
     88  O         -0.9430    5.3910    2.5430 O.2    91  TRP91      -0.2867
     89  CB        -2.4890    3.6060    0.4430 C.3    91  TRP91       0.0550
     90  CG        -3.2700    2.3280    0.5740 C.ar   91  TRP91       0.0003
     91  CD1       -4.1690    1.8410   -0.3050 C.ar   91  TRP91       0.0946
     92  CD2       -3.2080    1.3750    1.6670 C.ar   91  TRP91       0.0152
     93  NE1       -4.6800    0.6390    0.1520 N.ar   91  TRP91      -0.2442
     94  CE2       -4.1030    0.3360    1.3610 C.ar   91  TRP91       0.0810
     95  CE3       -2.4600    1.2980    2.8550 C.ar   91  TRP91       0.0012
     96  CZ2       -4.2880   -0.7790    2.2040 C.ar   91  TRP91       0.0191
     97  CZ3       -2.6500    0.2010    3.6990 C.ar   91  TRP91       0.0001
     98  CH2       -3.5610   -0.8190    3.3700 C.ar   91  TRP91       0.0015
     99  N          0.0280    6.1460    5.2950 N.3    95  ASP95      -0.1239
    100  CA         1.4640    6.4130    5.4290 C.3    95  ASP95       0.1674
    101  C          1.7440    7.6120    6.3350 C.2    95  ASP95       0.2266
    102  O          2.7010    7.6060    7.1160 O.2    95  ASP95      -0.2867
    103  CB         2.0860    6.6980    4.0520 C.3    95  ASP95       0.1410
    104  CG         2.2640    5.4570    3.2290 C.2    95  ASP95       0.3668
    105  OD1        2.4560    4.3750    3.8230 O.co2  95  ASP95      -0.2456
    106  OD2        2.2190    5.5580    1.9810 O.co2  95  ASP95      -0.2456
@<TRIPOS>BOND
     1    48    47    2
     2    47    46    1
     3    39    40    2
     4    39    38    1
     5    41    38    1
     6    41    42    1
     7    45    46    1
     8    37    38    1
     9    32    31    2
    10    46    49    1
    11    43    42    1
    12    31    30    1
    13    42    44    1
    14    30    29    1
    15    30    33    1
    16    36    34    1
    17    49    51    1
    18    49    50    1
    19    33    34    1
    20    34    35    1
    21    50    52    1
    22    67    68    1
    23    67    66    1
    24    17    16    2
    25    20    19    2
    26    25    24    2
    27    16    15    1
    28    16    22   am
    29    15    14    1
    30    15    18    1
    31    66    65    1
    32    24    23    1
    33    19    18    1
    34    19    21   am
    35    65    62    1
    36    22    23    1
    37    23    26    1
    38    60    58   am
    39    53    54    1
    40    61    62    1
    41    61    55   am
    42    57    58    1
    43    57    54    1
    44    58    59    2
    45    62    63    1
    46    54    55    1
    47    26    27    1
    48    26    28    1
    49    55    56    2
    50    63    64    2
    51    12    11    2
    52    11    10    1
    53     9    10    1
    54    10    13    1
    55    78    79    1
    56    78    75    1
    57    79    80   ar
    58    79    81   ar
    59    80    82   ar
    60    81    83   ar
    61    82    84   ar
    62    83    84   ar
    63    73    70    1
    64    69    70    1
    65    74    75    1
    66    74    71   am
    67    75    76    1
    68     4     3    2
    69    70    71    1
    70     3     2    1
    71    71    72    2
    72    76    77    2
    73     1     2    1
    74     2     5    1
    75     5     6    1
    76     6     7    1
    77    91    93   ar
    78    91    90   ar
    79    93    94   ar
    80    89    90    1
    81    89    86    1
    82    90    92   ar
    83    85    86    1
    84     7     8    1
    85    94    92   ar
    86    94    96   ar
    87    86    87    1
    88    92    95   ar
    89    87    88    2
    90   106   104   ar
    91    96    98   ar
    92    95    97   ar
    93   104   105   ar
    94   104   103    1
    95    98    97   ar
    96   103   100    1
    97    99   100    1
    98   100   101    1
    99   101   102    2
