@<TRIPOS>MOLECULE
tmp/3f8eA00.pdb
 148 140 0 0 0
SMALL
GASTEIGER

@<TRIPOS>ATOM
      1  N          8.2100   -0.5820   10.4010 N.3     2  TRP2       -0.1241
      2  CA         7.4780   -1.5190   11.2510 C.3     2  TRP2        0.1605
      3  C          6.4890   -2.3620   10.4580 C.2     2  TRP2        0.2264
      4  O          5.8720   -1.8820    9.5030 O.2     2  TRP2       -0.2867
      5  CB         6.7730   -0.7900   12.4050 C.3     2  TRP2        0.0550
      6  CG         5.5090   -0.0530   12.0260 C.ar    2  TRP2        0.0003
      7  CD1        5.3950    1.2780   11.7090 C.ar    2  TRP2        0.0946
      8  CD2        4.1730   -0.6000   11.9390 C.ar    2  TRP2        0.0152
      9  NE1        4.0860    1.5810   11.4200 N.ar    2  TRP2       -0.2442
     10  CE2        3.3150    0.4540   11.5580 C.ar    2  TRP2        0.0810
     11  CE3        3.6250   -1.8760   12.1440 C.ar    2  TRP2        0.0012
     12  CZ2        1.9310    0.2760   11.3770 C.ar    2  TRP2        0.0191
     13  CZ3        2.2410   -2.0580   11.9490 C.ar    2  TRP2        0.0001
     14  CH2        1.4150   -0.9840   11.5790 C.ar    2  TRP2        0.0015
     15  N        -13.9060    6.4430    1.5410 N.3    55  ARG55      -0.1245
     16  CA       -13.0970    5.4660    0.8210 C.3    55  ARG55       0.1563
     17  C        -12.4250    4.3750    1.6610 C.2    55  ARG55       0.2260
     18  O        -12.4220    4.4120    2.8980 O.2    55  ARG55      -0.2867
     19  CB       -12.0780    6.1370   -0.1110 C.3    55  ARG55       0.0307
     20  CG       -11.2390    7.1850    0.5010 C.3    55  ARG55       0.0489
     21  CD        -9.8800    7.2420   -0.1980 C.3    55  ARG55       0.2205
     22  NE        -8.8330    7.2540    0.8160 N.pl3  55  ARG55      -0.0865
     23  CZ        -7.5440    7.4920    0.6080 C.cat  55  ARG55       0.5346
     24  NH1       -7.0740    7.7760   -0.6080 N.pl3  55  ARG55       0.1354
     25  NH2       -6.7250    7.4550    1.6450 N.pl3  55  ARG55       0.1354
     26  N         -8.8090    2.0650    1.9650 N.3    57  LEU57      -0.1245
     27  CA        -7.3970    2.1410    1.6840 C.3    57  LEU57       0.1561
     28  C         -6.6520    0.9410    2.2760 C.2    57  LEU57       0.2260
     29  O         -6.7940    0.6540    3.4730 O.2    57  LEU57      -0.2867
     30  CB        -6.8290    3.4580    2.2610 C.3    57  LEU57       0.0270
     31  CG        -5.2950    3.5880    2.3910 C.3    57  LEU57       0.0019
     32  CD1       -4.6230    3.6840    1.0330 C.3    57  LEU57       0.0001
     33  CD2       -4.8750    4.7450    3.2970 C.3    57  LEU57       0.0001
     34  N         -3.2660    0.2430    3.5260 N.3    59  ASN59      -0.1240
     35  CA        -2.1640    1.0820    3.9970 C.3    59  ASN59       0.1653
     36  C         -0.8760    0.3060    4.2520 C.2    59  ASN59       0.2266
     37  O          0.0510    0.8230    4.8710 O.2    59  ASN59      -0.2867
     38  CB        -2.5820    1.8740    5.2370 C.3    59  ASN59       0.1155
     39  CG        -2.9480    0.9850    6.4040 C.2    59  ASN59       0.2627
     40  OD1       -2.5520   -0.1860    6.4640 O.2    59  ASN59      -0.2716
     41  ND2       -3.7040    1.5410    7.3520 N.am   59  ASN59      -0.0877
     42  N         -0.5640   -2.4100    6.0670 N.3    61  HIS61      -0.1226
     43  CA        -0.6610   -3.2140    7.2960 C.3    61  HIS61       0.1752
     44  C         -2.1000   -3.6930    7.5750 C.2    61  HIS61       0.2595
     45  O         -2.3070   -4.7700    8.1380 O.2    61  HIS61      -0.2718
     46  CB        -0.0120   -2.5170    8.5050 C.3    61  HIS61       0.0759
     47  CG        -0.7120   -1.2750    8.9540 C.ar   61  HIS61       0.0818
     48  ND1       -0.2000   -0.0120    8.7420 N.ar   61  HIS61      -0.2268
     49  CD2       -1.8680   -1.1010    9.6410 C.ar   61  HIS61       0.1154
     50  CE1       -1.0160    0.8860    9.2640 C.ar   61  HIS61       0.1986
     51  NE2       -2.0360    0.2510    9.8190 N.ar   61  HIS61      -0.2212
     52  N         -3.0770   -2.9010    7.1500 N.am   62  ALA62      -0.1980
     53  CA        -4.4810   -3.2870    7.1820 C.3    62  ALA62       0.1597
     54  C         -5.2180   -2.4810    6.1170 C.2    62  ALA62       0.2287
     55  O         -4.5820   -1.8580    5.2590 O.2    62  ALA62      -0.2864
     56  CB        -5.0810   -3.0510    8.5720 C.3    62  ALA62       0.0319
     57  N         -8.1930    0.5990    5.8930 N.3    64  ASN64      -0.1240
     58  CA        -9.0120    1.5690    6.5990 C.3    64  ASN64       0.1653
     59  C        -10.2020    1.9740    5.7390 C.2    64  ASN64       0.2266
     60  O        -10.0320    2.3440    4.5640 O.2    64  ASN64      -0.2867
     61  CB        -8.2060    2.8210    6.9540 C.3    64  ASN64       0.1155
     62  CG        -7.0020    2.5320    7.8430 C.2    64  ASN64       0.2627
     63  OD1       -6.0200    3.2650    7.8060 O.2    64  ASN64      -0.2716
     64  ND2       -7.0610    1.4590    8.6180 N.am   64  ASN64      -0.0877
     65  N        -12.5820    4.9020    5.6710 N.3    66  GLU66      -0.1245
     66  CA       -12.5010    6.2590    6.2040 C.3    66  GLU66       0.1567
     67  C        -13.8220    6.9850    6.0630 C.2    66  GLU66       0.2260
     68  O        -14.5490    6.8100    5.0780 O.2    66  GLU66      -0.2867
     69  CB       -11.4400    7.0710    5.4760 C.3    66  GLU66       0.0388
     70  CG       -10.0730    6.4470    5.3970 C.3    66  GLU66       0.1160
     71  CD        -9.3830    6.8090    4.0900 C.2    66  GLU66       0.3649
     72  OE1      -10.0240    7.5010    3.2760 O.co2  66  GLU66      -0.2457
     73  OE2       -8.2230    6.3930    3.8670 O.co2  66  GLU66      -0.2457
     74  N        -13.8260    8.3150   12.7870 N.3    88  ILE88      -0.1231
     75  CA       -12.9270    8.7230   11.6970 C.3    88  ILE88       0.1692
     76  C        -12.6120    7.6040   10.6980 C.2    88  ILE88       0.2591
     77  O        -12.5450    7.8360    9.4920 O.2    88  ILE88      -0.2718
     78  CB       -11.6310    9.4210   12.2100 C.3    88  ILE88       0.0266
     79  CG1      -10.6250    9.6350   11.0520 C.3    88  ILE88       0.0019
     80  CG2      -11.0340    8.6610   13.3910 C.3    88  ILE88       0.0020
     81  CD1       -9.7120   10.8660   11.2340 C.3    88  ILE88       0.0001
     82  N        -12.4410    6.3920   11.2080 N.am   89  GLN89      -0.1979
     83  CA       -12.1690    5.2310   10.3630 C.3    89  GLN89       0.1601
     84  C        -12.4670    3.9540   11.1170 C.2    89  GLN89       0.2287
     85  O        -12.5980    3.9630   12.3410 O.2    89  GLN89      -0.2864
     86  CB       -10.7230    5.2230    9.8170 C.3    89  GLN89       0.0394
     87  CG        -9.6140    5.3160   10.8670 C.3    89  GLN89       0.0908
     88  CD        -8.9920    3.9730   11.2460 C.2    89  GLN89       0.2608
     89  OE1       -9.6370    2.9240   11.2090 O.2    89  GLN89      -0.2717
     90  NE2       -7.7220    4.0090   11.6250 N.am   89  GLN89      -0.0878
     91  N        -11.0300   -0.3380   10.9200 N.3    91  HIS91      -0.1241
     92  CA       -10.1580   -1.3410   10.3410 C.3    91  HIS91       0.1621
     93  C        -10.2900   -2.6210   11.1620 C.2    91  HIS91       0.2264
     94  O        -10.9810   -2.6590   12.1960 O.2    91  HIS91      -0.2867
     95  CB        -8.6930   -0.8720   10.3450 C.3    91  HIS91       0.0745
     96  CG        -8.1740   -0.5870   11.7190 C.ar   91  HIS91       0.0817
     97  ND1       -8.2870    0.6520   12.3130 N.ar   91  HIS91      -0.2268
     98  CD2       -7.6070   -1.3980   12.6410 C.ar   91  HIS91       0.1154
     99  CE1       -7.7980    0.5940   13.5380 C.ar   91  HIS91       0.1986
    100  NE2       -7.3740   -0.6380   13.7610 N.ar   91  HIS91      -0.2212
    101  N        -12.5690    3.7300   15.1800 N.3   118  VAL118     -0.1245
    102  CA       -11.7230    4.7230   15.8360 C.3   118  VAL118      0.1561
    103  C        -12.4550    6.0550   15.8360 C.2   118  VAL118      0.2260
    104  O        -12.9690    6.4700   14.7950 O.2   118  VAL118     -0.2867
    105  CB       -10.3420    4.8260   15.1510 C.3   118  VAL118      0.0252
    106  CG1       -9.4350    5.8540   15.8590 C.3   118  VAL118      0.0019
    107  CG2       -9.6780    3.4650   15.1270 C.3   118  VAL118      0.0019
    108  N         -8.3890   15.2760   14.8250 N.3   127  PHE127     -0.1241
    109  CA        -7.7260   14.0210   15.1990 C.3   127  PHE127      0.1605
    110  C         -6.3040   14.2430   15.7090 C.2   127  PHE127      0.2264
    111  O         -5.8980   13.6490   16.7120 O.2   127  PHE127     -0.2867
    112  CB        -7.7030   13.0290   14.0190 C.3   127  PHE127      0.0534
    113  CG        -7.0130   11.7260   14.3300 C.ar  127  PHE127     -0.0203
    114  CD1       -5.6620   11.5500   14.0460 C.ar  127  PHE127     -0.0042
    115  CD2       -7.7120   10.6830   14.9320 C.ar  127  PHE127     -0.0042
    116  CE1       -5.0080   10.3440   14.3400 C.ar  127  PHE127     -0.0003
    117  CE2       -7.0750    9.4750   15.2420 C.ar  127  PHE127     -0.0003
    118  CZ        -5.7150    9.3030   14.9380 C.ar  127  PHE127     -0.0000
    119  N         -8.9880    9.8080   22.2760 N.3   137  LEU137     -0.1245
    120  CA        -9.5920    8.7830   21.4350 C.3   137  LEU137      0.1561
    121  C        -10.4660    7.8000   22.1880 C.2   137  LEU137      0.2260
    122  O        -10.2040    7.4870   23.3410 O.2   137  LEU137     -0.2867
    123  CB        -8.5080    7.9930   20.7130 C.3   137  LEU137      0.0270
    124  CG        -7.5710    8.7130   19.7400 C.3   137  LEU137      0.0019
    125  CD1       -6.7140    7.6440   19.0600 C.3   137  LEU137      0.0001
    126  CD2       -8.3490    9.5200   18.7090 C.3   137  LEU137      0.0001
    127  N         -3.4370    3.0740   20.9780 N.3   194  LEU194     -0.1245
    128  CA        -3.5320    2.4620   19.6630 C.3   194  LEU194      0.1561
    129  C         -2.5660    1.2670   19.6080 C.2   194  LEU194      0.2260
    130  O         -1.5310    1.2540   20.2720 O.2   194  LEU194     -0.2867
    131  CB        -3.2180    3.4720   18.5670 C.3   194  LEU194      0.0270
    132  CG        -4.2070    4.6400   18.4810 C.3   194  LEU194      0.0019
    133  CD1       -3.5320    5.8670   17.9240 C.3   194  LEU194      0.0001
    134  CD2       -5.4250    4.2390   17.6620 C.3   194  LEU194      0.0001
    135  N         -1.0740   -0.0140   16.8700 N.3   196  THR196     -0.1204
    136  CA        -0.0490    0.1170   15.8350 C.3   196  THR196      0.1979
    137  C          0.8330    1.3300   16.1410 C.2   196  THR196      0.2459
    138  O          0.3740    2.2980   16.7650 O.2   196  THR196     -0.2732
    139  CB        -0.6780    0.2960   14.4380 C.3   196  THR196      0.1783
    140  OG1       -1.5640    1.4160   14.4650 O.3   196  THR196     -0.2211
    141  CG2       -1.4570   -0.9250   14.0270 C.3   196  THR196      0.0376
    142  N          2.1120    1.2860   15.7210 N.am  197  PRO197     -0.2728
    143  CA         2.9120    2.4930   15.8900 C.3   197  PRO197      0.1401
    144  C          2.2660    3.7300   15.2500 C.2   197  PRO197      0.2269
    145  O          1.6510    3.6280   14.1780 O.2   197  PRO197     -0.2865
    146  CB         4.2360    2.1250   15.2170 C.3   197  PRO197      0.0296
    147  CG         4.3300    0.6480   15.3770 C.3   197  PRO197      0.0237
    148  CD         2.9070    0.1880   15.1350 C.3   197  PRO197      0.0939
@<TRIPOS>BOND
     1    24    23    1
     2    21    20    1
     3    21    22    1
     4    19    20    1
     5    19    16    1
     6    23    22    2
     7    23    25    1
     8    16    15    1
     9    16    17    1
    10    32    31    1
    11    17    18    2
    12    27    26    1
    13    27    30    1
    14    27    28    1
    15    30    31    1
    16    28    29    2
    17    31    33    1
    18    72    71   ar
    19    34    35    1
    20    73    71   ar
    21    35    36    1
    22    35    38    1
    23    71    70    1
    24    36    37    2
    25    60    59    2
    26    68    67    2
    27    38    39    1
    28    55    54    2
    29    70    69    1
    30    69    66    1
    31    65    66    1
    32    59    58    1
    33    57    58    1
    34    67    66    1
    35    42    43    1
    36    54    53    1
    37    39    40    2
    38    39    41   am
    39    58    61    1
    40    61    62    1
    41    52    53    1
    42    52    44   am
    43    53    56    1
    44    43    44    1
    45    43    46    1
    46    44    45    2
    47    63    62    2
    48    62    64   am
    49    46    47    1
    50    48    47   ar
    51    48    50   ar
    52    47    49   ar
    53    50    51   ar
    54    77    76    2
    55     4     3    2
    56    49    51   ar
    57    86    83    1
    58    86    87    1
    59    92    95    1
    60    92    91    1
    61    92    93    1
    62    95    96    1
    63    83    84    1
    64    83    82    1
    65     1     2    1
    66     3     2    1
    67    76    82   am
    68    76    75    1
    69    87    88    1
    70    79    81    1
    71    79    78    1
    72    84    85    2
    73    93    94    2
    74    89    88    2
    75    88    90   am
    76     2     5    1
    77    12    10   ar
    78    12    14   ar
    79     9    10   ar
    80     9     7   ar
    81    10     8   ar
    82    14    13   ar
    83    75    78    1
    84    75    74    1
    85     7     6   ar
    86    96    97   ar
    87    96    98   ar
    88     8     6   ar
    89     8    11   ar
    90    13    11   ar
    91     6     5    1
    92    78    80    1
    93    97    99   ar
    94    98   100   ar
    95    99   100   ar
    96   112   113    1
    97   112   109    1
    98   141   139    1
    99   114   113   ar
   100   114   116   ar
   101   145   144    2
   102   113   115   ar
   103   116   118   ar
   104   139   140    1
   105   139   136    1
   106   104   103    2
   107   108   109    1
   108   115   117   ar
   109   118   117   ar
   110   107   105    1
   111   148   147    1
   112   148   142    1
   113   105   102    1
   114   105   106    1
   115   101   102    1
   116   109   110    1
   117   146   147    1
   118   146   143    1
   119   144   143    1
   120   110   111    2
   121   142   143    1
   122   142   137   am
   123   136   137    1
   124   136   135    1
   125   103   102    1
   126   137   138    2
   127   134   132    1
   128   133   132    1
   129   132   131    1
   130   131   128    1
   131   126   124    1
   132   125   124    1
   133   129   128    1
   134   129   130    2
   135   128   127    1
   136   124   123    1
   137   123   120    1
   138   120   121    1
   139   120   119    1
   140   121   122    2
