@<TRIPOS>MOLECULE
tmp/3f8fA00.pdb
 97 92 0 0 0
SMALL
GASTEIGER

@<TRIPOS>ATOM
      1  N         31.4570   38.8770   50.5710 N.3     8  MET8       -0.1245
      2  CA        30.2880   38.0030   50.3510 C.3     8  MET8        0.1570
      3  C         30.2000   36.9330   51.4220 C.2     8  MET8        0.2261
      4  O         29.1260   36.6000   51.8710 O.2     8  MET8       -0.2867
      5  CB        30.3120   37.3830   48.9640 C.3     8  MET8        0.0387
      6  CG        28.9990   36.6840   48.5820 C.3     8  MET8        0.0595
      7  SD        28.9880   35.9960   46.9010 S.3     8  MET8       -0.1393
      8  CE        29.2090   37.4740   45.9230 C.3     8  MET8        0.0692
      9  N         28.7840   38.6060   54.4300 N.3    11  ALA11      -0.1231
     10  CA        27.3590   38.7550   54.1510 C.3    11  ALA11       0.1694
     11  C         26.6150   37.4510   54.4060 C.2    11  ALA11       0.2591
     12  O         25.4980   37.4560   54.9610 O.2    11  ALA11      -0.2718
     13  CB        27.1550   39.2070   52.7320 C.3    11  ALA11       0.0304
     14  N         27.2330   36.3210   54.0040 N.am   12  GLN12      -0.1979
     15  CA        26.6210   34.9720   54.1800 C.3    12  GLN12       0.1601
     16  C         26.5300   34.5150   55.6340 C.2    12  GLN12       0.2287
     17  O         25.4900   33.9850   56.0660 O.2    12  GLN12      -0.2864
     18  CB        27.3470   33.9480   53.3410 C.3    12  GLN12       0.0394
     19  CG        27.1100   34.1590   51.7960 C.3    12  GLN12       0.0908
     20  CD        27.8390   33.1850   50.9420 C.2    12  GLN12       0.2608
     21  OE1       28.6220   32.3780   51.4290 O.2    12  GLN12      -0.2717
     22  NE2       27.5940   33.2500   49.6380 N.am   12  GLN12      -0.0878
     23  N         23.7450   36.6420   57.3750 N.3    15  VAL15      -0.1245
     24  CA        22.4250   36.1580   57.0790 C.3    15  VAL15       0.1561
     25  C         22.0710   34.9350   57.9160 C.2    15  VAL15       0.2260
     26  O         20.9620   34.8340   58.4340 O.2    15  VAL15      -0.2867
     27  CB        22.2830   35.8270   55.5510 C.3    15  VAL15       0.0252
     28  CG1       20.9470   35.1080   55.2710 C.3    15  VAL15       0.0019
     29  CG2       22.3860   37.1080   54.7320 C.3    15  VAL15       0.0019
     30  N         21.6240   36.0540   61.6600 N.3    18  LEU18      -0.1231
     31  CA        20.4160   36.8660   61.8040 C.3    18  LEU18       0.1693
     32  C         19.1650   36.0120   61.6800 C.2    18  LEU18       0.2592
     33  O         18.1070   36.3650   62.2000 O.2    18  LEU18      -0.2718
     34  CB        20.3930   38.0200   60.7840 C.3    18  LEU18       0.0284
     35  CG        21.3680   39.1930   61.0740 C.3    18  LEU18       0.0019
     36  CD1       21.3810   40.1700   59.9180 C.3    18  LEU18       0.0001
     37  CD2       20.9900   39.9220   62.3870 C.3    18  LEU18       0.0001
     38  N         19.2940   34.8820   60.9880 N.am   19  ASN19      -0.1974
     39  CA        18.2010   33.9400   60.8790 C.3    19  ASN19       0.1688
     40  C         18.0740   33.0190   62.0900 C.2    19  ASN19       0.2292
     41  O         16.9810   32.6580   62.4730 O.2    19  ASN19      -0.2864
     42  CB        18.2850   33.1340   59.5740 C.3    19  ASN19       0.1181
     43  CG        17.5370   33.8000   58.4310 C.2    19  ASN19       0.2629
     44  OD1       18.1370   34.4860   57.5840 O.2    19  ASN19      -0.2716
     45  ND2       16.2350   33.6120   58.3970 N.am   19  ASN19      -0.0877
     46  N         15.7240   43.2200   57.8440 N.3    87  MET87      -0.1245
     47  CA        15.6330   41.9420   57.1440 C.3    87  MET87       0.1570
     48  C         14.5080   41.9460   56.1000 C.2    87  MET87       0.2261
     49  O         14.6640   41.4050   55.0040 O.2    87  MET87      -0.2867
     50  CB        15.4450   40.7940   58.1370 C.3    87  MET87       0.0387
     51  CG        16.6920   40.5320   59.0080 C.3    87  MET87       0.0595
     52  SD        16.6140   39.0150   59.9910 S.3    87  MET87      -0.1393
     53  CE        16.4990   37.7800   58.6950 C.3    87  MET87       0.0692
     54  N         15.5510   44.1880   53.2330 N.3    90  ALA90      -0.1231
     55  CA        16.6010   43.5260   52.4630 C.3    90  ALA90       0.1694
     56  C         16.0220   42.4430   51.5620 C.2    90  ALA90       0.2592
     57  O         16.4320   42.3050   50.3980 O.2    90  ALA90      -0.2718
     58  CB        17.6680   42.9480   53.3840 C.3    90  ALA90       0.0304
     59  N         15.0700   41.6760   52.0920 N.am   91  PHE91      -0.1976
     60  CA        14.3220   40.7150   51.2750 C.3    91  PHE91       0.1639
     61  C         13.6380   41.4080   50.0940 C.2    91  PHE91       0.2290
     62  O         13.7360   40.9510   48.9450 O.2    91  PHE91      -0.2864
     63  CB        13.2960   39.9610   52.1170 C.3    91  PHE91       0.0560
     64  CG        12.4750   38.9770   51.3340 C.ar   91  PHE91      -0.0200
     65  CD1       12.8960   37.6530   51.1920 C.ar   91  PHE91      -0.0042
     66  CD2       11.2780   39.3670   50.7360 C.ar   91  PHE91      -0.0042
     67  CE1       12.1320   36.7330   50.4600 C.ar   91  PHE91      -0.0003
     68  CE2       10.5130   38.4600   50.0080 C.ar   91  PHE91      -0.0003
     69  CZ        10.9420   37.1370   49.8690 C.ar   91  PHE91      -0.0000
     70  N         16.2020   42.9700   47.4250 N.3    94  TRP94      -0.1227
     71  CA        16.9120   41.9630   46.6560 C.3    94  TRP94       0.1737
     72  C         15.9670   41.2250   45.7460 C.2    94  TRP94       0.2596
     73  O         16.3690   40.7100   44.6960 O.2    94  TRP94      -0.2718
     74  CB        17.5770   40.9650   47.6030 C.3    94  TRP94       0.0564
     75  CG        18.9840   41.3300   47.9830 C.ar   94  TRP94       0.0003
     76  CD1       19.4080   41.8340   49.1800 C.ar   94  TRP94       0.0946
     77  CD2       20.1590   41.2130   47.1560 C.ar   94  TRP94       0.0152
     78  NE1       20.7730   42.0390   49.1520 N.ar   94  TRP94      -0.2442
     79  CE2       21.2550   41.6660   47.9210 C.ar   94  TRP94       0.0810
     80  CE3       20.3860   40.7690   45.8450 C.ar   94  TRP94       0.0012
     81  CZ2       22.5640   41.6880   47.4170 C.ar   94  TRP94       0.0191
     82  CZ3       21.6880   40.7920   45.3460 C.ar   94  TRP94       0.0001
     83  CH2       22.7570   41.2470   46.1330 C.ar   94  TRP94       0.0015
     84  N         14.7020   41.1670   46.1570 N.am   95  SER95      -0.1952
     85  CA        13.6410   40.6250   45.3430 C.3    95  SER95       0.1924
     86  C         13.4090   41.4860   44.1040 C.2    95  SER95       0.2314
     87  O         13.1560   40.9650   43.0140 O.2    95  SER95      -0.2863
     88  CB        12.3630   40.5260   46.1600 C.3    95  SER95       0.2116
     89  OG        11.2250   40.4650   45.3230 O.3    95  SER95      -0.2180
     90  N         16.3540   40.7610   41.6990 N.3    98  ASP98      -0.1239
     91  CA        16.0470   39.5370   40.9450 C.3    98  ASP98       0.1674
     92  C         15.0820   39.7800   39.7570 C.2    98  ASP98       0.2266
     93  O         15.2480   39.1850   38.6910 O.2    98  ASP98      -0.2867
     94  CB        15.4670   38.4660   41.8760 C.3    98  ASP98       0.1410
     95  CG        16.4840   37.9530   42.8820 C.2    98  ASP98       0.3668
     96  OD1       17.7020   38.0980   42.6300 O.co2  98  ASP98      -0.2456
     97  OD2       16.0710   37.4040   43.9220 O.co2  98  ASP98      -0.2456
@<TRIPOS>BOND
     1    93    92    2
     2    92    91    1
     3    91    90    1
     4    91    94    1
     5    94    95    1
     6    96    95   ar
     7    95    97   ar
     8    87    86    2
     9    86    85    1
    10    73    72    2
    11    89    88    1
    12    85    84    1
    13    85    88    1
    14    82    80   ar
    15    82    83   ar
    16    72    84   am
    17    72    71    1
    18    80    77   ar
    19     8     7    1
    20    83    81   ar
    21    71    70    1
    22    71    74    1
    23     7     6    1
    24    77    79   ar
    25    77    75   ar
    26    81    79   ar
    27    74    75    1
    28    79    78   ar
    29    75    76   ar
    30     6     5    1
    31    62    61    2
    32     5     2    1
    33    78    76   ar
    34    22    20   am
    35    69    68   ar
    36    69    67   ar
    37    68    66   ar
    38    61    60    1
    39     2     1    1
    40     2     3    1
    41    57    56    2
    42    67    65   ar
    43    66    64   ar
    44    20    21    2
    45    20    19    1
    46    65    64   ar
    47    60    59    1
    48    60    63    1
    49    64    63    1
    50     3     4    2
    51    56    59   am
    52    56    55    1
    53    19    18    1
    54    55    54    1
    55    55    58    1
    56    13    10    1
    57    18    15    1
    58    14    15    1
    59    14    11   am
    60    10    11    1
    61    10     9    1
    62    15    16    1
    63    11    12    2
    64    29    27    1
    65    49    48    2
    66    28    27    1
    67    27    24    1
    68    16    17    2
    69    48    47    1
    70    24    23    1
    71    24    25    1
    72    47    46    1
    73    47    50    1
    74    44    43    2
    75    25    26    2
    76    50    51    1
    77    45    43   am
    78    43    42    1
    79    53    52    1
    80    51    52    1
    81    42    39    1
    82    36    35    1
    83    34    35    1
    84    34    31    1
    85    39    38    1
    86    39    40    1
    87    38    32   am
    88    35    37    1
    89    30    31    1
    90    32    31    1
    91    32    33    2
    92    40    41    2
