@<TRIPOS>MOLECULE
tmp/3f8hB01.pdb
 145 139 0 0 0
SMALL
GASTEIGER

@<TRIPOS>ATOM
      1  N          7.8400   15.0550   46.5060 N.3    13  TYR13      -0.1227
      2  CA         7.0100   16.2430   46.5930 C.3    13  TYR13       0.1736
      3  C          5.6500   15.9920   45.9300 C.2    13  TYR13       0.2595
      4  O          4.5830   16.3000   46.4760 O.2    13  TYR13      -0.2718
      5  CB         7.7460   17.4520   45.9610 C.3    13  TYR13       0.0548
      6  CG         6.9320   18.7390   45.8220 C.ar   13  TYR13      -0.0200
      7  CD1        6.7980   19.6250   46.8750 C.ar   13  TYR13      -0.0009
      8  CD2        6.3830   19.0830   44.6060 C.ar   13  TYR13      -0.0009
      9  CE1        6.0740   20.7970   46.7270 C.ar   13  TYR13       0.0417
     10  CE2        5.6640   20.2310   44.4340 C.ar   13  TYR13       0.0417
     11  CZ         5.4980   21.0890   45.4920 C.ar   13  TYR13       0.1957
     12  OH         4.7740   22.2380   45.2980 O.3    13  TYR13      -0.2866
     13  N          5.6980   15.4410   44.7270 N.am   14  PHE14      -0.1976
     14  CA         4.4620   15.2020   43.9960 C.3    14  PHE14       0.1639
     15  C          3.6660   14.0060   44.5890 C.2    14  PHE14       0.2290
     16  O          2.4380   13.9880   44.5810 O.2    14  PHE14      -0.2864
     17  CB         4.7280   15.0280   42.4970 C.3    14  PHE14       0.0560
     18  CG         5.0500   16.3250   41.7800 C.ar   14  PHE14      -0.0200
     19  CD1        4.1880   17.4230   41.8770 C.ar   14  PHE14      -0.0042
     20  CD2        6.1730   16.4230   40.9740 C.ar   14  PHE14      -0.0042
     21  CE1        4.4410   18.5840   41.2020 C.ar   14  PHE14      -0.0003
     22  CE2        6.4440   17.6000   40.2840 C.ar   14  PHE14      -0.0003
     23  CZ         5.5850   18.6830   40.4010 C.ar   14  PHE14      -0.0000
     24  N          1.8090   15.3510   47.4040 N.3    17  PHE17      -0.1241
     25  CA         0.6690   16.1350   46.8820 C.3    17  PHE17       0.1605
     26  C         -0.4730   15.1640   46.5970 C.2    17  PHE17       0.2264
     27  O         -1.5540   15.3390   47.0590 O.2    17  PHE17      -0.2867
     28  CB         1.0270   16.8840   45.5760 C.3    17  PHE17       0.0534
     29  CG        -0.1140   17.6730   44.9990 C.ar   17  PHE17      -0.0203
     30  CD1       -1.0190   17.0700   44.1370 C.ar   17  PHE17      -0.0042
     31  CD2       -0.3170   18.9940   45.3500 C.ar   17  PHE17      -0.0042
     32  CE1       -2.0820   17.7580   43.6140 C.ar   17  PHE17      -0.0003
     33  CE2       -1.4250   19.7380   44.8100 C.ar   17  PHE17      -0.0003
     34  CZ        -2.2790   19.1260   43.9330 C.ar   17  PHE17      -0.0000
     35  N          8.1710   30.5720   46.1750 N.3    34  HIS34      -0.1241
     36  CA         7.0590   30.0200   45.4280 C.3    34  HIS34       0.1621
     37  C          6.5310   31.0830   44.4950 C.2    34  HIS34       0.2264
     38  O          5.9380   32.0640   44.9060 O.2    34  HIS34      -0.2867
     39  CB         6.0090   29.5200   46.4170 C.3    34  HIS34       0.0745
     40  CG         4.7590   28.9910   45.7920 C.ar   34  HIS34       0.0817
     41  ND1        3.5540   28.9550   46.4610 N.ar   34  HIS34      -0.2268
     42  CD2        4.5120   28.5190   44.5520 C.ar   34  HIS34       0.1154
     43  CE1        2.6230   28.4750   45.6630 C.ar   34  HIS34       0.1986
     44  NE2        3.1800   28.1880   44.5010 N.ar   34  HIS34      -0.2212
     45  N          3.7660   28.8380   52.4150 N.3    48  PHE48      -0.1241
     46  CA         3.4850   27.6470   51.5920 C.3    48  PHE48       0.1605
     47  C          2.3930   26.7820   52.2170 C.2    48  PHE48       0.2264
     48  O          1.4620   26.3110   51.5220 O.2    48  PHE48      -0.2867
     49  CB         4.7360   26.8280   51.2970 C.3    48  PHE48       0.0534
     50  CG         4.5620   25.8730   50.1560 C.ar   48  PHE48      -0.0203
     51  CD1        4.1160   24.5930   50.3770 C.ar   48  PHE48      -0.0042
     52  CD2        4.8770   26.2540   48.8710 C.ar   48  PHE48      -0.0042
     53  CE1        3.9610   23.6980   49.3220 C.ar   48  PHE48      -0.0003
     54  CE2        4.7080   25.3830   47.8200 C.ar   48  PHE48      -0.0003
     55  CZ         4.2460   24.0920   48.0520 C.ar   48  PHE48      -0.0000
     56  N         -0.8420   28.3900   51.7150 N.3    51  PHE51      -0.1227
     57  CA        -1.2010   28.2390   50.2890 C.3    51  PHE51       0.1736
     58  C         -1.8410   26.8770   50.0470 C.2    51  PHE51       0.2595
     59  O         -2.9060   26.7360   49.3970 O.2    51  PHE51      -0.2718
     60  CB         0.0240   28.4020   49.3760 C.3    51  PHE51       0.0547
     61  CG        -0.3430   28.4130   47.8970 C.ar   51  PHE51      -0.0202
     62  CD1       -0.6450   29.6050   47.2660 C.ar   51  PHE51      -0.0042
     63  CD2       -0.4360   27.2480   47.1920 C.ar   51  PHE51      -0.0042
     64  CE1       -1.0020   29.6170   45.9360 C.ar   51  PHE51      -0.0003
     65  CE2       -0.7750   27.2450   45.8620 C.ar   51  PHE51      -0.0003
     66  CZ        -1.0780   28.4260   45.2440 C.ar   51  PHE51      -0.0000
     67  N         -1.2220   25.8790   50.6520 N.am   52  CYS52      -0.1970
     68  CA        -1.7380   24.5100   50.5730 C.3    52  CYS52       0.1712
     69  C         -3.1240   24.4000   51.2060 C.2    52  CYS52       0.2296
     70  O         -4.0320   23.7460   50.6570 O.2    52  CYS52      -0.2864
     71  CB        -0.7760   23.5030   51.1910 C.3    52  CYS52       0.0983
     72  SG         0.7030   23.2620   50.2370 S.3    52  CYS52      -0.0798
     73  N         -7.6000   17.5230   43.8540 N.3    60  GLU60      -0.1245
     74  CA        -6.7970   17.2170   42.6540 C.3    60  GLU60       0.1567
     75  C         -5.9050   16.0080   42.7630 C.2    60  GLU60       0.2260
     76  O         -5.4790   15.5990   43.8550 O.2    60  GLU60      -0.2867
     77  CB        -5.8860   18.4140   42.3410 C.3    60  GLU60       0.0388
     78  CG        -6.6060   19.5500   41.8280 C.3    60  GLU60       0.1160
     79  CD        -5.7610   20.7880   41.5820 C.2    60  GLU60       0.3649
     80  OE1       -4.5160   20.8230   41.8300 O.co2  60  GLU60      -0.2457
     81  OE2       -6.4020   21.7360   41.0970 O.co2  60  GLU60      -0.2457
     82  N         -2.6350   14.3130   40.2750 N.3    62  LEU62      -0.1245
     83  CA        -1.6890   14.4700   39.1510 C.3    62  LEU62       0.1561
     84  C         -1.4450   13.1310   38.4740 C.2    62  LEU62       0.2260
     85  O         -1.2300   12.1230   39.1360 O.2    62  LEU62      -0.2867
     86  CB        -0.3720   15.0180   39.6400 C.3    62  LEU62       0.0270
     87  CG        -0.5080   16.2240   40.5710 C.3    62  LEU62       0.0019
     88  CD1        0.9270   16.6250   41.0140 C.3    62  LEU62       0.0001
     89  CD2       -1.2710   17.3980   39.9580 C.3    62  LEU62       0.0001
     90  N          3.0070   17.3380   33.6780 N.3    79  TYR79      -0.1241
     91  CA         1.9660   16.4550   34.1160 C.3    79  TYR79       0.1605
     92  C          0.5610   16.9940   33.8320 C.2    79  TYR79       0.2264
     93  O          0.3590   18.0730   33.2740 O.2    79  TYR79      -0.2867
     94  CB         2.1460   16.2060   35.6280 C.3    79  TYR79       0.0534
     95  CG         2.3610   17.4820   36.4290 C.ar   79  TYR79      -0.0201
     96  CD1        3.6340   18.0360   36.5980 C.ar   79  TYR79      -0.0009
     97  CD2        1.2920   18.1460   37.0060 C.ar   79  TYR79      -0.0009
     98  CE1        3.7960   19.2120   37.3070 C.ar   79  TYR79       0.0417
     99  CE2        1.4590   19.3010   37.6990 C.ar   79  TYR79       0.0417
    100  CZ         2.7000   19.8360   37.8500 C.ar   79  TYR79       0.1957
    101  OH         2.8110   21.0210   38.5680 O.3    79  TYR79      -0.2866
    102  N         -3.1750   17.7600   35.5600 N.3    81  VAL81      -0.1245
    103  CA        -3.9510   18.0220   36.7690 C.3    81  VAL81       0.1561
    104  C         -5.3900   17.6440   36.5440 C.2    81  VAL81       0.2260
    105  O         -6.0260   18.1270   35.6110 O.2    81  VAL81      -0.2867
    106  CB        -3.9480   19.5110   37.1930 C.3    81  VAL81       0.0252
    107  CG1       -4.7180   19.6890   38.5050 C.3    81  VAL81       0.0019
    108  CG2       -2.4680   20.0360   37.3500 C.3    81  VAL81       0.0019
    109  N         -0.1600   20.9110   32.9030 N.3   104  ALA104     -0.1245
    110  CA         0.6390   21.7200   33.7840 C.3   104  ALA104      0.1562
    111  C          2.0920   21.3090   33.7950 C.2   104  ALA104      0.2260
    112  O          2.4970   20.2550   33.2740 O.2   104  ALA104     -0.2867
    113  CB         0.0490   21.7000   35.2040 C.3   104  ALA104      0.0290
    114  N          6.0610   22.2150   36.0970 N.3   106  SER106     -0.1217
    115  CA         6.7810   22.8320   37.1870 C.3   106  SER106      0.1889
    116  C          8.2760   22.7930   36.9730 C.2   106  SER106      0.2288
    117  O          8.8170   21.8480   36.4310 O.2   106  SER106     -0.2866
    118  CB         6.4530   22.1600   38.5380 C.3   106  SER106      0.2089
    119  OG         5.0650   22.1820   38.8700 O.3   106  SER106     -0.2183
    120  N         10.0960   27.0510   43.4760 N.3   118  VAL118     -0.1245
    121  CA         9.0950   26.3290   42.7150 C.3   118  VAL118      0.1561
    122  C          8.2870   27.2880   41.8550 C.2   118  VAL118      0.2260
    123  O          7.7540   28.3010   42.3210 O.2   118  VAL118     -0.2867
    124  CB         8.1560   25.3920   43.5970 C.3   118  VAL118      0.0252
    125  CG1        7.5040   26.1140   44.7020 C.3   118  VAL118      0.0019
    126  CG2        7.1190   24.7040   42.7200 C.3   118  VAL118      0.0019
    127  N          5.2610   26.9590   39.0930 N.3   120  THR120     -0.1218
    128  CA         4.2450   26.1340   38.4650 C.3   120  THR120      0.1862
    129  C          3.5050   26.9030   37.3970 C.2   120  THR120      0.2287
    130  O          3.1050   28.0620   37.5610 O.2   120  THR120     -0.2866
    131  CB         3.3300   25.4890   39.5230 C.3   120  THR120      0.1770
    132  OG1        4.1140   24.5450   40.2750 O.3   120  THR120     -0.2211
    133  CG2        2.1670   24.6630   38.8600 C.3   120  THR120      0.0375
    134  N          0.5720   26.7500   34.2110 N.3   122  TYR122     -0.1241
    135  CA        -0.6370   26.2300   33.5860 C.3   122  TYR122      0.1605
    136  C         -1.3610   27.4230   32.9680 C.2   122  TYR122      0.2264
    137  O         -1.0420   28.5690   33.2320 O.2   122  TYR122     -0.2867
    138  CB        -1.5040   25.4460   34.5730 C.3   122  TYR122      0.0534
    139  CG        -2.0460   26.2750   35.6950 C.ar  122  TYR122     -0.0201
    140  CD1       -3.2370   26.9490   35.5610 C.ar  122  TYR122     -0.0009
    141  CD2       -1.3550   26.3710   36.9010 C.ar  122  TYR122     -0.0009
    142  CE1       -3.7310   27.7400   36.6030 C.ar  122  TYR122      0.0417
    143  CE2       -1.8210   27.1470   37.9260 C.ar  122  TYR122      0.0417
    144  CZ        -3.0000   27.8290   37.7700 C.ar  122  TYR122      0.1957
    145  OH        -3.4680   28.5520   38.8100 O.3   122  TYR122     -0.2866
@<TRIPOS>BOND
     1   109   110    1
     2   136   137    2
     3   136   135    1
     4   112   111    2
     5    93    92    2
     6   135   134    1
     7   135   138    1
     8    90    91    1
     9   110   111    1
    10   110   113    1
    11    92    91    1
    12    91    94    1
    13   138   139    1
    14   102   103    1
    15   140   139   ar
    16   140   142   ar
    17   105   104    2
    18    94    95    1
    19   139   141   ar
    20   114   115    1
    21    95    96   ar
    22    95    97   ar
    23   117   116    2
    24   104   103    1
    25    96    98   ar
    26   142   144   ar
    27   103   106    1
    28   141   143   ar
    29   116   115    1
    30    97    99   ar
    31   115   118    1
    32   106   108    1
    33   106   107    1
    34    98   100   ar
    35   129   130    2
    36   129   128    1
    37    99   100   ar
    38   144   143   ar
    39   144   145    1
    40   100   101    1
    41   128   127    1
    42   128   131    1
    43    84    85    2
    44    84    83    1
    45   118   119    1
    46   133   131    1
    47    83    86    1
    48    83    82    1
    49   131   132    1
    50    86    87    1
    51    89    87    1
    52    22    23   ar
    53    22    20   ar
    54    23    21   ar
    55    87    88    1
    56    20    18   ar
    57    81    79   ar
    58    21    19   ar
    59    79    78    1
    60    79    80   ar
    61    18    19   ar
    62    18    17    1
    63    78    77    1
    64   122   123    2
    65   122   121    1
    66    77    74    1
    67    17    14    1
    68    74    75    1
    69    74    73    1
    70   121   120    1
    71   121   124    1
    72   126   124    1
    73    75    76    2
    74   124   125    1
    75    32    34   ar
    76    32    30   ar
    77    34    33   ar
    78    14    15    1
    79    14    13    1
    80    30    29   ar
    81    10     8   ar
    82    10    11   ar
    83    37    38    2
    84    37    36    1
    85    44    42   ar
    86    44    43   ar
    87    42    40   ar
    88    16    15    2
    89     8     6   ar
    90    13     3   am
    91    33    31   ar
    92    29    31   ar
    93    29    28    1
    94    66    65   ar
    95    66    64   ar
    96    12    11    1
    97    36    35    1
    98    36    39    1
    99    11     9   ar
   100    28    25    1
   101    43    41   ar
   102    40    39    1
   103    40    41   ar
   104     6     5    1
   105     6     7   ar
   106    65    63   ar
   107     3     4    2
   108     3     2    1
   109    64    62   ar
   110     5     2    1
   111     1     2    1
   112    26    25    1
   113    26    27    2
   114     9     7   ar
   115    25    24    1
   116    63    61   ar
   117    62    61   ar
   118    54    55   ar
   119    54    52   ar
   120    61    60    1
   121    55    53   ar
   122    52    50   ar
   123    53    51   ar
   124    60    57    1
   125    59    58    2
   126    58    57    1
   127    58    67   am
   128    50    51   ar
   129    50    49    1
   130    72    71    1
   131    57    56    1
   132    68    67    1
   133    68    71    1
   134    68    69    1
   135    70    69    2
   136    49    46    1
   137    48    47    2
   138    46    47    1
   139    46    45    1
