@<TRIPOS>MOLECULE
tmp/3f8hB00.pdb
 122 115 0 0 0
SMALL
GASTEIGER

@<TRIPOS>ATOM
      1  N        -10.0770   23.0560   46.0350 N.3    58  TYR58      -0.1241
      2  CA        -9.9110   22.0430   45.0230 C.3    58  TYR58       0.1605
      3  C         -9.5580   20.6810   45.5720 C.2    58  TYR58       0.2264
      4  O         -8.9560   20.5500   46.6450 O.2    58  TYR58      -0.2867
      5  CB        -8.7300   22.4690   44.0980 C.3    58  TYR58       0.0534
      6  CG        -8.7570   23.9070   43.6340 C.ar   58  TYR58      -0.0201
      7  CD1       -9.6350   24.3170   42.6450 C.ar   58  TYR58      -0.0009
      8  CD2       -7.8830   24.8490   44.1620 C.ar   58  TYR58      -0.0009
      9  CE1       -9.6730   25.6220   42.2350 C.ar   58  TYR58       0.0417
     10  CE2       -7.9190   26.1530   43.7590 C.ar   58  TYR58       0.0417
     11  CZ        -8.8290   26.5380   42.7910 C.ar   58  TYR58       0.1957
     12  OH        -8.8860   27.8460   42.3610 O.3    58  TYR58      -0.2866
     13  N         -7.6000   17.5230   43.8540 N.3    60  GLU60      -0.1245
     14  CA        -6.7970   17.2170   42.6540 C.3    60  GLU60       0.1567
     15  C         -5.9050   16.0080   42.7630 C.2    60  GLU60       0.2260
     16  O         -5.4790   15.5990   43.8550 O.2    60  GLU60      -0.2867
     17  CB        -5.8860   18.4140   42.3410 C.3    60  GLU60       0.0388
     18  CG        -6.6060   19.5500   41.8280 C.3    60  GLU60       0.1160
     19  CD        -5.7610   20.7880   41.5820 C.2    60  GLU60       0.3649
     20  OE1       -4.5160   20.8230   41.8300 O.co2  60  GLU60      -0.2457
     21  OE2       -6.4020   21.7360   41.0970 O.co2  60  GLU60      -0.2457
     22  N          3.0070   17.3380   33.6780 N.3    79  TYR79      -0.1241
     23  CA         1.9660   16.4550   34.1160 C.3    79  TYR79       0.1605
     24  C          0.5610   16.9940   33.8320 C.2    79  TYR79       0.2264
     25  O          0.3590   18.0730   33.2740 O.2    79  TYR79      -0.2867
     26  CB         2.1460   16.2060   35.6280 C.3    79  TYR79       0.0534
     27  CG         2.3610   17.4820   36.4290 C.ar   79  TYR79      -0.0201
     28  CD1        3.6340   18.0360   36.5980 C.ar   79  TYR79      -0.0009
     29  CD2        1.2920   18.1460   37.0060 C.ar   79  TYR79      -0.0009
     30  CE1        3.7960   19.2120   37.3070 C.ar   79  TYR79       0.0417
     31  CE2        1.4590   19.3010   37.6990 C.ar   79  TYR79       0.0417
     32  CZ         2.7000   19.8360   37.8500 C.ar   79  TYR79       0.1957
     33  OH         2.8110   21.0210   38.5680 O.3    79  TYR79      -0.2866
     34  N         -3.1750   17.7600   35.5600 N.3    81  VAL81      -0.1245
     35  CA        -3.9510   18.0220   36.7690 C.3    81  VAL81       0.1561
     36  C         -5.3900   17.6440   36.5440 C.2    81  VAL81       0.2260
     37  O         -6.0260   18.1270   35.6110 O.2    81  VAL81      -0.2867
     38  CB        -3.9480   19.5110   37.1930 C.3    81  VAL81       0.0252
     39  CG1       -4.7180   19.6890   38.5050 C.3    81  VAL81       0.0019
     40  CG2       -2.4680   20.0360   37.3500 C.3    81  VAL81       0.0019
     41  N        -12.8590   30.1370   44.6480 N.3    89  ASP89      -0.1239
     42  CA       -11.5770   30.7820   44.8230 C.3    89  ASP89       0.1674
     43  C        -11.8230   32.2410   44.4230 C.2    89  ASP89       0.2266
     44  O        -12.1890   32.5650   43.2720 O.2    89  ASP89      -0.2867
     45  CB       -10.5320   30.1340   43.9290 C.3    89  ASP89       0.1410
     46  CG        -9.0960   30.3530   44.4070 C.2    89  ASP89       0.3668
     47  OD1       -8.8170   31.2600   45.2050 O.co2  89  ASP89      -0.2456
     48  OD2       -8.2320   29.6020   43.9420 O.co2  89  ASP89      -0.2456
     49  N        -12.2790   34.1170   41.0230 N.3    92  LEU92      -0.1245
     50  CA       -12.5010   33.1070   39.9900 C.3    92  LEU92       0.1561
     51  C        -13.9970   32.7020   39.9150 C.2    92  LEU92       0.2260
     52  O        -14.7820   33.0590   40.7710 O.2    92  LEU92      -0.2867
     53  CB       -11.6140   31.9120   40.2400 C.3    92  LEU92       0.0270
     54  CG       -10.1400   32.2880   40.1660 C.3    92  LEU92       0.0019
     55  CD1       -9.2230   31.1560   40.5390 C.3    92  LEU92       0.0001
     56  CD2       -9.8660   32.7790   38.7630 C.3    92  LEU92       0.0001
     57  N        -12.4960   19.1690   36.1490 N.3   100  TYR100     -0.1241
     58  CA       -11.5330   19.7360   35.2080 C.3   100  TYR100      0.1605
     59  C        -10.3060   18.8820   35.0070 C.2   100  TYR100      0.2264
     60  O         -9.9510   18.0230   35.8270 O.2   100  TYR100     -0.2867
     61  CB       -11.1200   21.1760   35.5780 C.3   100  TYR100      0.0534
     62  CG       -10.5460   21.3130   36.9600 C.ar  100  TYR100     -0.0201
     63  CD1      -11.3530   21.5440   38.0470 C.ar  100  TYR100     -0.0009
     64  CD2       -9.1800   21.1570   37.1820 C.ar  100  TYR100     -0.0009
     65  CE1      -10.8020   21.6640   39.3370 C.ar  100  TYR100      0.0417
     66  CE2       -8.6310   21.2490   38.4500 C.ar  100  TYR100      0.0417
     67  CZ        -9.4450   21.4970   39.5180 C.ar  100  TYR100      0.1957
     68  OH        -8.9060   21.6010   40.7700 O.3   100  TYR100     -0.2866
     69  N         -6.3670   19.5680   33.1120 N.3   102  LEU102     -0.1245
     70  CA        -5.4920   20.6090   32.5530 C.3   102  LEU102      0.1561
     71  C         -4.0260   20.2150   32.4970 C.2   102  LEU102      0.2260
     72  O         -3.5400   19.6680   33.4670 O.2   102  LEU102     -0.2867
     73  CB        -5.6070   21.8110   33.5300 C.3   102  LEU102      0.0270
     74  CG        -5.0570   23.2260   33.3560 C.3   102  LEU102      0.0019
     75  CD1       -5.9350   24.0800   32.4440 C.3   102  LEU102      0.0001
     76  CD2       -5.0090   23.8610   34.7400 C.3   102  LEU102      0.0001
     77  N         -0.1600   20.9110   32.9030 N.3   104  ALA104     -0.1245
     78  CA         0.6390   21.7200   33.7840 C.3   104  ALA104      0.1562
     79  C          2.0920   21.3090   33.7950 C.2   104  ALA104      0.2260
     80  O          2.4970   20.2550   33.2740 O.2   104  ALA104     -0.2867
     81  CB         0.0490   21.7000   35.2040 C.3   104  ALA104      0.0290
     82  N          5.2610   26.9590   39.0930 N.3   120  THR120     -0.1218
     83  CA         4.2450   26.1340   38.4650 C.3   120  THR120      0.1862
     84  C          3.5050   26.9030   37.3970 C.2   120  THR120      0.2287
     85  O          3.1050   28.0620   37.5610 O.2   120  THR120     -0.2866
     86  CB         3.3300   25.4890   39.5230 C.3   120  THR120      0.1770
     87  OG1        4.1140   24.5450   40.2750 O.3   120  THR120     -0.2211
     88  CG2        2.1670   24.6630   38.8600 C.3   120  THR120      0.0375
     89  N          0.5720   26.7500   34.2110 N.3   122  TYR122     -0.1241
     90  CA        -0.6370   26.2300   33.5860 C.3   122  TYR122      0.1605
     91  C         -1.3610   27.4230   32.9680 C.2   122  TYR122      0.2264
     92  O         -1.0420   28.5690   33.2320 O.2   122  TYR122     -0.2867
     93  CB        -1.5040   25.4460   34.5730 C.3   122  TYR122      0.0534
     94  CG        -2.0460   26.2750   35.6950 C.ar  122  TYR122     -0.0201
     95  CD1       -3.2370   26.9490   35.5610 C.ar  122  TYR122     -0.0009
     96  CD2       -1.3550   26.3710   36.9010 C.ar  122  TYR122     -0.0009
     97  CE1       -3.7310   27.7400   36.6030 C.ar  122  TYR122      0.0417
     98  CE2       -1.8210   27.1470   37.9260 C.ar  122  TYR122      0.0417
     99  CZ        -3.0000   27.8290   37.7700 C.ar  122  TYR122      0.1957
    100  OH        -3.4680   28.5520   38.8100 O.3   122  TYR122     -0.2866
    101  N         -4.2860   29.5030   32.9040 N.3   124  LEU124     -0.1245
    102  CA        -5.4090   29.8960   33.7500 C.3   124  LEU124      0.1561
    103  C         -6.7020   30.1750   32.9520 C.2   124  LEU124      0.2260
    104  O         -7.7840   29.7820   33.3710 O.2   124  LEU124     -0.2867
    105  CB        -5.0270   31.0980   34.6420 C.3   124  LEU124      0.0270
    106  CG        -6.1510   31.6580   35.5230 C.3   124  LEU124      0.0019
    107  CD1       -6.6240   30.5710   36.5250 C.3   124  LEU124      0.0001
    108  CD2       -5.6640   32.9170   36.2560 C.3   124  LEU124      0.0001
    109  N         -8.3930   27.0080   32.1760 N.3   127  TRP127     -0.1241
    110  CA        -9.0960   26.4550   33.3380 C.3   127  TRP127      0.1605
    111  C        -10.4140   27.1720   33.5500 C.2   127  TRP127      0.2264
    112  O        -11.4670   26.5620   33.6990 O.2   127  TRP127     -0.2867
    113  CB        -8.2400   26.5500   34.6010 C.3   127  TRP127      0.0550
    114  CG        -8.9580   26.0210   35.8030 C.ar  127  TRP127      0.0003
    115  CD1       -9.1050   24.7030   36.1630 C.ar  127  TRP127      0.0946
    116  CD2       -9.6220   26.7820   36.8030 C.ar  127  TRP127      0.0152
    117  NE1       -9.8310   24.6140   37.3150 N.ar  127  TRP127     -0.2442
    118  CE2      -10.1820   25.8730   37.7170 C.ar  127  TRP127      0.0810
    119  CE3       -9.8240   28.1390   37.0010 C.ar  127  TRP127      0.0012
    120  CZ2      -10.8890   26.2820   38.8280 C.ar  127  TRP127      0.0191
    121  CZ3      -10.5620   28.5490   38.1090 C.ar  127  TRP127      0.0001
    122  CH2      -11.0730   27.6210   39.0070 C.ar  127  TRP127      0.0015
@<TRIPOS>BOND
     1   109   110    1
     2    75    74    1
     3    71    70    1
     4    71    72    2
     5    70    69    1
     6    70    73    1
     7    77    78    1
     8   101   102    1
     9   103   104    2
    10   103   102    1
    11    91    92    2
    12    91    90    1
    13    80    79    2
    14    25    24    2
    15   110   111    1
    16   110   113    1
    17    74    73    1
    18    74    76    1
    19   111   112    2
    20    90    89    1
    21    90    93    1
    22    22    23    1
    23   102   105    1
    24    78    79    1
    25    78    81    1
    26    24    23    1
    27    23    26    1
    28    93    94    1
    29   113   114    1
    30   105   106    1
    31    59    58    1
    32    59    60    2
    33    58    61    1
    34    58    57    1
    35   106   108    1
    36   106   107    1
    37    34    35    1
    38    95    94   ar
    39    95    97   ar
    40    61    62    1
    41    37    36    2
    42    26    27    1
    43    94    96   ar
    44   114   115   ar
    45   114   116   ar
    46   115   117   ar
    47    27    28   ar
    48    27    29   ar
    49    36    35    1
    50    28    30   ar
    51    97    99   ar
    52    35    38    1
    53   116   119   ar
    54   116   118   ar
    55    96    98   ar
    56    62    64   ar
    57    62    63   ar
    58   119   121   ar
    59    29    31   ar
    60    64    66   ar
    61    38    40    1
    62    38    39    1
    63    30    32   ar
    64   117   118   ar
    65    84    85    2
    66    84    83    1
    67    31    32   ar
    68   118   120   ar
    69    99    98   ar
    70    99   100    1
    71    32    33    1
    72    63    65   ar
    73   121   122   ar
    74    66    67   ar
    75    83    82    1
    76    83    86    1
    77    56    54    1
    78   120   122   ar
    79    88    86    1
    80    65    67   ar
    81    67    68    1
    82    86    87    1
    83    51    50    1
    84    51    52    2
    85    50    53    1
    86    50    49    1
    87    54    53    1
    88    54    55    1
    89    21    19   ar
    90    19    18    1
    91    19    20   ar
    92    18    17    1
    93     9     7   ar
    94     9    11   ar
    95    17    14    1
    96    12    11    1
    97     7     6   ar
    98    14    15    1
    99    14    13    1
   100    15    16    2
   101    11    10   ar
   102    44    43    2
   103     6     5    1
   104     6     8   ar
   105    10     8   ar
   106    45    46    1
   107    45    42    1
   108    48    46   ar
   109     5     2    1
   110    46    47   ar
   111    43    42    1
   112    41    42    1
   113     2     3    1
   114     2     1    1
   115     3     4    2
