@<TRIPOS>MOLECULE
tmp/3f8kA00.pdb
 205 202 0 0 0
SMALL
GASTEIGER

@<TRIPOS>ATOM
      1  N         35.8660   22.8300   24.0400 N.3    25  ASP25      -0.1239
      2  CA        35.4170   23.1330   22.6850 C.3    25  ASP25       0.1674
      3  C         36.2540   24.2350   22.0360 C.2    25  ASP25       0.2266
      4  O         36.6080   24.1480   20.8600 O.2    25  ASP25      -0.2867
      5  CB        33.9480   23.5810   22.6820 C.3    25  ASP25       0.1410
      6  CG        32.9960   22.5060   23.1750 C.2    25  ASP25       0.3668
      7  OD1       33.1960   21.3160   22.8510 O.co2  25  ASP25      -0.2456
      8  OD2       32.0240   22.8610   23.8770 O.co2  25  ASP25      -0.2456
      9  N         39.7700   23.0750   21.1940 N.3    28  LEU28      -0.1231
     10  CA        39.7720   22.3070   19.9490 C.3    28  LEU28       0.1693
     11  C         39.5240   23.1950   18.7260 C.2    28  LEU28       0.2591
     12  O         40.1110   22.9870   17.6580 O.2    28  LEU28      -0.2718
     13  CB        38.7230   21.1950   20.0360 C.3    28  LEU28       0.0284
     14  CG        39.0640   20.1010   21.0560 C.3    28  LEU28       0.0019
     15  CD1       37.8510   19.2190   21.3110 C.3    28  LEU28       0.0001
     16  CD2       40.2410   19.2820   20.5380 C.3    28  LEU28       0.0001
     17  N         38.6560   24.1890   18.8740 N.am   29  ARG29      -0.1980
     18  CA        38.3620   25.0960   17.7700 C.3    29  ARG29       0.1597
     19  C         39.6180   25.8290   17.2890 C.2    29  ARG29       0.2287
     20  O         39.8030   26.0330   16.0890 O.2    29  ARG29      -0.2864
     21  CB        37.2950   26.1170   18.1880 C.3    29  ARG29       0.0334
     22  CG        37.0850   27.2530   17.1860 C.3    29  ARG29       0.0492
     23  CD        36.6980   26.7370   15.7950 C.3    29  ARG29       0.2205
     24  NE        36.4730   27.8370   14.8530 N.pl3  29  ARG29      -0.0865
     25  CZ        37.4410   28.5400   14.2710 C.cat  29  ARG29       0.5346
     26  NH1       38.7100   28.2570   14.5240 N.pl3  29  ARG29       0.1354
     27  NH2       37.1410   29.5330   13.4380 N.pl3  29  ARG29       0.1354
     28  N         41.7450   24.7000    8.1270 N.3    63  PHE63      -0.1227
     29  CA        40.3960   25.0380    8.5460 C.3    63  PHE63       0.1736
     30  C         40.0890   24.4840    9.9290 C.2    63  PHE63       0.2596
     31  O         40.8140   23.6420   10.4650 O.2    63  PHE63      -0.2718
     32  CB        39.3500   24.5190    7.5510 C.3    63  PHE63       0.0547
     33  CG        39.2230   23.0210    7.5180 C.ar   63  PHE63      -0.0202
     34  CD1       39.9940   22.2630    6.6420 C.ar   63  PHE63      -0.0042
     35  CD2       38.3190   22.3670    8.3550 C.ar   63  PHE63      -0.0042
     36  CE1       39.8660   20.8760    6.5970 C.ar   63  PHE63      -0.0003
     37  CE2       38.1850   20.9740    8.3170 C.ar   63  PHE63      -0.0003
     38  CZ        38.9600   20.2310    7.4350 C.ar   63  PHE63      -0.0000
     39  N         39.0070   24.9800   10.5060 N.am   64  SER64      -0.1938
     40  CA        38.5820   24.5410   11.8170 C.3    64  SER64       0.2055
     41  C         37.1040   24.8600   11.9300 C.2    64  SER64       0.2643
     42  O         36.5470   25.5600   11.0860 O.2    64  SER64      -0.2714
     43  CB        39.3720   25.2640   12.9060 C.3    64  SER64       0.2130
     44  OG        39.2070   24.6130   14.1550 O.3    64  SER64      -0.2179
     45  N         36.4600   24.3270   12.9600 N.am   65  LEU65      -0.1963
     46  CA        35.0430   24.5720   13.1500 C.3    65  LEU65       0.1728
     47  C         34.6120   24.1110   14.5230 C.2    65  LEU65       0.2616
     48  O         35.3620   23.4400   15.2340 O.2    65  LEU65      -0.2715
     49  CB        34.2190   23.8150   12.1110 C.3    65  LEU65       0.0311
     50  CG        34.3040   22.2830   12.1900 C.3    65  LEU65       0.0022
     51  CD1       33.0780   21.6640   11.5220 C.3    65  LEU65       0.0001
     52  CD2       35.5970   21.8000   11.5300 C.3    65  LEU65       0.0001
     53  N         33.3910   24.4790   14.8830 N.am   66  VAL66      -0.1963
     54  CA        32.8330   24.0680   16.1520 C.3    66  VAL66       0.1727
     55  C         31.3230   24.1090   16.0370 C.2    66  VAL66       0.2616
     56  O         30.7630   24.9780   15.3630 O.2    66  VAL66      -0.2715
     57  CB        33.3120   24.9800   17.3040 C.3    66  VAL66       0.0290
     58  CG1       32.8100   26.3930   17.1020 C.3    66  VAL66       0.0023
     59  CG2       32.8560   24.4190   18.6370 C.3    66  VAL66       0.0023
     60  N         30.6720   23.1380   16.6660 N.am   67  VAL67      -0.1977
     61  CA        29.2150   23.0550   16.6710 C.3    67  VAL67       0.1596
     62  C         28.7720   22.9900   18.1310 C.2    67  VAL67       0.2287
     63  O         29.3650   22.2630   18.9240 O.2    67  VAL67      -0.2864
     64  CB        28.7200   21.7880   15.9350 C.3    67  VAL67       0.0276
     65  CG1       27.2100   21.6330   16.1070 C.3    67  VAL67       0.0022
     66  CG2       29.0510   21.8900   14.4510 C.3    67  VAL67       0.0022
     67  N         23.7190   20.4930   19.3590 N.3    71  TYR71      -0.1227
     68  CA        23.3960   20.3390   17.9460 C.3    71  TYR71       0.1736
     69  C         24.3190   19.3670   17.2160 C.2    71  TYR71       0.2595
     70  O         24.3240   19.3140   15.9880 O.2    71  TYR71      -0.2718
     71  CB        23.4100   21.7120   17.2670 C.3    71  TYR71       0.0548
     72  CG        22.2500   22.5830   17.7000 C.ar   71  TYR71      -0.0200
     73  CD1       21.0130   22.5050   17.0560 C.ar   71  TYR71      -0.0009
     74  CD2       22.3680   23.4360   18.7970 C.ar   71  TYR71      -0.0009
     75  CE1       19.9180   23.2550   17.5000 C.ar   71  TYR71       0.0417
     76  CE2       21.2820   24.1890   19.2490 C.ar   71  TYR71       0.0417
     77  CZ        20.0630   24.0920   18.5970 C.ar   71  TYR71       0.1957
     78  OH        18.9940   24.8280   19.0500 O.3    71  TYR71      -0.2866
     79  N         25.0790   18.5860   17.9780 N.am   72  ARG72      -0.1966
     80  CA        26.0070   17.6130   17.4040 C.3    72  ARG72       0.1729
     81  C         25.3600   16.2930   17.0110 C.2    72  ARG72       0.2617
     82  O         24.2630   15.9680   17.4540 O.2    72  ARG72      -0.2715
     83  CB        27.1530   17.3420   18.3820 C.3    72  ARG72       0.0348
     84  CG        28.0190   18.5590   18.6120 C.3    72  ARG72       0.0492
     85  CD        29.1410   18.3040   19.5940 C.3    72  ARG72       0.2205
     86  NE        29.8020   19.5630   19.9030 N.pl3  72  ARG72      -0.0865
     87  CZ        30.6870   19.7400   20.8760 C.cat  72  ARG72       0.5346
     88  NH1       31.0350   18.7260   21.6560 N.pl3  72  ARG72       0.1354
     89  NH2       31.2200   20.9370   21.0670 N.pl3  72  ARG72       0.1354
     90  N         26.0670   15.5470   16.1690 N.am   73  THR73      -0.1937
     91  CA        25.6300   14.2480   15.6730 C.3    73  THR73       0.2028
     92  C         24.3960   14.3440   14.7870 C.2    73  THR73       0.2642
     93  O         23.6510   13.3740   14.6430 O.2    73  THR73      -0.2714
     94  CB        25.3360   13.2640   16.8280 C.3    73  THR73       0.1808
     95  OG1       24.0040   13.4740   17.3140 O.3    73  THR73      -0.2208
     96  CG2       26.3220   13.4840   17.9660 C.3    73  THR73       0.0379
     97  N         24.1780   15.5160   14.1980 N.am   74  LEU74      -0.1963
     98  CA        23.0420   15.7150   13.3100 C.3    74  LEU74       0.1728
     99  C         23.5430   15.9230   11.8890 C.2    74  LEU74       0.2617
    100  O         22.7540   16.1500   10.9730 O.2    74  LEU74      -0.2715
    101  CB        22.2250   16.9290   13.7450 C.3    74  LEU74       0.0311
    102  CG        21.6830   16.9020   15.1760 C.3    74  LEU74       0.0022
    103  CD1       20.8300   18.1360   15.4180 C.3    74  LEU74       0.0001
    104  CD2       20.8530   15.6380   15.3900 C.3    74  LEU74       0.0001
    105  N         24.8610   15.8610   11.7220 N.am   75  GLY75      -0.1940
    106  CA        25.4550   16.0460   10.4100 C.3    75  GLY75       0.2014
    107  C         25.9050   17.4610   10.0800 C.2    75  GLY75       0.2639
    108  O         26.3950   17.7060    8.9780 O.2    75  GLY75      -0.2714
    109  N         25.7550   18.3940   11.0200 N.am   76  ILE76      -0.1963
    110  CA        26.1400   19.7790   10.7690 C.3    76  ILE76       0.1727
    111  C         27.6450   19.9310   10.5600 C.2    76  ILE76       0.2617
    112  O         28.0810   20.5740    9.6060 O.2    76  ILE76      -0.2715
    113  CB        25.6590   20.7070   11.9210 C.3    76  ILE76       0.0290
    114  CG1       24.1340   20.6180   12.0420 C.3    76  ILE76       0.0022
    115  CG2       26.0580   22.1610   11.6350 C.3    76  ILE76       0.0023
    116  CD1       23.5550   21.3420   13.2410 C.3    76  ILE76       0.0001
    117  N         28.4410   19.3300   11.4370 N.am   77  GLY77      -0.1940
    118  CA        29.8860   19.4260   11.2890 C.3    77  GLY77       0.2014
    119  C         30.3250   18.9370    9.9190 C.2    77  GLY77       0.2639
    120  O         31.1560   19.5590    9.2520 O.2    77  GLY77      -0.2714
    121  N         29.7620   17.8150    9.4890 N.am   78  THR78      -0.1950
    122  CA        30.0970   17.2710    8.1810 C.3    78  THR78       0.1897
    123  C         29.7250   18.2600    7.0790 C.2    78  THR78       0.2313
    124  O         30.5120   18.5030    6.1670 O.2    78  THR78      -0.2863
    125  CB        29.3610   15.9380    7.9180 C.3    78  THR78       0.1794
    126  OG1       29.8260   14.9480    8.8410 O.3    78  THR78      -0.2208
    127  CG2       29.6180   15.4540    6.5000 C.3    78  THR78       0.0378
    128  N         43.6910   20.1820    8.5140 N.3    98  PHE98      -0.1227
    129  CA        43.2360   20.4950    9.8560 C.3    98  PHE98       0.1736
    130  C         44.1060   19.7820   10.8800 C.2    98  PHE98       0.2595
    131  O         44.8330   18.8440   10.5420 O.2    98  PHE98      -0.2718
    132  CB        41.7620   20.1040   10.0470 C.3    98  PHE98       0.0547
    133  CG        41.5120   18.6200   10.0860 C.ar   98  PHE98      -0.0202
    134  CD1       41.3110   17.9020    8.9160 C.ar   98  PHE98      -0.0042
    135  CD2       41.4660   17.9420   11.3060 C.ar   98  PHE98      -0.0042
    136  CE1       41.0630   16.5350    8.9540 C.ar   98  PHE98      -0.0003
    137  CE2       41.2210   16.5740   11.3570 C.ar   98  PHE98      -0.0003
    138  CZ        41.0160   15.8670   10.1780 C.ar   98  PHE98      -0.0000
    139  N         44.0280   20.2490   12.1220 N.am   99  TYR99      -0.1962
    140  CA        44.7760   19.6840   13.2450 C.3    99  TYR99       0.1771
    141  C         43.8160   19.5290   14.4150 C.2    99  TYR99       0.2620
    142  O         42.9470   20.3720   14.6200 O.2    99  TYR99      -0.2715
    143  CB        45.8860   20.6320   13.7100 C.3    99  TYR99       0.0574
    144  CG        46.9700   20.9230   12.7080 C.ar   99  TYR99      -0.0198
    145  CD1       48.1410   20.1650   12.6810 C.ar   99  TYR99      -0.0009
    146  CD2       46.8400   21.9720   11.7970 C.ar   99  TYR99      -0.0009
    147  CE1       49.1590   20.4470   11.7770 C.ar   99  TYR99       0.0417
    148  CE2       47.8490   22.2590   10.8840 C.ar   99  TYR99       0.0417
    149  CZ        49.0060   21.4940   10.8800 C.ar   99  TYR99       0.1957
    150  OH        50.0080   21.7700    9.9780 O.3    99  TYR99      -0.2866
    151  N         43.9670   18.4540   15.1790 N.am  100  THR100     -0.1951
    152  CA        43.1450   18.2520   16.3620 C.3   100  THR100      0.1897
    153  C         43.7970   17.2170   17.2790 C.2   100  THR100      0.2313
    154  O         44.9200   16.7810   17.0330 O.2   100  THR100     -0.2863
    155  CB        41.6940   17.8290   16.0130 C.3   100  THR100      0.1794
    156  OG1       40.8550   18.0610   17.1530 O.3   100  THR100     -0.2208
    157  CG2       41.6130   16.3470   15.6450 C.3   100  THR100      0.0378
    158  N         39.7640   13.2630   19.7430 N.3   104  ASN104     -0.1225
    159  CA        38.6510   13.8820   19.0140 C.3   104  ASN104      0.1785
    160  C         38.1010   12.9440   17.9340 C.2   104  ASN104      0.2598
    161  O         38.1880   13.2250   16.7310 O.2   104  ASN104     -0.2718
    162  CB        39.1230   15.1960   18.3770 C.3   104  ASN104      0.1169
    163  CG        37.9740   16.1240   18.0260 C.2   104  ASN104      0.2627
    164  OD1       36.8100   15.7370   18.0900 O.2   104  ASN104     -0.2716
    165  ND2       38.3010   17.3570   17.6480 N.am  104  ASN104     -0.0877
    166  N         37.5170   11.8340   18.3690 N.am  105  THR105     -0.1939
    167  CA        36.9690   10.8390   17.4520 C.3   105  THR105      0.2013
    168  C         36.0170   11.4090   16.3980 C.2   105  THR105      0.2484
    169  O         36.1380   11.0980   15.2140 O.2   105  THR105     -0.2729
    170  CB        36.2360    9.7290   18.2280 C.3   105  THR105      0.1807
    171  OG1       37.0930    9.2290   19.2580 O.3   105  THR105     -0.2208
    172  CG2       35.8720    8.5810   17.3000 C.3   105  THR105      0.0379
    173  N         35.0530   12.2480   16.8110 N.am  106  PRO106     -0.2726
    174  CA        34.1190   12.8170   15.8350 C.3   106  PRO106      0.1402
    175  C         34.8010   13.5320   14.6620 C.2   106  PRO106      0.2269
    176  O         34.4490   13.3090   13.5020 O.2   106  PRO106     -0.2865
    177  CB        33.2700   13.7570   16.6870 C.3   106  PRO106      0.0296
    178  CG        33.2430   13.0520   18.0200 C.3   106  PRO106      0.0237
    179  CD        34.6810   12.6410   18.1830 C.3   106  PRO106      0.0939
    180  N         36.6620   11.1100   12.3880 N.3   108  LYS108     -0.1231
    181  CA        35.7130   10.3550   11.5710 C.3   108  LYS108      0.1693
    182  C         35.3120   11.1670   10.3460 C.2   108  LYS108      0.2591
    183  O         35.2280   10.6380    9.2360 O.2   108  LYS108     -0.2718
    184  CB        34.4610   10.0010   12.3700 C.3   108  LYS108      0.0285
    185  CG        34.6240    8.8240   13.2990 C.3   108  LYS108      0.0035
    186  CD        33.2980    8.4600   13.9490 C.3   108  LYS108      0.0206
    187  CE        33.4330    7.2260   14.8330 C.3   108  LYS108      0.1093
    188  NZ        32.1240    6.8190   15.4050 N.3   108  LYS108     -0.1314
    189  N         35.0450   12.4530   10.5490 N.am  109  ILE109     -0.1980
    190  CA        34.6670   13.3080    9.4370 C.3   109  ILE109      0.1595
    191  C         35.8100   13.3650    8.4400 C.2   109  ILE109      0.2287
    192  O         35.6170   13.1470    7.2440 O.2   109  ILE109     -0.2864
    193  CB        34.3470   14.7410    9.9080 C.3   109  ILE109      0.0276
    194  CG1       33.0940   14.7180   10.7780 C.3   109  ILE109      0.0022
    195  CG2       34.1480   15.6630    8.7060 C.3   109  ILE109      0.0022
    196  CD1       32.7510   16.0600   11.4090 C.3   109  ILE109      0.0001
    197  N         36.1710   10.0020    6.4270 N.3   112  LYS112     -0.1245
    198  CA        35.0920    9.7360    5.4780 C.3   112  LYS112      0.1561
    199  C         35.0700   10.7160    4.3050 C.2   112  LYS112      0.2260
    200  O         34.5720   10.3890    3.2270 O.2   112  LYS112     -0.2867
    201  CB        33.7340    9.7510    6.1850 C.3   112  LYS112      0.0271
    202  CG        33.2210   11.1270    6.5600 C.3   112  LYS112      0.0035
    203  CD        31.8580   11.0200    7.2270 C.3   112  LYS112      0.0206
    204  CE        31.3260   12.3850    7.6270 C.3   112  LYS112      0.1093
    205  NZ        30.0980   12.2580    8.4450 N.3   112  LYS112     -0.1314
@<TRIPOS>BOND
     1   200   199    2
     2   199   198    1
     3   198   201    1
     4   198   197    1
     5   124   123    2
     6   201   202    1
     7   127   125    1
     8   202   203    1
     9    36    34   ar
    10    36    38   ar
    11    34    33   ar
    12   123   122    1
    13   203   204    1
    14   192   191    2
    15    38    37   ar
    16    33    32    1
    17    33    35   ar
    18    32    29    1
    19   204   205    1
    20   125   122    1
    21   125   126    1
    22    28    29    1
    23   122   121    1
    24    37    35   ar
    25   191   190    1
    26   128   129    1
    27    29    30    1
    28   195   193    1
    29   134   136   ar
    30   134   133   ar
    31   136   138   ar
    32   108   107    2
    33   183   182    2
    34   120   119    2
    35   190   193    1
    36   190   189    1
    37   121   119   am
    38   112   111    2
    39   129   132    1
    40   129   130    1
    41   193   194    1
    42   119   118    1
    43    30    31    2
    44    30    39   am
    45   150   149    1
    46   132   133    1
    47   107   106    1
    48   107   109   am
    49   133   135   ar
    50   138   137   ar
    51   182   189   am
    52   182   181    1
    53   106   105    1
    54    39    40    1
    55   131   130    2
    56   111   110    1
    57   111   117   am
    58   110   109    1
    59   110   113    1
    60   194   196    1
    61   149   148   ar
    62   149   147   ar
    63   130   139   am
    64   148   146   ar
    65   100    99    2
    66    42    41    2
    67   118   117    1
    68   135   137   ar
    69    51    50    1
    70    52    50    1
    71   181   184    1
    72   181   180    1
    73   115   113    1
    74   105    99   am
    75   147   145   ar
    76   146   144   ar
    77    40    41    1
    78    40    43    1
    79    99    98    1
    80   113   114    1
    81    41    45   am
    82   114   116    1
    83    49    50    1
    84    49    46    1
    85   139   140    1
    86   184   185    1
    87   145   144   ar
    88   144   143    1
    89    43    44    1
    90    45    46    1
    91    46    47    1
    92   140   143    1
    93   140   141    1
    94   185   186    1
    95    98   101    1
    96    98    97    1
    97    27    25    1
    98   176   175    2
    99   101   102    1
   100   186   187    1
   101    97    92   am
   102    25    26    1
   103    25    24    2
   104   141   142    2
   105   141   151   am
   106    66    64    1
   107    47    53   am
   108    47    48    2
   109    93    92    2
   110   175   174    1
   111    92    91    1
   112   187   188    1
   113    24    23    1
   114    53    54    1
   115   102   104    1
   116   102   103    1
   117   151   152    1
   118   169   168    2
   119    56    55    2
   120   157   155    1
   121    91    90    1
   122    91    94    1
   123    23    22    1
   124   174   177    1
   125   174   173    1
   126    64    65    1
   127    64    61    1
   128    70    69    2
   129   155   152    1
   130   155   156    1
   131    55    54    1
   132    55    60   am
   133    20    19    2
   134    54    57    1
   135    90    81   am
   136   152   153    1
   137   168   173   am
   138   168   167    1
   139    60    61    1
   140    61    62    1
   141   177   178    1
   142   161   160    2
   143   173   179    1
   144    94    95    1
   145    94    96    1
   146    81    80    1
   147    81    82    2
   148   154   153    2
   149    73    75   ar
   150    73    72   ar
   151    58    57    1
   152    22    21    1
   153    69    68    1
   154    69    79   am
   155    71    72    1
   156    71    68    1
   157    19    18    1
   158   172   170    1
   159    57    59    1
   160    80    79    1
   161    80    83    1
   162   167   170    1
   163   167   166    1
   164    75    77   ar
   165   165   163   am
   166    12    11    2
   167    72    74   ar
   168    18    21    1
   169    18    17    1
   170   160   166   am
   171   160   159    1
   172    68    67    1
   173   178   179    1
   174   163   164    2
   175   163   162    1
   176    62    63    2
   177   170   171    1
   178   162   159    1
   179    83    84    1
   180    77    78    1
   181    77    76   ar
   182    84    85    1
   183    11    17   am
   184    11    10    1
   185    74    76   ar
   186   159   158    1
   187    85    86    1
   188    86    87    2
   189    10    13    1
   190    10     9    1
   191    13    14    1
   192    16    14    1
   193     4     3    2
   194    87    89    1
   195    87    88    1
   196    14    15    1
   197     3     2    1
   198     5     2    1
   199     5     6    1
   200     2     1    1
   201     7     6   ar
   202     6     8   ar
