@<TRIPOS>MOLECULE
tmp/3f8pD00.pdb
 172 166 0 0 0
SMALL
GASTEIGER

@<TRIPOS>ATOM
      1  N          9.0180   20.4650   19.4820 N.3    12  VAL12      -0.1231
      2  CA         9.3090   20.2920   20.9020 C.3    12  VAL12       0.1692
      3  C         10.7820   19.9100   21.0570 C.2    12  VAL12       0.2593
      4  O         11.2670   18.8810   20.5190 O.2    12  VAL12      -0.2718
      5  CB         8.4170   19.2080   21.5320 C.3    12  VAL12       0.0266
      6  CG1        8.6640   19.1550   23.0690 C.3    12  VAL12       0.0020
      7  CG2        6.9370   19.5160   21.2640 C.3    12  VAL12       0.0020
      8  N         11.5150   20.7630   21.7540 N.am   13  GLY13      -0.1942
      9  CA        12.9400   20.5060   21.9580 C.3    13  GLY13       0.2014
     10  C         13.7220   21.6330   21.2960 C.2    13  GLY13       0.2639
     11  O         13.1690   22.3680   20.4910 O.2    13  GLY13      -0.2714
     12  N         14.9930   21.7950   21.6480 N.am   14  LEU14      -0.1963
     13  CA        15.8260   22.8430   21.0740 C.3    14  LEU14       0.1728
     14  C         17.2700   22.3590   20.9200 C.2    14  LEU14       0.2617
     15  O         18.2540   23.1210   21.0920 O.2    14  LEU14      -0.2715
     16  CB        15.7650   24.1140   21.9360 C.3    14  LEU14       0.0311
     17  CG        16.3300   25.3910   21.3010 C.3    14  LEU14       0.0022
     18  CD1       15.7810   25.5990   19.9230 C.3    14  LEU14       0.0001
     19  CD2       15.9460   26.6140   22.2020 C.3    14  LEU14       0.0001
     20  N         17.3980   21.0530   20.6460 N.am   15  GLY15      -0.1941
     21  CA        18.7190   20.5050   20.3600 C.3    15  GLY15       0.1998
     22  C         18.8970   20.4960   18.8340 C.2    15  GLY15       0.2481
     23  O         18.0540   21.0380   18.0660 O.2    15  GLY15      -0.2729
     24  N         19.9980   19.9100   18.3430 N.am   16  PRO16      -0.2715
     25  CA        20.2530   19.8550   16.8980 C.3    16  PRO16       0.1536
     26  C         19.0700   19.3920   16.0330 C.2    16  PRO16       0.2598
     27  O         18.7940   19.9970   14.9880 O.2    16  PRO16      -0.2715
     28  CB        21.4380   18.9120   16.8000 C.3    16  PRO16       0.0310
     29  CG        22.2140   19.2210   18.0720 C.3    16  PRO16       0.0237
     30  CD        21.0990   19.2830   19.1050 C.3    16  PRO16       0.0939
     31  N         18.3670   18.3350   16.4480 N.am   17  ALA17      -0.1978
     32  CA        17.2330   17.8790   15.6360 C.3    17  ALA17       0.1597
     33  C         16.1420   18.9750   15.5000 C.2    17  ALA17       0.2287
     34  O         15.6090   19.1880   14.3910 O.2    17  ALA17      -0.2864
     35  CB        16.6550   16.6000   16.2340 C.3    17  ALA17       0.0319
     36  N          9.2930   25.1030   21.0780 N.3    35  ILE35      -0.1231
     37  CA         9.2050   25.1550   22.5330 C.3    35  ILE35       0.1692
     38  C         10.2250   24.1260   23.0440 C.2    35  ILE35       0.2593
     39  O         10.0390   22.9120   22.8780 O.2    35  ILE35      -0.2718
     40  CB         7.7890   24.7530   23.0600 C.3    35  ILE35       0.0266
     41  CG1        6.7230   25.6900   22.4800 C.3    35  ILE35       0.0019
     42  CG2        7.7680   24.8480   24.6050 C.3    35  ILE35       0.0020
     43  CD1        5.2570   25.2500   22.7520 C.3    35  ILE35       0.0001
     44  N         11.2900   24.5940   23.6830 N.am   36  GLY36      -0.1942
     45  CA        12.3030   23.6700   24.1900 C.3    36  GLY36       0.2014
     46  C         12.9010   24.2030   25.4680 C.2    36  GLY36       0.2639
     47  O         13.0410   25.4190   25.6360 O.2    36  GLY36      -0.2714
     48  N         13.3020   23.3130   26.3620 N.am   37  GLU37      -0.1963
     49  CA        13.8030   23.7820   27.6450 C.3    37  GLU37       0.1733
     50  C         15.2190   24.3490   27.6020 C.2    37  GLU37       0.2617
     51  O         15.4700   25.3930   28.2020 O.2    37  GLU37      -0.2715
     52  CB        13.7180   22.6490   28.6780 C.3    37  GLU37       0.0429
     53  CG        14.3490   22.9760   30.0380 C.3    37  GLU37       0.1163
     54  CD        13.5830   23.9990   30.8730 C.2    37  GLU37       0.3649
     55  OE1       12.5340   24.5200   30.4360 O.co2  37  GLU37      -0.2457
     56  OE2       14.0390   24.2810   32.0020 O.co2  37  GLU37      -0.2457
     57  N         16.1290   23.6900   26.8870 N.am   38  THR38      -0.1951
     58  CA        17.5380   24.1440   26.8600 C.3    38  THR38       0.1897
     59  C         18.0940   24.3950   25.4630 C.2    38  THR38       0.2313
     60  O         18.1450   23.4630   24.6380 O.2    38  THR38      -0.2863
     61  CB        18.4530   23.0940   27.4850 C.3    38  THR38       0.1794
     62  OG1       18.0040   22.8040   28.8130 O.3    38  THR38      -0.2208
     63  CG2       19.9160   23.5980   27.5460 C.3    38  THR38       0.0378
     64  N         20.3670   21.6890   23.6180 N.3    41  GLY41      -0.1210
     65  CA        20.2680   20.3170   24.1000 C.3    41  GLY41       0.1956
     66  C         21.5980   19.8220   24.6310 C.2    41  GLY41       0.2612
     67  O         22.3090   20.5600   25.3530 O.2    41  GLY41      -0.2717
     68  N         21.9640   18.5940   24.2630 N.am   42  GLN42      -0.1965
     69  CA        23.2020   17.9920   24.7310 C.3    42  GLN42       0.1733
     70  C         24.4620   18.7370   24.2870 C.2    42  GLN42       0.2616
     71  O         25.5220   18.5030   24.8650 O.2    42  GLN42      -0.2715
     72  CB        23.3070   16.5140   24.3000 C.3    42  GLN42       0.0408
     73  CG        22.3110   15.5060   24.9350 C.3    42  GLN42       0.0908
     74  CD        22.2650   14.1560   24.1400 C.2    42  GLN42       0.2608
     75  OE1       23.3310   13.5560   23.8690 O.2    42  GLN42      -0.2717
     76  NE2       21.0370   13.6830   23.7560 N.am   42  GLN42      -0.0878
     77  N         24.3740   19.6080   23.2780 N.am   43  LEU43      -0.1977
     78  CA        25.5490   20.3850   22.8540 C.3    43  LEU43       0.1596
     79  C         26.0750   21.2490   24.0000 C.2    43  LEU43       0.2287
     80  O         27.2380   21.6480   24.0050 O.2    43  LEU43      -0.2864
     81  CB        25.2360   21.3120   21.6720 C.3    43  LEU43       0.0297
     82  CG        25.1740   20.5590   20.3430 C.3    43  LEU43       0.0022
     83  CD1       24.9000   21.5310   19.1970 C.3    43  LEU43       0.0001
     84  CD2       26.4860   19.8470   20.1280 C.3    43  LEU43       0.0001
     85  N         10.6730   26.5040   27.5950 N.3    81  ASP81      -0.1225
     86  CA         9.8060   25.8920   28.5890 C.3    81  ASP81       0.1805
     87  C          9.7380   24.4000   28.3040 C.2    81  ASP81       0.2598
     88  O         10.2650   23.9140   27.2960 O.2    81  ASP81      -0.2718
     89  CB         8.3990   26.4980   28.5030 C.3    81  ASP81       0.1424
     90  CG         7.5700   26.2980   29.7940 C.2    81  ASP81       0.3668
     91  OD1        8.0990   25.7900   30.7970 O.co2  81  ASP81      -0.2456
     92  OD2        6.3690   26.6520   29.8100 O.co2  81  ASP81      -0.2456
     93  N          9.0680   23.6880   29.1990 N.am   82  ILE82      -0.1966
     94  CA         8.8900   22.2600   29.0900 C.3    82  ILE82       0.1727
     95  C          7.4780   21.9710   28.5940 C.2    82  ILE82       0.2616
     96  O          6.4830   22.5360   29.0970 O.2    82  ILE82      -0.2715
     97  CB         9.0820   21.5840   30.4620 C.3    82  ILE82       0.0290
     98  CG1       10.5590   21.6530   30.8530 C.3    82  ILE82       0.0022
     99  CG2        8.5540   20.1630   30.4280 C.3    82  ILE82       0.0023
    100  CD1       10.8430   21.3070   32.2820 C.3    82  ILE82       0.0001
    101  N          7.3940   21.1110   27.5800 N.am   83  VAL83      -0.1977
    102  CA         6.0950   20.7010   27.0810 C.3    83  VAL83       0.1596
    103  C          5.6880   19.5350   27.9980 C.2    83  VAL83       0.2287
    104  O          6.4310   18.5520   28.1510 O.2    83  VAL83      -0.2864
    105  CB         6.1970   20.2420   25.6150 C.3    83  VAL83       0.0276
    106  CG1        4.9250   19.5220   25.1830 C.3    83  VAL83       0.0022
    107  CG2        6.4410   21.4830   24.7320 C.3    83  VAL83       0.0022
    108  N         11.6400   16.6150   19.0710 N.3   111  GLY111     -0.1210
    109  CA        13.0980   16.5020   18.9750 C.3   111  GLY111      0.1956
    110  C         13.5410   16.5610   20.4270 C.2   111  GLY111      0.2612
    111  O         14.4440   17.3420   20.7920 O.2   111  GLY111     -0.2717
    112  N         12.9340   15.7110   21.2560 N.am  112  ILE112     -0.1965
    113  CA        13.1940   15.7160   22.6890 C.3   112  ILE112      0.1727
    114  C         14.4410   15.0130   23.1990 C.2   112  ILE112      0.2617
    115  O         14.7640   15.1100   24.3820 O.2   112  ILE112     -0.2715
    116  CB        11.9510   15.1880   23.4730 C.3   112  ILE112      0.0290
    117  CG1       11.6510   13.7440   23.0740 C.3   112  ILE112      0.0022
    118  CG2       10.7170   16.0730   23.1530 C.3   112  ILE112      0.0023
    119  CD1       10.5550   13.1040   24.0070 C.3   112  ILE112      0.0001
    120  N         15.1550   14.3380   22.3060 N.am  113  GLY113     -0.1940
    121  CA        16.3920   13.6560   22.6780 C.3   113  GLY113      0.2014
    122  C         16.3060   12.6520   23.8030 C.2   113  GLY113      0.2639
    123  O         15.2210   12.1410   24.1180 O.2   113  GLY113     -0.2714
    124  N         17.4640   12.3080   24.3790 N.am  114  VAL114     -0.1963
    125  CA        17.4690   11.3880   25.5130 C.3   114  VAL114      0.1727
    126  C         18.4200   11.8740   26.5610 C.2   114  VAL114      0.2616
    127  O         19.3460   12.6120   26.2660 O.2   114  VAL114     -0.2715
    128  CB        17.8610    9.9390   25.1520 C.3   114  VAL114      0.0290
    129  CG1       16.6650    9.2490   24.4960 C.3   114  VAL114      0.0023
    130  CG2       19.1030    9.9160   24.2920 C.3   114  VAL114      0.0023
    131  N         18.1700   11.4740   27.7930 N.am  115  LYS115     -0.1977
    132  CA        19.0240   11.8990   28.8800 C.3   115  LYS115      0.1596
    133  C         20.2090   10.9670   29.0670 C.2   115  LYS115      0.2287
    134  O         20.0510    9.7630   29.1060 O.2   115  LYS115     -0.2864
    135  CB        18.2090   11.9620   30.1730 C.3   115  LYS115      0.0298
    136  CG        17.2490   13.1560   30.2600 C.3   115  LYS115      0.0038
    137  CD        18.0390   14.4320   30.5060 C.3   115  LYS115      0.0206
    138  CE        17.1550   15.6520   30.6960 C.3   115  LYS115      0.1093
    139  NZ        18.0450   16.8600   30.8660 N.3   115  LYS115     -0.1314
    140  N          7.5760    9.8330   28.3610 N.3   246  PHE246     -0.1241
    141  CA         6.9280   10.9150   27.6250 C.3   246  PHE246      0.1605
    142  C          6.1460   10.2980   26.4540 C.2   246  PHE246      0.2264
    143  O          5.0520   10.7360   26.1490 O.2   246  PHE246     -0.2867
    144  CB         7.9670   11.9280   27.0780 C.3   246  PHE246      0.0534
    145  CG         7.3550   13.1030   26.3400 C.ar  246  PHE246     -0.0203
    146  CD1        6.9970   14.2650   27.0130 C.ar  246  PHE246     -0.0042
    147  CD2        7.1200   13.0250   24.9690 C.ar  246  PHE246     -0.0042
    148  CE1        6.4120   15.3370   26.3270 C.ar  246  PHE246     -0.0003
    149  CE2        6.5420   14.0840   24.2770 C.ar  246  PHE246     -0.0003
    150  CZ         6.1850   15.2380   24.9530 C.ar  246  PHE246     -0.0000
    151  N         12.4110   13.3570   15.4910 N.3   276  ALA276     -0.1231
    152  CA        13.7410   13.4370   14.8960 C.3   276  ALA276      0.1694
    153  C         14.8080   13.4660   15.9660 C.2   276  ALA276      0.2593
    154  O         14.5630   13.9190   17.0760 O.2   276  ALA276     -0.2718
    155  CB        13.8560   14.7370   14.0710 C.3   276  ALA276      0.0304
    156  N         15.9930   12.9990   15.6110 N.am  277  GLY277     -0.1942
    157  CA        17.0910   13.0090   16.5720 C.3   277  GLY277      0.2014
    158  C         17.1490   11.7700   17.4530 C.2   277  GLY277      0.2638
    159  O         16.5640   10.7130   17.1540 O.2   277  GLY277     -0.2714
    160  N         17.8810   11.9270   18.5560 N.am  278  ASP278     -0.1971
    161  CA        18.1940   10.9110   19.5740 C.3   278  ASP278      0.1709
    162  C         17.0430   10.2050   20.2140 C.2   278  ASP278      0.2293
    163  O         17.2200    9.1230   20.7530 O.2   278  ASP278     -0.2864
    164  CB        18.9190   11.5890   20.7600 C.3   278  ASP278      0.1436
    165  CG        20.3470   11.4650   20.6510 C.2   278  ASP278      0.3671
    166  OD1       20.7630   11.2340   19.4910 O.co2 278  ASP278     -0.2456
    167  OD2       21.0430   11.6010   21.6880 O.co2 278  ASP278     -0.2456
    168  N         21.1740   14.0280   13.4600 N.3   292  ALA292     -0.1245
    169  CA        19.9970   14.6500   14.1020 C.3   292  ALA292      0.1562
    170  C         19.4500   15.7940   13.2570 C.2   292  ALA292      0.2260
    171  O         18.2240   15.9280   13.0850 O.2   292  ALA292     -0.2867
    172  CB        20.3110   15.1720   15.5010 C.3   292  ALA292      0.0290
@<TRIPOS>BOND
     1   171   170    2
     2   170   169    1
     3   168   169    1
     4   155   152    1
     5   169   172    1
     6    34    33    2
     7   152   151    1
     8   152   153    1
     9    27    26    2
    10    33    32    1
    11   156   153   am
    12   156   157    1
    13    32    35    1
    14    32    31    1
    15   153   154    2
    16    26    31   am
    17    26    25    1
    18   157   158    1
    19    28    25    1
    20    28    29    1
    21    25    24    1
    22   159   158    2
    23   158   160   am
    24    23    22    2
    25    29    30    1
    26    24    22   am
    27    24    30    1
    28   160   161    1
    29    22    21    1
    30   109   108    1
    31   109   110    1
    32    83    82    1
    33     1     2    1
    34   166   165   ar
    35   161   162    1
    36   161   164    1
    37    18    17    1
    38    84    82    1
    39   162   163    2
    40    82    81    1
    41    21    20    1
    42   110   111    2
    43   110   112   am
    44    11    10    2
    45     4     3    2
    46    20    14   am
    47   165   164    1
    48   165   167   ar
    49     2     3    1
    50     2     5    1
    51    14    13    1
    52    14    15    2
    53     3     8   am
    54    13    12    1
    55    13    16    1
    56    36    37    1
    57   112   113    1
    58     7     5    1
    59    10    12   am
    60    10     9    1
    61    17    16    1
    62    17    19    1
    63     5     6    1
    64    81    78    1
    65     8     9    1
    66   120   121    1
    67   120   114   am
    68    41    43    1
    69    41    40    1
    70    37    38    1
    71    37    40    1
    72   121   122    1
    73   113   114    1
    74   113   116    1
    75    78    77    1
    76    78    79    1
    77    39    38    2
    78    38    44   am
    79    40    42    1
    80   117   116    1
    81   117   119    1
    82   118   116    1
    83   114   115    2
    84    77    70   am
    85    64    65    1
    86    44    45    1
    87    76    74   am
    88   122   123    2
    89   122   124   am
    90    75    74    2
    91    79    80    2
    92    65    66    1
    93    74    73    1
    94    45    46    1
    95    68    66   am
    96    68    69    1
    97   149   150   ar
    98   149   147   ar
    99    70    69    1
   100    70    71    2
   101   130   128    1
   102    72    69    1
   103    72    73    1
   104   124   125    1
   105   129   128    1
   106    66    67    2
   107    60    59    2
   108   107   105    1
   109   150   148   ar
   110   147   145   ar
   111   128   125    1
   112   106   105    1
   113    59    58    1
   114    46    47    2
   115    46    48   am
   116   125   126    1
   117   105   102    1
   118   143   142    2
   119   127   126    2
   120   148   146   ar
   121   145   146   ar
   122   145   144    1
   123    48    49    1
   124   142   141    1
   125   126   131   am
   126    58    57    1
   127    58    61    1
   128    57    50   am
   129   144   141    1
   130   102   101    1
   131   102   103    1
   132    88    87    2
   133    61    63    1
   134    61    62    1
   135   101    95   am
   136    85    86    1
   137    50    49    1
   138    50    51    2
   139   141   140    1
   140    49    52    1
   141   131   132    1
   142   103   104    2
   143    87    86    1
   144    87    93   am
   145    89    86    1
   146    89    90    1
   147    95    94    1
   148    95    96    2
   149    52    53    1
   150   132   133    1
   151   132   135    1
   152   133   134    2
   153    94    93    1
   154    94    97    1
   155    90    92   ar
   156    90    91   ar
   157    53    54    1
   158   135   136    1
   159   136   137    1
   160    99    97    1
   161    55    54   ar
   162    97    98    1
   163   137   138    1
   164   138   139    1
   165    98   100    1
   166    54    56   ar
