@<TRIPOS>MOLECULE
tmp/3f8rD00.pdb
 215 206 0 0 0
SMALL
GASTEIGER

@<TRIPOS>ATOM
      1  N         23.0380    8.6170   30.3760 N.3   114  ARG114     -0.1231
      2  CA        23.0940    7.8440   31.6140 C.3   114  ARG114      0.1694
      3  C         24.3300    8.3440   32.3810 C.2   114  ARG114      0.2592
      4  O         25.3780    8.6120   31.7750 O.2   114  ARG114     -0.2718
      5  CB        23.2140    6.3610   31.2750 C.3   114  ARG114      0.0321
      6  CG        22.7770    5.4170   32.3600 C.3   114  ARG114      0.0489
      7  CD        22.6780    4.0060   31.8060 C.3   114  ARG114      0.2205
      8  NE        21.4510    3.7830   31.0520 N.pl3 114  ARG114     -0.0865
      9  CZ        21.3120    2.8470   30.1160 C.cat 114  ARG114      0.5346
     10  NH1       22.3280    2.0500   29.8020 N.pl3 114  ARG114      0.1354
     11  NH2       20.1460    2.6830   29.5120 N.pl3 114  ARG114      0.1354
     12  N         24.2060    8.4650   33.7010 N.am  115  LYS115     -0.1966
     13  CA        25.2910    8.9970   34.5300 C.3   115  LYS115      0.1728
     14  C         26.0590    8.0140   35.4020 C.2   115  LYS115      0.2616
     15  O         25.4980    7.0940   35.9860 O.2   115  LYS115     -0.2715
     16  CB        24.7500   10.1230   35.4250 C.3   115  LYS115      0.0311
     17  CG        23.9770   11.1840   34.6520 C.3   115  LYS115      0.0038
     18  CD        23.3420   12.2210   35.5610 C.3   115  LYS115      0.0206
     19  CE        22.5000   13.1910   34.7440 C.3   115  LYS115      0.1093
     20  NZ        22.0540   14.3540   35.5520 N.3   115  LYS115     -0.1314
     21  N         27.3580    8.2580   35.4910 N.am  116  LEU116     -0.1977
     22  CA        28.2660    7.4480   36.2770 C.3   116  LEU116      0.1596
     23  C         28.0090    7.8110   37.7420 C.2   116  LEU116      0.2287
     24  O         27.9230    6.9370   38.6100 O.2   116  LEU116     -0.2864
     25  CB        29.6950    7.7980   35.8690 C.3   116  LEU116      0.0297
     26  CG        30.7520    6.6960   35.8450 C.3   116  LEU116      0.0022
     27  CD1       30.2380    5.4630   35.1090 C.3   116  LEU116      0.0001
     28  CD2       32.0090    7.2480   35.1820 C.3   116  LEU116      0.0001
     29  N         34.7120    3.5010   29.7650 N.3   148  ILE148     -0.1231
     30  CA        33.9040    2.8250   30.7700 C.3   148  ILE148      0.1692
     31  C         32.5790    2.3140   30.2220 C.2   148  ILE148      0.2593
     32  O         31.7860    3.0920   29.6700 O.2   148  ILE148     -0.2718
     33  CB        33.6320    3.7770   31.9220 C.3   148  ILE148      0.0266
     34  CG1       34.9750    4.1930   32.5420 C.3   148  ILE148      0.0019
     35  CG2       32.6780    3.1300   32.9260 C.3   148  ILE148      0.0020
     36  CD1       34.9150    5.4850   33.2820 C.3   148  ILE148      0.0001
     37  N         32.3470    1.0060   30.3840 N.am  149  GLY149     -0.1942
     38  CA        31.1140    0.3990   29.9320 C.3   149  GLY149      0.2014
     39  C         31.3590   -0.9440   29.2790 C.2   149  GLY149      0.2639
     40  O         32.5130   -1.3110   29.0560 O.2   149  GLY149     -0.2714
     41  N         30.2910   -1.6770   28.9670 N.am  150  GLY150     -0.1939
     42  CA        30.4680   -2.9800   28.3420 C.3   150  GLY150      0.2014
     43  C         29.5360   -3.2820   27.1910 C.2   150  GLY150      0.2639
     44  O         29.3740   -4.4400   26.8270 O.2   150  GLY150     -0.2714
     45  N         28.9180   -2.2560   26.6080 N.am  151  GLY151     -0.1939
     46  CA        28.0070   -2.4860   25.4990 C.3   151  GLY151      0.2014
     47  C         28.6470   -2.2020   24.1530 C.2   151  GLY151      0.2639
     48  O         29.8820   -2.1280   24.0530 O.2   151  GLY151     -0.2714
     49  N         27.8220   -2.0400   23.1200 N.am  152  ASP152     -0.1957
     50  CA        28.3300   -1.7600   21.7820 C.3   152  ASP152      0.1840
     51  C         29.1160   -0.4480   21.7660 C.2   152  ASP152      0.2622
     52  O         30.1840   -0.3720   21.1650 O.2   152  ASP152     -0.2715
     53  CB        27.1890   -1.6410   20.7500 C.3   152  ASP152      0.1450
     54  CG        26.5390   -2.9760   20.4140 C.2   152  ASP152      0.3671
     55  OD1       27.2800   -3.9830   20.3040 O.co2 152  ASP152     -0.2456
     56  OD2       25.2870   -2.9920   20.2480 O.co2 152  ASP152     -0.2456
     57  N         28.5610    0.5880   22.3980 N.am  153  SER153     -0.1950
     58  CA        29.2200    1.8880   22.4370 C.3   153  SER153      0.1924
     59  C         30.6110    1.8710   23.0570 C.2   153  SER153      0.2314
     60  O         31.5230    2.4990   22.5250 O.2   153  SER153     -0.2863
     61  CB        28.3570    2.9050   23.1840 C.3   153  SER153      0.2116
     62  OG        27.3300    3.4090   22.3370 O.3   153  SER153     -0.2180
     63  N         32.9780   -0.4440   20.5470 N.3   156  GLU156     -0.1245
     64  CA        33.3600    0.2600   19.3230 C.3   156  GLU156      0.1567
     65  C         34.2210    1.4730   19.7440 C.2   156  GLU156      0.2260
     66  O         35.1680    1.8560   19.0630 O.2   156  GLU156     -0.2867
     67  CB        32.1170    0.7130   18.5490 C.3   156  GLU156      0.0388
     68  CG        32.4330    1.2540   17.1400 C.3   156  GLU156      0.1160
     69  CD        31.1900    1.4750   16.2910 C.2   156  GLU156      0.3649
     70  OE1       30.3950    2.3970   16.6040 O.co2 156  GLU156     -0.2457
     71  OE2       31.0060    0.7180   15.3060 O.co2 156  GLU156     -0.2457
     72  N         35.0460   -2.2320   32.9250 N.3   172  HIS172     -0.1226
     73  CA        33.6520   -2.6750   32.9570 C.3   172  HIS172      0.1752
     74  C         33.3150   -3.4190   34.2590 C.2   172  HIS172      0.2596
     75  O         33.9760   -4.3990   34.5990 O.2   172  HIS172     -0.2718
     76  CB        33.3680   -3.5730   31.7580 C.3   172  HIS172      0.0759
     77  CG        31.9600   -4.0770   31.7060 C.ar  172  HIS172      0.0818
     78  ND1       30.8690   -3.2420   31.8170 N.ar  172  HIS172     -0.2268
     79  CD2       31.4660   -5.3270   31.5570 C.ar  172  HIS172      0.1154
     80  CE1       29.7630   -3.9590   31.7400 C.ar  172  HIS172      0.1986
     81  NE2       30.0960   -5.2280   31.5820 N.ar  172  HIS172     -0.2212
     82  N         32.2800   -2.9550   34.9600 N.am  173  ARG173     -0.1966
     83  CA        31.8570   -3.5200   36.2460 C.3   173  ARG173      0.1729
     84  C         31.5190   -5.0090   36.2330 C.2   173  ARG173      0.2616
     85  O         31.7850   -5.7130   37.1990 O.2   173  ARG173     -0.2715
     86  CB        30.6620   -2.7330   36.8070 C.3   173  ARG173      0.0348
     87  CG        29.3670   -2.8890   36.0230 C.3   173  ARG173      0.0492
     88  CD        28.3110   -1.9250   36.5450 C.3   173  ARG173      0.2205
     89  NE        27.0730   -2.0120   35.7760 N.pl3 173  ARG173     -0.0865
     90  CZ        26.0000   -1.2520   35.9800 C.cat 173  ARG173      0.5346
     91  NH1       25.9980   -0.3310   36.9360 N.pl3 173  ARG173      0.1354
     92  NH2       24.9220   -1.4210   35.2220 N.pl3 173  ARG173      0.1354
     93  N         30.9330   -5.4860   35.1420 N.am  174  ARG174     -0.1977
     94  CA        30.5800   -6.8890   35.0480 C.3   174  ARG174      0.1597
     95  C         31.8420   -7.6960   34.8670 C.2   174  ARG174      0.2287
     96  O         32.9590   -7.1780   34.9150 O.2   174  ARG174     -0.2864
     97  CB        29.6400   -7.1420   33.8660 C.3   174  ARG174      0.0334
     98  CG        28.2090   -7.5250   34.2400 C.3   174  ARG174      0.0492
     99  CD        27.5070   -6.4500   35.0520 C.3   174  ARG174      0.2205
    100  NE        26.0630   -6.6830   35.1150 N.pl3 174  ARG174     -0.0865
    101  CZ        25.1950   -5.8710   35.7180 C.cat 174  ARG174      0.5346
    102  NH1       25.6160   -4.7620   36.3190 N.pl3 174  ARG174      0.1354
    103  NH2       23.9010   -6.1610   35.7160 N.pl3 174  ARG174      0.1354
    104  N         28.2070   -7.2810   27.1150 N.3   178  LYS178     -0.1245
    105  CA        26.9190   -7.5040   26.4650 C.3   178  LYS178      0.1561
    106  C         26.9840   -6.9490   25.0420 C.2   178  LYS178      0.2260
    107  O         25.9930   -6.9440   24.3060 O.2   178  LYS178     -0.2867
    108  CB        25.7960   -6.8180   27.2460 C.3   178  LYS178      0.0271
    109  CG        25.3900   -5.4550   26.7210 C.3   178  LYS178      0.0035
    110  CD        24.7210   -4.6610   27.8090 C.3   178  LYS178      0.0206
    111  CE        25.6990   -4.4370   28.9620 C.3   178  LYS178      0.1093
    112  NZ        26.8550   -3.5290   28.6400 N.3   178  LYS178     -0.1314
    113  N         27.9700   -6.9510   21.1680 N.3   180  GLN180     -0.1245
    114  CA        27.9960   -8.0390   20.1950 C.3   180  GLN180      0.1566
    115  C         29.2520   -8.8900   20.3810 C.2   180  GLN180      0.2260
    116  O         30.3500   -8.3560   20.5820 O.2   180  GLN180     -0.2867
    117  CB        27.9800   -7.4890   18.7640 C.3   180  GLN180      0.0367
    118  CG        26.7500   -6.6810   18.3970 C.3   180  GLN180      0.0905
    119  CD        26.7620   -6.2610   16.9450 C.2   180  GLN180      0.2608
    120  OE1       26.8870   -7.0980   16.0510 O.2   180  GLN180     -0.2717
    121  NE2       26.6310   -4.9600   16.6990 N.am  180  GLN180     -0.0878
    122  N         32.1850   -7.7990   18.2600 N.3   183  TYR183     -0.1241
    123  CA        32.8660   -6.5870   18.7090 C.3   183  TYR183      0.1605
    124  C         33.8880   -6.9140   19.7830 C.2   183  TYR183      0.2264
    125  O         35.0600   -6.5560   19.6660 O.2   183  TYR183     -0.2867
    126  CB        31.8620   -5.5770   19.2770 C.3   183  TYR183      0.0534
    127  CG        31.3360   -4.5690   18.2800 C.ar  183  TYR183     -0.0201
    128  CD1       30.5140   -4.9580   17.2260 C.ar  183  TYR183     -0.0009
    129  CD2       31.6720   -3.2250   18.3900 C.ar  183  TYR183     -0.0009
    130  CE1       30.0420   -4.0290   16.3040 C.ar  183  TYR183      0.0417
    131  CE2       31.2110   -2.2920   17.4830 C.ar  183  TYR183      0.0417
    132  CZ        30.3980   -2.6960   16.4410 C.ar  183  TYR183      0.1957
    133  OH        29.9540   -1.7610   15.5340 O.3   183  TYR183     -0.2866
    134  N         34.8690   -0.7120   38.8530 N.3   200  VAL200     -0.1245
    135  CA        34.0990    0.5170   38.6810 C.3   200  VAL200      0.1561
    136  C         35.0390    1.6810   38.9480 C.2   200  VAL200      0.2260
    137  O         36.0890    1.5140   39.5570 O.2   200  VAL200     -0.2867
    138  CB        32.8710    0.6210   39.6550 C.3   200  VAL200      0.0252
    139  CG1       31.8560   -0.4290   39.3100 C.3   200  VAL200      0.0019
    140  CG2       33.3210    0.4990   41.1010 C.3   200  VAL200      0.0019
    141  N         30.8070    5.4280   28.2940 N.3   226  GLU226     -0.1231
    142  CA        29.9430    4.7770   27.3260 C.3   226  GLU226      0.1699
    143  C         29.0090    3.7800   28.0120 C.2   226  GLU226      0.2592
    144  O         29.0730    2.5710   27.7730 O.2   226  GLU226     -0.2718
    145  CB        30.8200    4.0780   26.2740 C.3   226  GLU226      0.0402
    146  CG        31.7440    5.0240   25.5050 C.3   226  GLU226      0.1161
    147  CD        31.0220    5.8700   24.4290 C.2   226  GLU226      0.3649
    148  OE1       29.8020    5.7790   24.3170 O.co2 226  GLU226     -0.2457
    149  OE2       31.6880    6.6280   23.6930 O.co2 226  GLU226     -0.2457
    150  N         28.1210    4.2860   28.8650 N.am  227  ILE227     -0.1966
    151  CA        27.2300    3.3880   29.6050 C.3   227  ILE227      0.1727
    152  C         25.7630    3.4070   29.1490 C.2   227  ILE227      0.2617
    153  O         24.8560    2.9570   29.8600 O.2   227  ILE227     -0.2715
    154  CB        27.3170    3.6870   31.1040 C.3   227  ILE227      0.0290
    155  CG1       27.1220    5.1770   31.3590 C.3   227  ILE227      0.0022
    156  CG2       28.6890    3.2950   31.6230 C.3   227  ILE227      0.0023
    157  CD1       26.9520    5.5390   32.8520 C.3   227  ILE227      0.0001
    158  N         25.5390    3.9300   27.9530 N.am  228  GLY228     -0.1940
    159  CA        24.1920    3.9530   27.4210 C.3   228  GLY228      0.2014
    160  C         23.3700    5.1960   27.6890 C.2   228  GLY228      0.2638
    161  O         23.8080    6.1550   28.3380 O.2   228  GLY228     -0.2714
    162  N         22.1500    5.1590   27.1760 N.am  229  PHE229     -0.1973
    163  CA        21.2330    6.2770   27.2950 C.3   229  PHE229      0.1639
    164  C         19.8640    5.7760   27.6700 C.2   229  PHE229      0.2290
    165  O         19.5630    4.5910   27.5230 O.2   229  PHE229     -0.2864
    166  CB        21.1270    7.0300   25.9620 C.3   229  PHE229      0.0560
    167  CG        22.4370    7.5460   25.4580 C.ar  229  PHE229     -0.0200
    168  CD1       23.2930    6.7180   24.7510 C.ar  229  PHE229     -0.0042
    169  CD2       22.8460    8.8320   25.7630 C.ar  229  PHE229     -0.0042
    170  CE1       24.5450    7.1560   24.3560 C.ar  229  PHE229     -0.0003
    171  CE2       24.1050    9.2880   25.3720 C.ar  229  PHE229     -0.0003
    172  CZ        24.9540    8.4440   24.6690 C.ar  229  PHE229     -0.0000
    173  N         13.5520   -1.0230   21.9920 N.3   246  ASN246     -0.1240
    174  CA        14.5950   -0.4080   22.7920 C.3   246  ASN246      0.1653
    175  C         14.0020    0.7950   23.5630 C.2   246  ASN246      0.2266
    176  O         14.6930    1.4470   24.3350 O.2   246  ASN246     -0.2867
    177  CB        15.7660    0.0170   21.8830 C.3   246  ASN246      0.1155
    178  CG        16.4860   -1.1860   21.2690 C.2   246  ASN246      0.2627
    179  OD1       17.0500   -2.0130   21.9890 O.2   246  ASN246     -0.2716
    180  ND2       16.4490   -1.3010   19.9410 N.am  246  ASN246     -0.0877
    181  N         12.6870    3.5780   22.1430 N.3   248  TYR248     -0.1241
    182  CA        12.7760    4.8430   21.3810 C.3   248  TYR248      0.1605
    183  C         11.5110    5.0920   20.5850 C.2   248  TYR248      0.2264
    184  O         10.7860    4.1500   20.2880 O.2   248  TYR248     -0.2867
    185  CB        13.9680    4.7930   20.4140 C.3   248  TYR248      0.0534
    186  CG        15.2920    4.8620   21.1160 C.ar  248  TYR248     -0.0201
    187  CD1       15.7870    3.7660   21.8370 C.ar  248  TYR248     -0.0009
    188  CD2       16.0530    6.0370   21.0870 C.ar  248  TYR248     -0.0009
    189  CE1       17.0150    3.8420   22.5170 C.ar  248  TYR248      0.0417
    190  CE2       17.2630    6.1170   21.7580 C.ar  248  TYR248      0.0417
    191  CZ        17.7310    5.0260   22.4690 C.ar  248  TYR248      0.1957
    192  OH        18.9040    5.1450   23.1660 O.3   248  TYR248     -0.2866
    193  N         19.7250    3.9950   15.2790 N.3   273  LEU273     -0.1231
    194  CA        19.8770    3.7530   16.6900 C.3   273  LEU273      0.1693
    195  C         21.3400    3.5120   17.0300 C.2   273  LEU273      0.2592
    196  O         22.0020    2.6630   16.4250 O.2   273  LEU273     -0.2718
    197  CB        19.0320    2.5330   17.0780 C.3   273  LEU273      0.0284
    198  CG        18.7730    2.2600   18.5610 C.3   273  LEU273      0.0019
    199  CD1       20.0420    1.7430   19.2300 C.3   273  LEU273      0.0001
    200  CD2       18.2550    3.5390   19.2240 C.3   273  LEU273      0.0001
    201  N         21.8210    4.2720   18.0080 N.am  274  GLY274     -0.1957
    202  CA        23.1890    4.1550   18.4580 C.3   274  GLY274      0.1869
    203  C         24.0840    5.2540   17.9070 C.2   274  GLY274      0.2309
    204  O         24.8430    5.8810   18.6550 O.2   274  GLY274     -0.2863
    205  N         24.5360    8.4760   17.2390 N.3   276  ARG276     -0.1245
    206  CA        24.0180    9.7710   17.6740 C.3   276  ARG276      0.1563
    207  C         24.9900   10.8960   17.3490 C.2   276  ARG276      0.2260
    208  O         25.8970   11.1780   18.1400 O.2   276  ARG276     -0.2867
    209  CB        23.8220    9.7640   19.1840 C.3   276  ARG276      0.0307
    210  CG        23.3340    8.4500   19.7560 C.3   276  ARG276      0.0489
    211  CD        23.0810    8.6090   21.2520 C.3   276  ARG276      0.2205
    212  NE        21.7040    8.2490   21.5730 N.pl3 276  ARG276     -0.0865
    213  CZ        21.3220    7.0640   22.0350 C.cat 276  ARG276      0.5346
    214  NH1       22.2100    6.0960   22.2600 N.pl3 276  ARG276      0.1354
    215  NH2       20.0380    6.8410   22.2360 N.pl3 276  ARG276      0.1354
@<TRIPOS>BOND
     1   193   194    1
     2    71    69   ar
     3   133   132    1
     4   120   119    2
     5    69    70   ar
     6    69    68    1
     7   130   132   ar
     8   130   128   ar
     9   196   195    2
    10   132   131   ar
    11   194   195    1
    12   194   197    1
    13   121   119   am
    14   119   118    1
    15   195   201   am
    16   197   198    1
    17    68    67    1
    18   128   127   ar
    19   205   206    1
    20   207   206    1
    21   207   208    2
    22   131   129   ar
    23   206   209    1
    24   203   202    1
    25   203   204    2
    26   201   202    1
    27   122   123    1
    28   127   129   ar
    29   127   126    1
    30   118   117    1
    31    67    64    1
    32   198   200    1
    33   198   199    1
    34   123   126    1
    35   123   124    1
    36   117   114    1
    37    66    65    2
    38   209   210    1
    39    64    65    1
    40    64    63    1
    41   125   124    2
    42   210   211    1
    43   180   178   am
    44   114   115    1
    45   114   113    1
    46    56    54   ar
    47   184   183    2
    48    55    54   ar
    49   115   116    2
    50   185   186    1
    51   185   182    1
    52    54    53    1
    53   183   182    1
    54    53    50    1
    55   188   186   ar
    56   188   190   ar
    57   186   187   ar
    58    52    51    2
    59   211   212    1
    60   178   177    1
    61   178   179    2
    62   182   181    1
    63   212   213    2
    64   190   191   ar
    65    51    50    1
    66    51    57   am
    67    50    49    1
    68   187   189   ar
    69   177   174    1
    70   173   174    1
    71   213   215    1
    72   213   214    1
    73    62    61    1
    74    57    58    1
    75    58    59    1
    76    58    61    1
    77   191   189   ar
    78   191   192    1
    79    60    59    2
    80   174   175    1
    81    49    47   am
    82   175   176    2
    83   149   147   ar
    84    48    47    2
    85    47    46    1
    86   107   106    2
    87   148   147   ar
    88   170   172   ar
    89   170   168   ar
    90   147   146    1
    91   172   171   ar
    92   168   167   ar
    93   106   105    1
    94   171   169   ar
    95   167   169   ar
    96   167   166    1
    97    46    45    1
    98   146   145    1
    99   166   163    1
   100   145   142    1
   101   105   104    1
   102   105   108    1
   103    45    43   am
   104   109   108    1
   105   109   110    1
   106    44    43    2
   107   162   163    1
   108   162   160   am
   109    43    42    1
   110   163   164    1
   111   142   143    1
   112   142   141    1
   113   159   160    1
   114   159   158    1
   115   165   164    2
   116   160   161    2
   117   144   143    2
   118   110   111    1
   119   158   152   am
   120   143   150   am
   121    42    41    1
   122   112   111    1
   123   150   151    1
   124    41    39   am
   125    40    39    2
   126   152   151    1
   127   152   153    2
   128    39    38    1
   129    11     9    1
   130   151   154    1
   131    32    31    2
   132    29    30    1
   133    10     9    1
   134    38    37    1
   135     9     8    2
   136    31    37   am
   137    31    30    1
   138     1     2    1
   139    30    33    1
   140     8     7    1
   141   154   155    1
   142   154   156    1
   143     5     2    1
   144     5     6    1
   145   155   157    1
   146    79    81   ar
   147    79    77   ar
   148    81    80   ar
   149     2     3    1
   150    77    76    1
   151    77    78   ar
   152    80    78   ar
   153    76    73    1
   154     4     3    2
   155     7     6    1
   156    33    34    1
   157    33    35    1
   158     3    12   am
   159    34    36    1
   160    72    73    1
   161    73    74    1
   162    12    13    1
   163    97    98    1
   164    97    94    1
   165    98    99    1
   166    74    75    2
   167    74    82   am
   168    13    14    1
   169    13    16    1
   170    17    16    1
   171    17    18    1
   172    19    20    1
   173    19    18    1
   174    95    96    2
   175    95    94    1
   176    82    83    1
   177    94    93    1
   178    99   100    1
   179    27    26    1
   180   100   101    2
   181    93    84   am
   182    28    26    1
   183    92    90    1
   184    14    21   am
   185    14    15    2
   186    21    22    1
   187   103   101    1
   188   101   102    1
   189    89    90    2
   190    89    88    1
   191    26    25    1
   192    25    22    1
   193    90    91    1
   194    87    88    1
   195    87    86    1
   196    84    83    1
   197    84    85    2
   198    83    86    1
   199    22    23    1
   200    23    24    2
   201   135   134    1
   202   135   136    1
   203   135   138    1
   204   136   137    2
   205   139   138    1
   206   138   140    1
