@<TRIPOS>MOLECULE
tmp/3f8rD01.pdb
 172 166 0 0 0
SMALL
GASTEIGER

@<TRIPOS>ATOM
      1  N          9.0310   20.3860   19.3850 N.3     9  VAL9       -0.1231
      2  CA         9.3690   20.1610   20.7960 C.3     9  VAL9        0.1692
      3  C         10.8320   19.7430   20.9930 C.2     9  VAL9        0.2593
      4  O         11.2820   18.6800   20.5400 O.2     9  VAL9       -0.2718
      5  CB         8.4310   19.0860   21.4540 C.3     9  VAL9        0.0266
      6  CG1        8.7680   18.9580   22.9750 C.3     9  VAL9        0.0020
      7  CG2        6.9660   19.5190   21.3010 C.3     9  VAL9        0.0020
      8  N         11.5760   20.6000   21.6790 N.am   10  GLY10      -0.1942
      9  CA        12.9740   20.3430   21.9270 C.3    10  GLY10       0.2014
     10  C         13.7500   21.4860   21.3280 C.2    10  GLY10       0.2639
     11  O         13.2080   22.2550   20.5400 O.2    10  GLY10      -0.2714
     12  N         15.0180   21.6170   21.7090 N.am   11  LEU11      -0.1963
     13  CA        15.8470   22.6950   21.1950 C.3    11  LEU11       0.1728
     14  C         17.2880   22.2360   21.0200 C.2    11  LEU11       0.2617
     15  O         18.2400   22.9600   21.2970 O.2    11  LEU11      -0.2715
     16  CB        15.7580   23.9180   22.1250 C.3    11  LEU11       0.0311
     17  CG        16.3090   25.2550   21.5980 C.3    11  LEU11       0.0022
     18  CD1       15.8530   25.4840   20.1800 C.3    11  LEU11       0.0001
     19  CD2       15.8290   26.3910   22.4910 C.3    11  LEU11       0.0001
     20  N         17.4330   21.0020   20.5570 N.am   12  GLY12      -0.1941
     21  CA        18.7580   20.4530   20.2850 C.3    12  GLY12       0.1998
     22  C         18.9830   20.5000   18.7750 C.2    12  GLY12       0.2481
     23  O         18.2000   21.1060   18.0280 O.2    12  GLY12      -0.2729
     24  N         20.0360   19.8550   18.2830 N.am   13  PRO13      -0.2715
     25  CA        20.2800   19.8770   16.8260 C.3    13  PRO13       0.1536
     26  C         19.0570   19.4380   15.9480 C.2    13  PRO13       0.2598
     27  O         18.7690   20.0610   14.9120 O.2    13  PRO13      -0.2715
     28  CB        21.4980   18.9520   16.6660 C.3    13  PRO13       0.0310
     29  CG        22.2460   19.1100   18.0650 C.3    13  PRO13       0.0237
     30  CD        21.1130   19.1730   19.0480 C.3    13  PRO13       0.0939
     31  N         18.3140   18.4080   16.3590 N.am   14  ALA14      -0.1978
     32  CA        17.1730   17.9480   15.5540 C.3    14  ALA14       0.1597
     33  C         16.1330   19.0640   15.4430 C.2    14  ALA14       0.2287
     34  O         15.6180   19.3270   14.3480 O.2    14  ALA14      -0.2864
     35  CB        16.5510   16.7050   16.1720 C.3    14  ALA14       0.0319
     36  N          9.3710   24.9650   21.2030 N.3    32  ILE32      -0.1231
     37  CA         9.2800   24.9510   22.6580 C.3    32  ILE32       0.1692
     38  C         10.2970   23.9280   23.1930 C.2    32  ILE32       0.2593
     39  O         10.1080   22.6910   23.0790 O.2    32  ILE32      -0.2718
     40  CB         7.8530   24.5710   23.1500 C.3    32  ILE32       0.0266
     41  CG1        6.8050   25.4840   22.5190 C.3    32  ILE32       0.0019
     42  CG2        7.7770   24.7290   24.6720 C.3    32  ILE32       0.0020
     43  CD1        5.3610   25.0810   22.8460 C.3    32  ILE32       0.0001
     44  N         11.3850   24.4350   23.7600 N.am   33  GLY33      -0.1942
     45  CA        12.4040   23.5510   24.2850 C.3    33  GLY33       0.2014
     46  C         13.0120   24.0320   25.5840 C.2    33  GLY33       0.2639
     47  O         13.1330   25.2300   25.8100 O.2    33  GLY33      -0.2714
     48  N         13.4400   23.1060   26.4270 N.am   34  GLU34      -0.1963
     49  CA        13.9940   23.5130   27.7070 C.3    34  GLU34       0.1733
     50  C         15.4300   23.9970   27.7210 C.2    34  GLU34       0.2617
     51  O         15.7510   24.9080   28.4860 O.2    34  GLU34      -0.2715
     52  CB        13.8500   22.3950   28.7490 C.3    34  GLU34       0.0429
     53  CG        14.3900   22.8170   30.1560 C.3    34  GLU34       0.1163
     54  CD        14.6150   21.6260   31.0780 C.2    34  GLU34       0.3649
     55  OE1       15.5030   20.7630   30.6170 O.co2  34  GLU34      -0.2457
     56  OE2       14.0390   21.4910   32.1360 O.co2  34  GLU34      -0.2457
     57  N         16.2850   23.4320   26.8690 N.am   35  THR35      -0.1951
     58  CA        17.7000   23.7970   26.8910 C.3    35  THR35       0.1897
     59  C         18.2750   24.0520   25.5110 C.2    35  THR35       0.2313
     60  O         18.4330   23.1100   24.7310 O.2    35  THR35      -0.2863
     61  CB        18.5210   22.6640   27.5030 C.3    35  THR35       0.1794
     62  OG1       17.9650   22.3080   28.7730 O.3    35  THR35      -0.2208
     63  CG2       19.9820   23.0790   27.6580 C.3    35  THR35       0.0378
     64  N         20.5460   21.5410   23.5560 N.3    38  GLY38      -0.1210
     65  CA        20.4100   20.1690   24.0070 C.3    38  GLY38       0.1956
     66  C         21.7450   19.6230   24.5020 C.2    38  GLY38       0.2612
     67  O         22.4770   20.3290   25.1940 O.2    38  GLY38      -0.2717
     68  N         22.0900   18.3900   24.1230 N.am   39  GLN39      -0.1965
     69  CA        23.3250   17.7660   24.5670 C.3    39  GLN39       0.1733
     70  C         24.5840   18.5300   24.1200 C.2    39  GLN39       0.2616
     71  O         25.6990   18.1830   24.5180 O.2    39  GLN39      -0.2715
     72  CB        23.3780   16.2830   24.1000 C.3    39  GLN39       0.0408
     73  CG        22.2090   15.3920   24.6530 C.3    39  GLN39       0.0908
     74  CD        22.1510   13.9500   24.0460 C.2    39  GLN39       0.2608
     75  OE1       23.1240   13.1880   24.1600 O.2    39  GLN39      -0.2717
     76  NE2       20.9980   13.5790   23.4110 N.am   39  GLN39      -0.0878
     77  N         24.4240   19.5430   23.2790 N.am   40  LEU40      -0.1977
     78  CA        25.5850   20.3190   22.8450 C.3    40  LEU40       0.1596
     79  C         26.0900   21.1590   24.0160 C.2    40  LEU40       0.2287
     80  O         27.2340   21.6050   24.0190 O.2    40  LEU40      -0.2864
     81  CB        25.2350   21.2570   21.7000 C.3    40  LEU40       0.0297
     82  CG        25.2530   20.6650   20.2840 C.3    40  LEU40       0.0022
     83  CD1       24.9220   21.7730   19.2980 C.3    40  LEU40       0.0001
     84  CD2       26.6380   20.0320   19.9800 C.3    40  LEU40       0.0001
     85  N         10.7790   26.2180   27.7320 N.3    78  ASP78      -0.1225
     86  CA         9.8980   25.6210   28.7230 C.3    78  ASP78       0.1805
     87  C          9.8310   24.1310   28.4580 C.2    78  ASP78       0.2598
     88  O         10.3130   23.6450   27.4260 O.2    78  ASP78      -0.2718
     89  CB         8.5030   26.2340   28.5910 C.3    78  ASP78       0.1424
     90  CG         7.6600   26.0550   29.8400 C.2    78  ASP78       0.3668
     91  OD1        8.1770   25.5290   30.8550 O.co2  78  ASP78      -0.2456
     92  OD2        6.4780   26.4480   29.8040 O.co2  78  ASP78      -0.2456
     93  N          9.2490   23.4070   29.4020 N.am   79  ILE79      -0.1966
     94  CA         9.0900   21.9790   29.2770 C.3    79  ILE79       0.1727
     95  C          7.6650   21.6860   28.7840 C.2    79  ILE79       0.2616
     96  O          6.7020   22.2320   29.3300 O.2    79  ILE79      -0.2715
     97  CB         9.3260   21.3040   30.6430 C.3    79  ILE79       0.0290
     98  CG1       10.7840   21.4720   31.0530 C.3    79  ILE79       0.0022
     99  CG2        9.0180   19.8220   30.5610 C.3    79  ILE79       0.0023
    100  CD1       11.2120   22.9100   31.4130 C.3    79  ILE79       0.0001
    101  N          7.5380   20.8480   27.7460 N.am   80  VAL80      -0.1977
    102  CA         6.2310   20.4670   27.2180 C.3    80  VAL80       0.1596
    103  C          5.7710   19.3070   28.0700 C.2    80  VAL80       0.2287
    104  O          6.4520   18.2750   28.1540 O.2    80  VAL80      -0.2864
    105  CB         6.3140   20.0390   25.7420 C.3    80  VAL80       0.0276
    106  CG1        5.0220   19.3750   25.3140 C.3    80  VAL80       0.0022
    107  CG2        6.6050   21.2620   24.8820 C.3    80  VAL80       0.0022
    108  N         11.7030   16.5130   18.9560 N.3   108  GLY108     -0.1210
    109  CA        13.1580   16.4280   18.8860 C.3   108  GLY108      0.1956
    110  C         13.6110   16.4370   20.3390 C.2   108  GLY108      0.2612
    111  O         14.4860   17.2250   20.7370 O.2   108  GLY108     -0.2717
    112  N         13.0080   15.5590   21.1430 N.am  109  ILE109     -0.1965
    113  CA        13.3250   15.5360   22.5720 C.3   109  ILE109      0.1727
    114  C         14.5760   14.7970   23.0330 C.2   109  ILE109      0.2617
    115  O         14.8460   14.7570   24.2230 O.2   109  ILE109     -0.2715
    116  CB        12.1450   15.0140   23.4060 C.3   109  ILE109      0.0290
    117  CG1       11.6770   13.6440   22.8920 C.3   109  ILE109      0.0022
    118  CG2       11.0210   16.0400   23.4020 C.3   109  ILE109      0.0023
    119  CD1       10.6000   12.9920   23.7880 C.3   109  ILE109      0.0001
    120  N         15.3200   14.1950   22.1120 N.am  110  GLY110     -0.1940
    121  CA        16.5440   13.4990   22.4890 C.3   110  GLY110      0.2014
    122  C         16.4290   12.4300   23.5640 C.2   110  GLY110      0.2639
    123  O         15.3520   11.8770   23.8030 O.2   110  GLY110     -0.2714
    124  N         17.5590   12.1070   24.1880 N.am  111  VAL111     -0.1963
    125  CA        17.5840   11.1130   25.2330 C.3   111  VAL111      0.1727
    126  C         18.4240   11.6150   26.4120 C.2   111  VAL111      0.2616
    127  O         19.1620   12.6010   26.2920 O.2   111  VAL111     -0.2715
    128  CB        18.1720    9.7520   24.7280 C.3   111  VAL111      0.0290
    129  CG1       17.1980    9.0990   23.7570 C.3   111  VAL111      0.0023
    130  CG2       19.5550    9.9600   24.0910 C.3   111  VAL111      0.0023
    131  N         18.2960   10.9390   27.5460 N.am  112  LYS112     -0.1977
    132  CA        19.0560   11.3050   28.7310 C.3   112  LYS112      0.1596
    133  C         20.3420   10.5060   28.7740 C.2   112  LYS112      0.2287
    134  O         20.3420    9.2830   28.6520 O.2   112  LYS112     -0.2864
    135  CB        18.2540   11.0220   30.0020 C.3   112  LYS112      0.0298
    136  CG        16.9640   11.8010   30.1010 C.3   112  LYS112      0.0038
    137  CD        17.1380   13.0370   30.9750 C.3   112  LYS112      0.0206
    138  CE        15.7850   13.6140   31.3950 C.3   112  LYS112      0.1093
    139  NZ        15.9380   14.5670   32.5340 N.3   112  LYS112     -0.1314
    140  N          7.5290    9.4390   28.2790 N.3   235  PHE235     -0.1241
    141  CA         6.8960   10.5300   27.5530 C.3   235  PHE235      0.1605
    142  C          6.1050   10.0400   26.3430 C.2   235  PHE235      0.2264
    143  O          4.9690   10.4230   26.1340 O.2   235  PHE235     -0.2867
    144  CB         7.9410   11.5630   27.1160 C.3   235  PHE235      0.0534
    145  CG         7.3530   12.7640   26.4320 C.ar  235  PHE235     -0.0203
    146  CD1        7.2150   12.8010   25.0510 C.ar  235  PHE235     -0.0042
    147  CD2        6.9240   13.8640   27.1780 C.ar  235  PHE235     -0.0042
    148  CE1        6.6670   13.9140   24.4170 C.ar  235  PHE235     -0.0003
    149  CE2        6.3770   14.9740   26.5510 C.ar  235  PHE235     -0.0003
    150  CZ         6.2500   15.0010   25.1700 C.ar  235  PHE235     -0.0000
    151  N         12.4150   13.5640   15.2360 N.3   265  ALA265     -0.1231
    152  CA        13.7700   13.6090   14.6680 C.3   265  ALA265      0.1694
    153  C         14.8310   13.5360   15.7490 C.2   265  ALA265      0.2593
    154  O         14.6030   13.9690   16.8780 O.2   265  ALA265     -0.2718
    155  CB        13.9780   14.8880   13.8730 C.3   265  ALA265      0.0304
    156  N         15.9990   13.0190   15.3910 N.am  266  GLY266     -0.1942
    157  CA        17.1010   12.9560   16.3490 C.3   266  GLY266      0.2014
    158  C         17.1990   11.7230   17.2440 C.2   266  GLY266      0.2638
    159  O         16.5250   10.7110   17.0110 O.2   266  GLY266     -0.2714
    160  N         18.0210   11.8420   18.2880 N.am  267  ASP267     -0.1971
    161  CA        18.3010   10.7560   19.2530 C.3   267  ASP267      0.1709
    162  C         17.0920   10.0660   19.8350 C.2   267  ASP267      0.2293
    163  O         17.2030    8.9270   20.2400 O.2   267  ASP267     -0.2864
    164  CB        19.0950   11.2590   20.4600 C.3   267  ASP267      0.1436
    165  CG        20.5000   11.6040   20.1310 C.2   267  ASP267      0.3671
    166  OD1       20.9200   11.3650   18.9770 O.co2 267  ASP267     -0.2456
    167  OD2       21.1790   12.1120   21.0430 O.co2 267  ASP267     -0.2456
    168  N         21.1650   14.1550   13.2840 N.3   281  ALA281     -0.1245
    169  CA        20.0220   14.7870   13.9660 C.3   281  ALA281      0.1562
    170  C         19.5010   15.9410   13.1220 C.2   281  ALA281      0.2260
    171  O         18.2930   16.0540   12.9010 O.2   281  ALA281     -0.2867
    172  CB        20.4170   15.2860   15.3670 C.3   281  ALA281      0.0290
@<TRIPOS>BOND
     1   171   170    2
     2   170   169    1
     3   168   169    1
     4   155   152    1
     5   169   172    1
     6    34    33    2
     7   152   151    1
     8   152   153    1
     9    27    26    2
    10   156   153   am
    11   156   157    1
    12    33    32    1
    13    32    35    1
    14    32    31    1
    15   153   154    2
    16    26    31   am
    17    26    25    1
    18   157   158    1
    19    28    25    1
    20    28    29    1
    21    25    24    1
    22   159   158    2
    23   158   160   am
    24    23    22    2
    25    29    30    1
    26    24    22   am
    27    24    30    1
    28   160   161    1
    29    22    21    1
    30   109   108    1
    31   109   110    1
    32   166   165   ar
    33   161   162    1
    34   161   164    1
    35    83    82    1
    36     1     2    1
    37   162   163    2
    38    84    82    1
    39   165   164    1
    40   165   167   ar
    41    18    17    1
    42    82    81    1
    43    21    20    1
    44   110   111    2
    45   110   112   am
    46     4     3    2
    47    11    10    2
    48    20    14   am
    49     2     3    1
    50     2     5    1
    51     3     8   am
    52    14    13    1
    53    14    15    2
    54   112   113    1
    55    13    12    1
    56    13    16    1
    57    36    37    1
    58     7     5    1
    59    10    12   am
    60    10     9    1
    61     5     6    1
    62    17    16    1
    63    17    19    1
    64     8     9    1
    65    81    78    1
    66   120   121    1
    67   120   114   am
    68   121   122    1
    69    41    43    1
    70    41    40    1
    71   113   114    1
    72   113   116    1
    73    37    40    1
    74    37    38    1
    75    78    77    1
    76    78    79    1
    77   117   116    1
    78   117   119    1
    79   114   115    2
    80    39    38    2
    81    40    42    1
    82    38    44   am
    83    77    70   am
    84   118   116    1
    85    76    74   am
    86    64    65    1
    87   122   123    2
    88   122   124   am
    89   129   128    1
    90    44    45    1
    91    65    66    1
    92    79    80    2
    93    74    75    2
    94    74    73    1
    95   130   128    1
    96    72    69    1
    97    72    73    1
    98    70    71    2
    99    70    69    1
   100    68    66   am
   101    68    69    1
   102   124   125    1
   103    45    46    1
   104   148   146   ar
   105   148   150   ar
   106    66    67    2
   107   128   125    1
   108    60    59    2
   109   107   105    1
   110   146   145   ar
   111   150   149   ar
   112   125   126    1
   113   106   105    1
   114    59    58    1
   115    46    47    2
   116    46    48   am
   117   105   102    1
   118   143   142    2
   119   127   126    2
   120   142   141    1
   121   126   131   am
   122    48    49    1
   123   145   144    1
   124   145   147   ar
   125   149   147   ar
   126    57    58    1
   127    57    50   am
   128    58    61    1
   129   144   141    1
   130   102   101    1
   131   102   103    1
   132    88    87    2
   133    61    63    1
   134    61    62    1
   135   131   132    1
   136   141   140    1
   137    49    50    1
   138    49    52    1
   139    50    51    2
   140    85    86    1
   141   101    95   am
   142   103   104    2
   143    87    86    1
   144    87    93   am
   145    89    86    1
   146    89    90    1
   147   134   133    2
   148   132   133    1
   149   132   135    1
   150    52    53    1
   151    95    94    1
   152    95    96    2
   153    94    93    1
   154    94    97    1
   155    92    90   ar
   156    90    91   ar
   157   135   136    1
   158   136   137    1
   159    53    54    1
   160    99    97    1
   161    55    54   ar
   162    97    98    1
   163   137   138    1
   164    98   100    1
   165    54    56   ar
   166   138   139    1
