@<TRIPOS>MOLECULE
tmp/3f8sB04.pdb
 197 191 0 0 0
SMALL
GASTEIGER

@<TRIPOS>ATOM
      1  N          8.8190   -1.5000   71.8470 N.3    87  ARG87      -0.1245
      2  CA         7.8370   -1.1090   72.8430 C.3    87  ARG87       0.1563
      3  C          8.3680   -1.3440   74.2380 C.2    87  ARG87       0.2260
      4  O          8.1320   -0.5260   75.1290 O.2    87  ARG87      -0.2867
      5  CB         6.5300   -1.8730   72.6870 C.3    87  ARG87       0.0307
      6  CG         5.3400   -1.2150   73.4530 C.3    87  ARG87       0.0489
      7  CD         4.0740   -2.0690   73.5680 C.3    87  ARG87       0.2205
      8  NE         3.3950   -2.2980   72.2810 N.pl3  87  ARG87      -0.0865
      9  CZ         2.4310   -1.5200   71.7930 C.cat  87  ARG87       0.5346
     10  NH1        2.0370   -0.4560   72.4820 N.pl3  87  ARG87       0.1354
     11  NH2        1.8400   -1.8040   70.6200 N.pl3  87  ARG87       0.1354
     12  N          6.8690   -8.2390   71.7010 N.3   167  GLU167     -0.1231
     13  CA         5.5770   -7.6440   71.3610 C.3   167  GLU167      0.1699
     14  C          4.3430   -8.5110   71.6670 C.2   167  GLU167      0.2592
     15  O          3.3440   -8.0150   72.1990 O.2   167  GLU167     -0.2718
     16  CB         5.5450   -7.3070   69.8750 C.3   167  GLU167      0.0402
     17  CG         4.2800   -6.5640   69.4610 C.3   167  GLU167      0.1161
     18  CD         4.0420   -5.3630   70.3420 C.2   167  GLU167      0.3649
     19  OE1        4.9860   -4.9940   71.0710 O.co2 167  GLU167     -0.2457
     20  OE2        2.9370   -4.7950   70.3150 O.co2 167  GLU167     -0.2457
     21  N          4.4100   -9.7950   71.3260 N.am  168  GLU168     -0.1979
     22  CA         3.2010  -10.6270   71.3220 C.3   168  GLU168      0.1602
     23  C          3.1260  -11.7020   72.4150 C.2   168  GLU168      0.2287
     24  O          2.0390  -12.0430   72.8320 O.2   168  GLU168     -0.2864
     25  CB         3.0000  -11.2850   69.9510 C.3   168  GLU168      0.0415
     26  CG         2.8480  -10.2810   68.8410 C.3   168  GLU168      0.1163
     27  CD         1.6220   -9.4210   69.0470 C.2   168  GLU168      0.3649
     28  OE1        0.7280   -9.8540   69.8150 O.co2 168  GLU168     -0.2457
     29  OE2        1.5250   -8.3320   68.4330 O.co2 168  GLU168     -0.2457
     30  N          5.2330   -9.5930   76.2170 N.3   171  SER171     -0.1217
     31  CA         5.1120   -8.1660   76.4920 C.3   171  SER171      0.1889
     32  C          6.3140   -7.7010   77.2970 C.2   171  SER171      0.2288
     33  O          6.1670   -7.0380   78.3270 O.2   171  SER171     -0.2866
     34  CB         3.8590   -7.8640   77.3060 C.3   171  SER171      0.2089
     35  OG         2.6860   -8.0560   76.5570 O.3   171  SER171     -0.2183
     36  N         -7.1350  -14.4100   77.1230 N.3   318  ARG318     -0.1231
     37  CA        -7.5210  -13.1930   76.4340 C.3   318  ARG318      0.1694
     38  C         -6.5310  -12.8580   75.3060 C.2   318  ARG318      0.2592
     39  O         -6.9000  -12.7100   74.1420 O.2   318  ARG318     -0.2718
     40  CB        -7.6530  -12.0320   77.4210 C.3   318  ARG318      0.0321
     41  CG        -8.7850  -12.2260   78.4600 C.3   318  ARG318      0.0489
     42  CD        -9.1120  -10.9730   79.2690 C.3   318  ARG318      0.2205
     43  NE       -10.3830  -11.0760   79.9830 N.pl3 318  ARG318     -0.0865
     44  CZ       -10.4970  -11.3770   81.2590 C.cat 318  ARG318      0.5346
     45  NH1       -9.4200  -11.6260   81.9820 N.pl3 318  ARG318      0.1354
     46  NH2      -11.6960  -11.4390   81.8100 N.pl3 318  ARG318      0.1354
     47  N         -5.2630  -12.7520   75.6430 N.am  319  PHE319     -0.1962
     48  CA        -4.2300  -12.5650   74.6420 C.3   319  PHE319      0.1771
     49  C         -3.2320  -13.7070   74.7460 C.2   319  PHE319      0.2619
     50  O         -2.2410  -13.7450   74.0540 O.2   319  PHE319     -0.2715
     51  CB        -3.5290  -11.2200   74.8530 C.3   319  PHE319      0.0574
     52  CG        -4.4400  -10.0550   74.7140 C.ar  319  PHE319     -0.0200
     53  CD1       -4.6060   -9.4360   73.4950 C.ar  319  PHE319     -0.0042
     54  CD2       -5.1750   -9.6010   75.7920 C.ar  319  PHE319     -0.0042
     55  CE1       -5.4710   -8.3840   73.3620 C.ar  319  PHE319     -0.0003
     56  CE2       -6.0420   -8.5430   75.6510 C.ar  319  PHE319     -0.0003
     57  CZ        -6.1860   -7.9380   74.4420 C.ar  319  PHE319     -0.0000
     58  N         -3.4820  -14.6320   75.6450 N.am  320  ARG320     -0.1977
     59  CA        -2.5550  -15.6980   75.9080 C.3   320  ARG320      0.1597
     60  C         -2.9540  -16.3820   77.1960 C.2   320  ARG320      0.2287
     61  O         -3.5430  -15.7490   78.0780 O.2   320  ARG320     -0.2864
     62  CB        -1.1520  -15.1610   76.0810 C.3   320  ARG320      0.0334
     63  CG        -0.9550  -14.2410   77.2710 C.3   320  ARG320      0.0492
     64  CD         0.5260  -14.1160   77.6730 C.3   320  ARG320      0.2205
     65  NE         0.7620  -13.0780   78.6800 N.pl3 320  ARG320     -0.0865
     66  CZ         0.9860  -11.7760   78.4110 C.cat 320  ARG320      0.5346
     67  NH1        1.0020  -11.3340   77.1490 N.pl3 320  ARG320      0.1354
     68  NH2        1.1710  -10.9130   79.4190 N.pl3 320  ARG320      0.1354
     69  N        -11.5650    1.3940   68.5250 N.3   509  TYR509     -0.1241
     70  CA       -10.4460    0.4860   68.5070 C.3   509  TYR509      0.1605
     71  C        -10.9440   -0.8640   68.0330 C.2   509  TYR509      0.2264
     72  O        -10.5730   -1.3320   66.9740 O.2   509  TYR509     -0.2867
     73  CB        -9.7510    0.3580   69.8870 C.3   509  TYR509      0.0534
     74  CG        -8.4510   -0.4440   69.7980 C.ar  509  TYR509     -0.0201
     75  CD1       -7.3070    0.1060   69.2680 C.ar  509  TYR509     -0.0009
     76  CD2       -8.4010   -1.7750   70.1930 C.ar  509  TYR509     -0.0009
     77  CE1       -6.1510   -0.6390   69.1520 C.ar  509  TYR509      0.0417
     78  CE2       -7.2450   -2.5180   70.1010 C.ar  509  TYR509      0.0417
     79  CZ        -6.1280   -1.9560   69.5810 C.ar  509  TYR509      0.1957
     80  OH        -5.0040   -2.7350   69.4820 O.3   509  TYR509     -0.2866
     81  N        -11.1700   -8.3550   72.3660 N.3   513  CYS513     -0.1235
     82  CA       -10.9870   -8.2620   73.8180 C.3   513  CYS513      0.1677
     83  C        -10.5610   -6.8310   74.2120 C.2   513  CYS513      0.2270
     84  O         -9.8540   -6.5880   75.2060 O.2   513  CYS513     -0.2867
     85  CB        -9.9700   -9.3000   74.2980 C.3   513  CYS513      0.0956
     86  SG       -10.1140   -9.7790   76.0540 S.3   513  CYS513     -0.0801
     87  N        -14.0550   -8.7360   78.3150 N.3   547  TYR547     -0.1241
     88  CA       -14.4590   -8.6430   79.7320 C.3   547  TYR547      0.1605
     89  C        -15.9410   -8.8800   79.9340 C.2   547  TYR547      0.2264
     90  O        -16.4410   -8.6710   81.0310 O.2   547  TYR547     -0.2867
     91  CB       -14.0150   -7.3030   80.3180 C.3   547  TYR547      0.0534
     92  CG       -12.5640   -7.0220   79.9950 C.ar  547  TYR547     -0.0201
     93  CD1      -11.5590   -7.8150   80.5310 C.ar  547  TYR547     -0.0009
     94  CD2      -12.2000   -6.0050   79.1250 C.ar  547  TYR547     -0.0009
     95  CE1      -10.2370   -7.5980   80.2340 C.ar  547  TYR547      0.0417
     96  CE2      -10.8850   -5.7690   78.8320 C.ar  547  TYR547      0.0417
     97  CZ        -9.9020   -6.5710   79.3850 C.ar  547  TYR547      0.1957
     98  OH        -8.5710   -6.3460   79.0890 O.3   547  TYR547     -0.2866
     99  N         -4.3360    2.2050   64.7560 N.3   592  SER592     -0.1202
    100  CA        -3.8890    0.8130   64.7890 C.3   592  SER592      0.2020
    101  C         -5.0420   -0.0730   64.3820 C.2   592  SER592      0.2618
    102  O         -5.5510    0.0740   63.2430 O.2   592  SER592     -0.2717
    103  CB        -3.3830    0.4700   66.1750 C.3   592  SER592      0.2103
    104  OG        -2.5040   -0.6230   66.1390 O.3   592  SER592     -0.2182
    105  N         -5.4930   -0.9610   65.2830 N.am  593  TYR593     -0.1975
    106  CA        -6.7210   -1.7310   65.0200 C.3   593  TYR593      0.1639
    107  C         -7.8380   -0.7510   64.7410 C.2   593  TYR593      0.2290
    108  O         -8.5900   -0.9230   63.7710 O.2   593  TYR593     -0.2864
    109  CB        -7.1160   -2.6660   66.1700 C.3   593  TYR593      0.0560
    110  CG        -7.9510   -3.8480   65.6960 C.ar  593  TYR593     -0.0198
    111  CD1       -9.3090   -3.7120   65.4380 C.ar  593  TYR593     -0.0009
    112  CD2       -7.3650   -5.0820   65.4740 C.ar  593  TYR593     -0.0009
    113  CE1      -10.0800   -4.7930   64.9700 C.ar  593  TYR593      0.0417
    114  CE2       -8.1030   -6.1650   64.9960 C.ar  593  TYR593      0.0417
    115  CZ        -9.4730   -6.0310   64.7460 C.ar  593  TYR593      0.1957
    116  OH       -10.2110   -7.1280   64.2910 O.3   593  TYR593     -0.2866
    117  N         -3.8660   -1.2410   59.9680 N.3   618  VAL618     -0.1245
    118  CA        -3.5840   -2.4890   59.3160 C.3   618  VAL618      0.1561
    119  C         -4.4610   -2.4790   58.0900 C.2   618  VAL618      0.2260
    120  O         -5.5250   -1.8860   58.1420 O.2   618  VAL618     -0.2867
    121  CB        -4.0010   -3.6780   60.1870 C.3   618  VAL618      0.0252
    122  CG1       -4.1090   -4.9490   59.3380 C.3   618  VAL618      0.0019
    123  CG2       -3.0280   -3.8740   61.3120 C.3   618  VAL618      0.0019
    124  N         -4.2130   -8.5880   56.6200 N.3   621  TRP621     -0.1241
    125  CA        -3.7970   -9.2950   57.7980 C.3   621  TRP621      0.1605
    126  C         -2.4780  -10.0170   57.5690 C.2   621  TRP621      0.2264
    127  O         -1.6670  -10.1290   58.4930 O.2   621  TRP621     -0.2867
    128  CB        -4.9110  -10.2230   58.2930 C.3   621  TRP621      0.0550
    129  CG        -5.9460   -9.4440   59.1060 C.ar  621  TRP621      0.0003
    130  CD1       -7.2820   -9.2560   58.8180 C.ar  621  TRP621      0.0946
    131  CD2       -5.6960   -8.7070   60.3090 C.ar  621  TRP621      0.0152
    132  NE1       -7.8670   -8.4670   59.7800 N.ar  621  TRP621     -0.2442
    133  CE2       -6.9110   -8.1100   60.7020 C.ar  621  TRP621      0.0810
    134  CE3       -4.5660   -8.5040   61.1050 C.ar  621  TRP621      0.0012
    135  CZ2       -7.0140   -7.3290   61.8510 C.ar  621  TRP621      0.0191
    136  CZ3       -4.6740   -7.7360   62.2230 C.ar  621  TRP621      0.0001
    137  CH2       -5.8880   -7.1650   62.5960 C.ar  621  TRP621      0.0015
    138  N          0.5930   -8.3080   58.9260 N.3   624  TYR624     -0.1241
    139  CA         0.8600   -8.1440   60.3550 C.3   624  TYR624      0.1605
    140  C          1.5650   -9.3980   60.9050 C.2   624  TYR624      0.2264
    141  O          1.8480  -10.3220   60.1220 O.2   624  TYR624     -0.2867
    142  CB        -0.4060   -7.7600   61.1470 C.3   624  TYR624      0.0534
    143  CG        -0.0600   -7.2120   62.5000 C.ar  624  TYR624     -0.0201
    144  CD1        0.8110   -6.1540   62.5970 C.ar  624  TYR624     -0.0009
    145  CD2       -0.5580   -7.7600   63.6780 C.ar  624  TYR624     -0.0009
    146  CE1        1.1820   -5.6330   63.8190 C.ar  624  TYR624      0.0417
    147  CE2       -0.1850   -7.2330   64.9190 C.ar  624  TYR624      0.0417
    148  CZ         0.6930   -6.1600   64.9630 C.ar  624  TYR624      0.1957
    149  OH         1.1590   -5.5730   66.1150 O.3   624  TYR624     -0.2866
    150  N         -0.1000  -12.6410   66.7460 N.3   628  TYR628     -0.1241
    151  CA        -1.3560  -11.9180   67.0150 C.3   628  TYR628      0.1605
    152  C         -2.4220  -12.3200   65.9780 C.2   628  TYR628      0.2264
    153  O         -3.5570  -12.7320   66.3010 O.2   628  TYR628     -0.2867
    154  CB        -1.0980  -10.4050   66.9770 C.3   628  TYR628      0.0534
    155  CG        -2.3250   -9.5470   67.1330 C.ar  628  TYR628     -0.0201
    156  CD1       -3.1730   -9.2990   66.0570 C.ar  628  TYR628     -0.0009
    157  CD2       -2.6360   -8.9740   68.3540 C.ar  628  TYR628     -0.0009
    158  CE1       -4.2840   -8.5100   66.1890 C.ar  628  TYR628      0.0417
    159  CE2       -3.7700   -8.1800   68.5090 C.ar  628  TYR628      0.0417
    160  CZ        -4.5950   -7.9540   67.4230 C.ar  628  TYR628      0.1957
    161  OH        -5.7320   -7.1700   67.5710 O.3   628  TYR628     -0.2866
    162  N         -3.6800  -15.9250   65.9910 N.3   631  ARG631     -0.1245
    163  CA        -4.4620  -16.1770   67.2040 C.3   631  ARG631      0.1563
    164  C         -5.9450  -16.0750   66.9190 C.2   631  ARG631      0.2260
    165  O         -6.7350  -16.7770   67.5290 O.2   631  ARG631     -0.2867
    166  CB        -4.0980  -15.1500   68.2720 C.3   631  ARG631      0.0307
    167  CG        -4.7160  -15.3790   69.6180 C.3   631  ARG631      0.0489
    168  CD        -3.7440  -14.9890   70.7090 C.3   631  ARG631      0.2205
    169  NE        -3.5600  -13.5460   70.7840 N.pl3 631  ARG631     -0.0865
    170  CZ        -2.4020  -12.9370   70.9620 C.cat 631  ARG631      0.5346
    171  NH1       -1.2650  -13.6230   71.0430 N.pl3 631  ARG631      0.1354
    172  NH2       -2.3780  -11.6160   71.0570 N.pl3 631  ARG631      0.1354
    173  N          6.2330   -2.0680   63.5450 N.3   672  ASN672     -0.1225
    174  CA         5.1730   -2.9010   64.0870 C.3   672  ASN672      0.1785
    175  C          4.0200   -2.9770   63.1060 C.2   672  ASN672      0.2597
    176  O          3.8120   -4.0390   62.5240 O.2   672  ASN672     -0.2718
    177  CB         4.7700   -2.3410   65.4600 C.3   672  ASN672      0.1169
    178  CG         3.4500   -2.8480   65.9640 C.2   672  ASN672      0.2627
    179  OD1        2.8840   -2.1940   66.8090 O.2   672  ASN672     -0.2716
    180  ND2        2.9520   -3.9990   65.4790 N.am  672  ASN672     -0.0877
    181  N          3.2720   -1.8870   62.9010 N.am  673  VAL673     -0.1980
    182  CA         2.3620   -1.8490   61.7560 C.3   673  VAL673      0.1595
    183  C          3.0680   -1.0710   60.6440 C.2   673  VAL673      0.2287
    184  O          3.1860    0.1730   60.6790 O.2   673  VAL673     -0.2864
    185  CB         0.9800   -1.2710   62.0860 C.3   673  VAL673      0.0276
    186  CG1        0.0910   -1.2670   60.8550 C.3   673  VAL673      0.0022
    187  CG2        0.3350   -2.0930   63.1450 C.3   673  VAL673      0.0022
    188  N          5.1300    3.2380   65.6380 N.3   702  HIS702     -0.1241
    189  CA         3.6850    3.0510   65.7630 C.3   702  HIS702      0.1621
    190  C          3.0050    4.0100   66.7460 C.2   702  HIS702      0.2264
    191  O          1.8170    4.2980   66.6180 O.2   702  HIS702     -0.2867
    192  CB         3.3380    1.6020   66.1470 C.3   702  HIS702      0.0745
    193  CG         1.8840    1.2820   65.9920 C.ar  702  HIS702      0.0817
    194  ND1        1.2580    1.2930   64.7620 N.ar  702  HIS702     -0.2268
    195  CD2        0.9280    0.9900   66.9020 C.ar  702  HIS702      0.1154
    196  CE1       -0.0160    0.9960   64.9150 C.ar  702  HIS702      0.1986
    197  NE2       -0.2460    0.8180   66.2060 N.ar  702  HIS702     -0.2212
@<TRIPOS>BOND
     1   124   125    1
     2   126   125    1
     3   126   127    2
     4   125   128    1
     5   119   120    2
     6   119   118    1
     7   128   129    1
     8   130   129   ar
     9   130   132   ar
    10   138   139    1
    11   129   131   ar
    12   118   117    1
    13   118   121    1
    14   122   121    1
    15   132   133   ar
    16   141   140    2
    17   121   123    1
    18   131   133   ar
    19   131   134   ar
    20   139   140    1
    21   139   142    1
    22   183   184    2
    23   183   182    1
    24   133   135   ar
    25   186   185    1
    26   134   136   ar
    27   142   143    1
    28   182   185    1
    29   182   181    1
    30   135   137   ar
    31   185   187    1
    32   136   137   ar
    33   143   144   ar
    34   143   145   ar
    35   176   175    2
    36   144   146   ar
    37   181   175   am
    38   175   174    1
    39   102   101    2
    40   173   174    1
    41   145   147   ar
    42   108   107    2
    43   146   148   ar
    44   174   177    1
    45   116   115    1
    46   101   100    1
    47   101   105   am
    48   107   106    1
    49   115   113   ar
    50   115   114   ar
    51    99   100    1
    52   194   196   ar
    53   194   193   ar
    54   100   103    1
    55   196   197   ar
    56   147   148   ar
    57   148   149    1
    58   113   111   ar
    59   114   112   ar
    60   106   105    1
    61   106   109    1
    62   111   110   ar
    63   177   178    1
    64   112   110   ar
    65   180   178   am
    66   188   189    1
    67   110   109    1
    68   189   192    1
    69   189   190    1
    70   178   179    2
    71   152   153    2
    72   152   151    1
    73   162   163    1
    74   193   192    1
    75   193   195   ar
    76   156   158   ar
    77   156   155   ar
    78   104   103    1
    79   158   160   ar
    80   197   195   ar
    81   191   190    2
    82   150   151    1
    83   164   163    1
    84   164   165    2
    85    72    71    2
    86   154   151    1
    87   154   155    1
    88   155   157   ar
    89   163   166    1
    90   160   161    1
    91   160   159   ar
    92    71    70    1
    93   166   167    1
    94   157   159   ar
    95    29    27   ar
    96    70    69    1
    97    70    73    1
    98    26    27    1
    99    26    25    1
   100    27    28   ar
   101    77    75   ar
   102    77    79   ar
   103    75    74   ar
   104    17    16    1
   105    17    18    1
   106    80    79    1
   107    79    78   ar
   108   167   168    1
   109    74    73    1
   110    74    76   ar
   111    16    13    1
   112    25    22    1
   113    78    76   ar
   114    20    18   ar
   115    18    19   ar
   116    11     9    1
   117   168   169    1
   118   169   170    2
   119   170   171    1
   120   170   172    1
   121    22    21    1
   122    22    23    1
   123    21    14   am
   124    13    14    1
   125    13    12    1
   126    14    15    2
   127     9     8    2
   128     9    10    1
   129     1     2    1
   130     8     7    1
   131    81    82    1
   132    23    24    2
   133     5     2    1
   134     5     6    1
   135     2     3    1
   136    55    53   ar
   137    55    57   ar
   138     6     7    1
   139    53    52   ar
   140    82    83    1
   141    82    85    1
   142    50    49    2
   143    39    38    2
   144    83    84    2
   145     3     4    2
   146    85    86    1
   147    57    56   ar
   148    48    49    1
   149    48    51    1
   150    48    47    1
   151    52    51    1
   152    52    54   ar
   153    49    58   am
   154    38    47   am
   155    38    37    1
   156    58    59    1
   157    56    54   ar
   158    59    62    1
   159    59    60    1
   160    62    63    1
   161    30    31    1
   162    37    36    1
   163    37    40    1
   164    31    32    1
   165    31    34    1
   166    35    34    1
   167    67    66    1
   168    60    61    2
   169    63    64    1
   170    32    33    2
   171    40    41    1
   172    64    65    1
   173    87    88    1
   174    66    65    2
   175    66    68    1
   176    41    42    1
   177    96    94   ar
   178    96    97   ar
   179    98    97    1
   180    94    92   ar
   181    42    43    1
   182    97    95   ar
   183    88    89    1
   184    88    91    1
   185    89    90    2
   186    43    44    2
   187    92    91    1
   188    92    93   ar
   189    95    93   ar
   190    44    46    1
   191    44    45    1
