@<TRIPOS>MOLECULE
tmp/3f8zA00.pdb
 165 158 0 0 0
SMALL
GASTEIGER

@<TRIPOS>ATOM
      1  N         -0.4500   25.1180   -1.6570 N.3     7  ILE7       -0.1231
      2  CA        -0.8870   24.0920   -2.5730 C.3     7  ILE7        0.1692
      3  C         -2.1120   23.3830   -2.0020 C.2     7  ILE7        0.2592
      4  O         -2.1470   23.0220   -0.8290 O.2     7  ILE7       -0.2718
      5  CB         0.2790   23.1100   -2.9820 C.3     7  ILE7        0.0266
      6  CG1       -0.1910   22.1270   -4.0840 C.3     7  ILE7        0.0019
      7  CG2        0.8380   22.3530   -1.7770 C.3     7  ILE7        0.0020
      8  CD1        0.9830   21.4330   -4.8090 C.3     7  ILE7        0.0001
      9  N         -3.1030   23.1750   -2.8700 N.am    8  VAL8       -0.1966
     10  CA        -4.4410   22.6880   -2.4880 C.3     8  VAL8        0.1727
     11  C         -5.1010   22.0330   -3.7030 C.2     8  VAL8        0.2616
     12  O         -4.8470   22.4280   -4.8390 O.2     8  VAL8       -0.2715
     13  CB        -5.3750   23.8330   -1.9790 C.3     8  VAL8        0.0290
     14  CG1       -5.7850   24.8180   -3.1380 C.3     8  VAL8        0.0023
     15  CG2       -6.6130   23.2560   -1.2910 C.3     8  VAL8        0.0023
     16  N         -5.9600   21.0480   -3.4650 N.am    9  ALA9       -0.1977
     17  CA        -6.9390   20.6470   -4.4740 C.3     9  ALA9        0.1597
     18  C         -8.3480   20.9440   -3.9700 C.2     9  ALA9        0.2287
     19  O         -8.6620   20.6820   -2.7950 O.2     9  ALA9       -0.2864
     20  CB        -6.7770   19.1880   -4.8690 C.3     9  ALA9        0.0319
     21  N        -10.1430   13.7990    2.1680 N.3    22  LEU22      -0.1245
     22  CA       -10.5560   14.5370    0.9670 C.3    22  LEU22       0.1561
     23  C        -11.9930   14.1550    0.5730 C.2    22  LEU22       0.2260
     24  O        -12.4370   13.0220    0.8300 O.2    22  LEU22      -0.2867
     25  CB        -9.5970   14.2630   -0.2070 C.3    22  LEU22       0.0270
     26  CG        -8.0810   14.5460   -0.0360 C.3    22  LEU22       0.0019
     27  CD1       -7.3800   14.5530   -1.3820 C.3    22  LEU22       0.0001
     28  CD2       -7.8130   15.8310    0.6780 C.3    22  LEU22       0.0001
     29  N         -2.8240   13.0240   -9.3460 N.3    30  GLU30      -0.1231
     30  CA        -3.0120   14.3150   -8.6620 C.3    30  GLU30       0.1699
     31  C         -2.1320   14.3720   -7.4220 C.2    30  GLU30       0.2592
     32  O         -1.4270   15.3630   -7.1980 O.2    30  GLU30      -0.2718
     33  CB        -4.4830   14.5720   -8.3200 C.3    30  GLU30       0.0402
     34  CG        -4.8620   16.1060   -8.1800 C.3    30  GLU30       0.1161
     35  CD        -4.2030   16.8000   -6.9820 C.2    30  GLU30       0.3649
     36  OE1       -3.6220   17.8890   -7.1770 O.co2  30  GLU30      -0.2457
     37  OE2       -4.2390   16.2600   -5.8510 O.co2  30  GLU30      -0.2457
     38  N         -2.1690   13.3030   -6.6280 N.am   31  PHE31      -0.1976
     39  CA        -1.2490   13.1200   -5.5090 C.3    31  PHE31       0.1639
     40  C          0.2170   13.1540   -5.9590 C.2    31  PHE31       0.2290
     41  O          1.0560   13.7540   -5.2870 O.2    31  PHE31      -0.2864
     42  CB        -1.4930   11.7900   -4.8010 C.3    31  PHE31       0.0560
     43  CG        -2.6710   11.7850   -3.8750 C.ar   31  PHE31      -0.0200
     44  CD1       -3.2590   12.9750   -3.4500 C.ar   31  PHE31      -0.0042
     45  CD2       -3.1920   10.5720   -3.4210 C.ar   31  PHE31      -0.0042
     46  CE1       -4.3420   12.9600   -2.5770 C.ar   31  PHE31      -0.0003
     47  CE2       -4.2990   10.5310   -2.5660 C.ar   31  PHE31      -0.0003
     48  CZ        -4.8700   11.7340   -2.1240 C.ar   31  PHE31      -0.0000
     49  N          1.4750   14.7750   -8.3640 N.3    33  TYR33      -0.1227
     50  CA         1.7590   16.1830   -8.6690 C.3    33  TYR33       0.1736
     51  C          2.0370   16.9690   -7.3650 C.2    33  TYR33       0.2595
     52  O          3.0170   17.6860   -7.2880 O.2    33  TYR33      -0.2718
     53  CB         0.5970   16.7840   -9.4790 C.3    33  TYR33       0.0548
     54  CG         0.6420   18.2970   -9.6420 C.ar   33  TYR33      -0.0200
     55  CD1       -0.1120   19.1470   -8.8050 C.ar   33  TYR33      -0.0009
     56  CD2        1.5000   18.8880  -10.5820 C.ar   33  TYR33      -0.0009
     57  CE1       -0.0590   20.5210   -8.9600 C.ar   33  TYR33       0.0417
     58  CE2        1.5530   20.2570  -10.7390 C.ar   33  TYR33       0.0417
     59  CZ         0.7800   21.0630   -9.9470 C.ar   33  TYR33       0.1957
     60  OH         0.8790   22.4290  -10.1320 O.3    33  TYR33      -0.2866
     61  N          1.1750   16.8150   -6.3530 N.am   34  PHE34      -0.1962
     62  CA         1.4440   17.3910   -5.0350 C.3    34  PHE34       0.1771
     63  C          2.8740   17.0300   -4.5110 C.2    34  PHE34       0.2620
     64  O          3.6170   17.8920   -4.0290 O.2    34  PHE34      -0.2715
     65  CB         0.3460   16.9520   -4.0110 C.3    34  PHE34       0.0574
     66  CG         0.7120   17.2360   -2.5800 C.ar   34  PHE34      -0.0200
     67  CD1        0.4550   18.5030   -2.0160 C.ar   34  PHE34      -0.0042
     68  CD2        1.3940   16.2630   -1.8020 C.ar   34  PHE34      -0.0042
     69  CE1        0.8280   18.7930   -0.6890 C.ar   34  PHE34      -0.0003
     70  CE2        1.7790   16.5330   -0.4740 C.ar   34  PHE34      -0.0003
     71  CZ         1.4880   17.7880    0.1080 C.ar   34  PHE34      -0.0000
     72  N          3.2180   15.7400   -4.5850 N.am   35  SER35      -0.1950
     73  CA         4.4960   15.2400   -4.0940 C.3    35  SER35       0.1924
     74  C          5.6580   15.8850   -4.8450 C.2    35  SER35       0.2314
     75  O          6.5900   16.3780   -4.2260 O.2    35  SER35      -0.2863
     76  CB         4.5730   13.7130   -4.2310 C.3    35  SER35       0.2116
     77  OG         3.5670   13.1030   -3.4410 O.3    35  SER35      -0.2180
     78  N         -4.5380   18.6870    9.6680 N.3    56  THR56      -0.1218
     79  CA        -3.9820   18.2820    8.3780 C.3    56  THR56       0.1862
     80  C         -2.8950   17.2460    8.5700 C.2    56  THR56       0.2287
     81  O         -2.8980   16.2080    7.8810 O.2    56  THR56      -0.2866
     82  CB        -3.4640   19.5320    7.5900 C.3    56  THR56       0.1770
     83  OG1       -4.5780   20.3670    7.2540 O.3    56  THR56      -0.2211
     84  CG2       -2.7590   19.1110    6.3030 C.3    56  THR56       0.0375
     85  N         -4.5620   13.9810    9.3270 N.3    59  SER59      -0.1202
     86  CA        -5.2910   13.4950    8.1690 C.3    59  SER59       0.2020
     87  C         -4.3960   12.7450    7.1740 C.2    59  SER59       0.2619
     88  O         -4.9200   12.0200    6.3100 O.2    59  SER59      -0.2717
     89  CB        -6.0260   14.6510    7.4620 C.3    59  SER59       0.2103
     90  OG        -5.0920   15.3810    6.6660 O.3    59  SER59      -0.2182
     91  N         -3.0670   12.8960    7.2740 N.am   60  ILE60      -0.1966
     92  CA        -2.1650   12.2200    6.3360 C.3    60  ILE60       0.1712
     93  C         -2.0090   10.7900    6.8390 C.2    60  ILE60       0.2458
     94  O         -1.7780   10.6000    8.0420 O.2    60  ILE60      -0.2730
     95  CB        -0.7350   12.9120    6.2500 C.3    60  ILE60       0.0289
     96  CG1       -0.8380   14.3470    5.6820 C.3    60  ILE60       0.0022
     97  CG2        0.2560   12.0540    5.3920 C.3    60  ILE60       0.0023
     98  CD1        0.4210   15.2010    5.9740 C.3    60  ILE60       0.0001
     99  N         -2.1640    9.7860    5.9460 N.am   61  PRO61      -0.2727
    100  CA        -1.9550    8.4230    6.4540 C.3    61  PRO61       0.1402
    101  C         -0.6320    8.3330    7.2260 C.2    61  PRO61       0.2269
    102  O          0.3830    8.8440    6.7600 O.2    61  PRO61      -0.2865
    103  CB        -1.9140    7.5700    5.1750 C.3    61  PRO61       0.0296
    104  CG        -2.8580    8.3450    4.1930 C.3    61  PRO61       0.0237
    105  CD        -2.5620    9.8130    4.5210 C.3    61  PRO61       0.0939
    106  N          2.5620    7.6090    5.5230 N.3    64  SER64      -0.1217
    107  CA         2.9940    8.6650    4.6030 C.3    64  SER64       0.1889
    108  C          3.5040    9.9070    5.3510 C.2    64  SER64       0.2288
    109  O          3.8610   10.9010    4.7250 O.2    64  SER64      -0.2866
    110  CB         1.8580    9.0470    3.6390 C.3    64  SER64       0.2089
    111  OG         1.5960    8.0210    2.6810 O.3    64  SER64      -0.2183
    112  N          5.9700   13.8170    5.5000 N.3    67  LEU67      -0.1231
    113  CA         6.1540   13.8780    4.0400 C.3    67  LEU67       0.1693
    114  C          7.6530   13.7890    3.6790 C.2    67  LEU67       0.2591
    115  O          8.4310   14.6850    4.0020 O.2    67  LEU67      -0.2718
    116  CB         5.5090   15.1620    3.4870 C.3    67  LEU67       0.0284
    117  CG         3.9840   15.2870    3.7500 C.3    67  LEU67       0.0019
    118  CD1        3.4710   16.6260    3.2640 C.3    67  LEU67       0.0001
    119  CD2        3.1730   14.1340    3.1050 C.3    67  LEU67       0.0001
    120  N          8.0450   12.6960    3.0400 N.am   68  LYS68      -0.1980
    121  CA         9.4620   12.3710    2.9040 C.3    68  LYS68       0.1596
    122  C         10.2190   13.3340    1.9880 C.2    68  LYS68       0.2287
    123  O          9.6710   13.8450    1.0060 O.2    68  LYS68      -0.2864
    124  CB         9.7060   10.9020    2.5090 C.3    68  LYS68       0.0298
    125  CG         9.1960   10.5200    1.1340 C.3    68  LYS68       0.0038
    126  CD         9.7370    9.1410    0.7450 C.3    68  LYS68       0.0206
    127  CE         9.1910    8.6810   -0.5950 C.3    68  LYS68       0.1093
    128  NZ         7.7390    8.3660   -0.5060 N.3    68  LYS68      -0.1314
    129  N         11.0560   16.2880    2.7030 N.3    70  ARG70      -0.1245
    130  CA        10.6780   17.6490    3.0540 C.3    70  ARG70       0.1563
    131  C         10.7540   17.8040    4.5560 C.2    70  ARG70       0.2260
    132  O         10.5500   16.8390    5.2910 O.2    70  ARG70      -0.2867
    133  CB         9.2430   17.9250    2.6230 C.3    70  ARG70       0.0307
    134  CG         9.0410   18.0430    1.1200 C.3    70  ARG70       0.0489
    135  CD         7.6810   17.5160    0.7130 C.3    70  ARG70       0.2205
    136  NE         7.6570   16.0380    0.6840 N.pl3  70  ARG70      -0.0865
    137  CZ         6.6380   15.3070    0.2350 C.cat  70  ARG70       0.5346
    138  NH1        5.5140   15.9100   -0.2130 N.pl3  70  ARG70       0.1354
    139  NH2        6.7510   13.9780    0.2170 N.pl3  70  ARG70       0.1354
    140  N          0.3470   23.6350    3.1770 N.3   115  VAL115     -0.1245
    141  CA        -0.4390   22.5220    2.6470 C.3   115  VAL115      0.1561
    142  C         -1.7790   22.3710    3.4250 C.2   115  VAL115      0.2260
    143  O         -2.4730   21.3850    3.2660 O.2   115  VAL115     -0.2867
    144  CB         0.3820   21.2000    2.6150 C.3   115  VAL115      0.0252
    145  CG1        1.6030   21.3360    1.7720 C.3   115  VAL115      0.0019
    146  CG2        0.7420   20.7120    4.0760 C.3   115  VAL115      0.0019
    147  N         -4.2510   28.5000    5.2210 N.3   121  TYR121     -0.1241
    148  CA        -4.3920   29.0720    3.8670 C.3   121  TYR121      0.1605
    149  C         -4.8840   30.5280    3.9380 C.2   121  TYR121      0.2264
    150  O         -4.3040   31.4080    3.3210 O.2   121  TYR121     -0.2867
    151  CB        -5.3900   28.2740    3.0350 C.3   121  TYR121      0.0534
    152  CG        -4.9550   26.8890    2.5420 C.ar  121  TYR121     -0.0201
    153  CD1       -5.8280   25.8030    2.6440 C.ar  121  TYR121     -0.0009
    154  CD2       -3.7070   26.6860    1.9140 C.ar  121  TYR121     -0.0009
    155  CE1       -5.4610   24.5290    2.1580 C.ar  121  TYR121      0.0417
    156  CE2       -3.3200   25.4210    1.4450 C.ar  121  TYR121      0.0417
    157  CZ        -4.2320   24.3490    1.5450 C.ar  121  TYR121      0.1957
    158  OH        -3.9270   23.0840    1.0670 O.3   121  TYR121     -0.2866
    159  N         -5.4100   22.9540   -7.7440 N.3   136  THR136     -0.1218
    160  CA        -5.9760   21.9490   -8.6410 C.3   136  THR136      0.1862
    161  C         -7.4780   22.0860   -8.5590 C.2   136  THR136      0.2287
    162  O         -8.0570   21.9930   -7.4450 O.2   136  THR136     -0.2866
    163  CB        -5.5880   20.5040   -8.2240 C.3   136  THR136      0.1770
    164  OG1       -4.1650   20.3920   -8.1800 O.3   136  THR136     -0.2211
    165  CG2       -6.1940   19.4640   -9.1980 C.3   136  THR136      0.0375
@<TRIPOS>BOND
     1    58    56   ar
     2    58    59   ar
     3    56    54   ar
     4    60    59    1
     5    59    57   ar
     6    54    53    1
     7    54    55   ar
     8    53    50    1
     9    29    30    1
    10   165   163    1
    11    57    55   ar
    12    50    49    1
    13    50    51    1
    14    30    33    1
    15    30    31    1
    16   160   161    1
    17   160   163    1
    18   160   159    1
    19   161   162    2
    20    33    34    1
    21   163   164    1
    22    34    35    1
    23    31    32    2
    24    31    38   am
    25    51    52    2
    26    51    61   am
    27    36    35   ar
    28    35    37   ar
    29    38    39    1
    30    61    62    1
    31    40    39    1
    32    40    41    2
    33    39    42    1
    34    62    63    1
    35    62    65    1
    36    20    17    1
    37    74    75    2
    38    74    73    1
    39    12    11    2
    40     8     6    1
    41    42    43    1
    42    72    63   am
    43    72    73    1
    44    63    64    2
    45    17    18    1
    46    17    16    1
    47    76    73    1
    48    76    77    1
    49     6     5    1
    50    65    66    1
    51    18    19    2
    52    43    44   ar
    53    43    45   ar
    54    11    16   am
    55    11    10    1
    56    44    46   ar
    57    45    47   ar
    58    14    13    1
    59     5     2    1
    60     5     7    1
    61     9    10    1
    62     9     3   am
    63    66    67   ar
    64    66    68   ar
    65    46    48   ar
    66     2     3    1
    67     2     1    1
    68    47    48   ar
    69    10    13    1
    70    67    69   ar
    71     3     4    2
    72    13    15    1
    73    68    70   ar
    74    27    26    1
    75    69    71   ar
    76   127   128    1
    77   127   126    1
    78    70    71   ar
    79   138   137    1
    80    25    26    1
    81    25    22    1
    82    26    28    1
    83   139   137    1
    84   137   136    2
    85    23    24    2
    86    23    22    1
    87   136   135    1
    88   135   134    1
    89   126   125    1
    90    22    21    1
    91   123   122    2
    92   158   157    1
    93   134   133    1
    94   125   124    1
    95   156   157   ar
    96   156   154   ar
    97   157   155   ar
    98   145   144    1
    99   154   152   ar
   100   122   121    1
   101   155   153   ar
   102   124   121    1
   103   152   153   ar
   104   152   151    1
   105   144   141    1
   106   144   146    1
   107   133   130    1
   108   141   140    1
   109   141   142    1
   110   111   110    1
   111   129   130    1
   112   121   120    1
   113   151   148    1
   114   120   114   am
   115   130   131    1
   116   119   117    1
   117   118   117    1
   118   143   142    2
   119   150   149    2
   120   116   117    1
   121   116   113    1
   122   110   107    1
   123   114   115    2
   124   114   113    1
   125   148   149    1
   126   148   147    1
   127   113   112    1
   128   104   105    1
   129   104   103    1
   130   105    99    1
   131   131   132    2
   132   107   108    1
   133   107   106    1
   134   109   108    2
   135   103   100    1
   136    97    95    1
   137    96    98    1
   138    96    95    1
   139    99   100    1
   140    99    93   am
   141    95    92    1
   142    84    82    1
   143    88    87    2
   144    92    93    1
   145    92    91    1
   146   100   101    1
   147    90    89    1
   148   102   101    2
   149    93    94    2
   150    87    91   am
   151    87    86    1
   152    83    82    1
   153    89    86    1
   154    82    79    1
   155    81    80    2
   156    86    85    1
   157    79    80    1
   158    79    78    1
