@<TRIPOS>MOLECULE
tmp/3f97B00.pdb
 95 93 0 0 0
SMALL
GASTEIGER

@<TRIPOS>ATOM
      1  N        -51.6970    2.8380   27.4150 N.3    57  PHE57      -0.1241
      2  CA       -50.9680    3.9380   26.7970 C.3    57  PHE57       0.1605
      3  C        -51.9210    4.9750   26.2080 C.2    57  PHE57       0.2264
      4  O        -51.7150    6.1770   26.3680 O.2    57  PHE57      -0.2867
      5  CB       -50.0190    3.4050   25.7200 C.3    57  PHE57       0.0534
      6  CG       -49.3610    4.4830   24.8830 C.ar   57  PHE57      -0.0203
      7  CD1      -48.5180    5.4310   25.4670 C.ar   57  PHE57      -0.0042
      8  CD2      -49.5440    4.5160   23.5020 C.ar   57  PHE57      -0.0042
      9  CE1      -47.8870    6.4050   24.6900 C.ar   57  PHE57      -0.0003
     10  CE2      -48.9120    5.5010   22.7130 C.ar   57  PHE57      -0.0003
     11  CZ       -48.0870    6.4430   23.3150 C.ar   57  PHE57      -0.0000
     12  N        -40.5990    3.5800   19.3510 N.3    99  GLY99      -0.1210
     13  CA       -41.0350    4.7710   20.0860 C.3    99  GLY99       0.1956
     14  C        -41.7360    4.5180   21.4230 C.2    99  GLY99       0.2612
     15  O        -41.9000    3.3740   21.8500 O.2    99  GLY99      -0.2717
     16  N        -42.1970    5.6010   22.0590 N.am  100  LEU100     -0.1965
     17  CA       -42.9010    5.5190   23.3370 C.3   100  LEU100      0.1728
     18  C        -44.2320    4.8320   23.0820 C.2   100  LEU100      0.2617
     19  O        -44.9420    5.2100   22.1510 O.2   100  LEU100     -0.2715
     20  CB       -43.1430    6.9370   23.8720 C.3   100  LEU100      0.0311
     21  CG       -43.8960    7.0370   25.2120 C.3   100  LEU100      0.0022
     22  CD1      -43.0440    6.4900   26.3330 C.3   100  LEU100      0.0001
     23  CD2      -44.2720    8.4880   25.5150 C.3   100  LEU100      0.0001
     24  N        -44.5650    3.8410   23.9000 N.am  101  GLY101     -0.1940
     25  CA       -45.8440    3.1470   23.7800 C.3   101  GLY101      0.2014
     26  C        -45.8060    2.0270   22.7620 C.2   101  GLY101      0.2638
     27  O        -46.7980    1.3050   22.5860 O.2   101  GLY101     -0.2714
     28  N        -44.6660    1.8710   22.0780 N.am  102  ALA102     -0.1977
     29  CA       -44.5080    0.7810   21.1380 C.3   102  ALA102      0.1597
     30  C        -43.7940   -0.3870   21.8170 C.2   102  ALA102      0.2287
     31  O        -43.7450   -0.4880   23.0640 O.2   102  ALA102     -0.2864
     32  CB       -43.7400    1.2500   19.8800 C.3   102  ALA102      0.0319
     33  N        -42.5910   -2.2950   13.8950 N.3   107  TYR107     -0.1241
     34  CA       -41.8920   -1.6330   12.7910 C.3   107  TYR107      0.1605
     35  C        -41.4170   -2.6730   11.7800 C.2   107  TYR107      0.2264
     36  O        -40.3130   -2.5930   11.2150 O.2   107  TYR107     -0.2867
     37  CB       -40.7350   -0.7790   13.3040 C.3   107  TYR107      0.0534
     38  CG       -41.1910    0.3370   14.2330 C.ar  107  TYR107     -0.0201
     39  CD1      -41.4350    1.6210   13.7420 C.ar  107  TYR107     -0.0009
     40  CD2      -41.3620    0.1090   15.6090 C.ar  107  TYR107     -0.0009
     41  CE1      -41.8540    2.6510   14.5650 C.ar  107  TYR107      0.0417
     42  CE2      -41.7950    1.1490   16.4470 C.ar  107  TYR107      0.0417
     43  CZ       -41.9960    2.4100   15.9280 C.ar  107  TYR107      0.1957
     44  OH       -42.3660    3.4130   16.7810 O.3   107  TYR107     -0.2866
     45  N        -37.5590    5.3160   15.6810 N.3   219  HIS219     -0.1226
     46  CA       -38.6970    6.2100   15.4520 C.3   219  HIS219      0.1752
     47  C        -39.0630    6.8760   16.7500 C.2   219  HIS219      0.2596
     48  O        -39.2570    6.2150   17.7680 O.2   219  HIS219     -0.2718
     49  CB       -39.8850    5.4030   14.9590 C.3   219  HIS219      0.0759
     50  CG       -41.1660    6.1860   14.8450 C.ar  219  HIS219      0.0818
     51  ND1      -42.3210    5.8050   15.4940 N.ar  219  HIS219     -0.2268
     52  CD2      -41.4770    7.3040   14.1430 C.ar  219  HIS219      0.1154
     53  CE1      -43.2960    6.6480   15.1890 C.ar  219  HIS219      0.1986
     54  NE2      -42.8190    7.5560   14.3540 N.ar  219  HIS219     -0.2212
     55  N        -39.2940    8.4250   16.7040 N.am  220  SER220     -0.1952
     56  CA       -39.9140    9.1860   17.7860 C.3   220  SER220      0.1924
     57  C        -38.9950    9.1160   18.9870 C.2   220  SER220      0.2314
     58  O        -37.8150    9.4870   18.9350 O.2   220  SER220     -0.2863
     59  CB       -41.2720    8.5530   18.0600 C.3   220  SER220      0.2116
     60  OG       -41.9830    9.5020   18.8550 O.3   220  SER220     -0.2180
     61  N        -46.0210   15.9300   12.6180 N.3   269  PHE269     -0.1241
     62  CA       -45.5560   15.7430   13.9950 C.3   269  PHE269      0.1605
     63  C        -44.7460   16.9470   14.4800 C.2   269  PHE269      0.2264
     64  O        -44.7440   17.2830   15.6760 O.2   269  PHE269     -0.2867
     65  CB       -44.6810   14.4780   14.1170 C.3   269  PHE269      0.0534
     66  CG       -44.1350   14.2610   15.4940 C.ar  269  PHE269     -0.0203
     67  CD1      -44.9790   13.9360   16.5470 C.ar  269  PHE269     -0.0042
     68  CD2      -42.7630   14.3750   15.7420 C.ar  269  PHE269     -0.0042
     69  CE1      -44.4860   13.7260   17.8240 C.ar  269  PHE269     -0.0003
     70  CE2      -42.2700   14.1760   17.0350 C.ar  269  PHE269     -0.0003
     71  CZ       -43.1340   13.8510   18.0710 C.ar  269  PHE269     -0.0000
     72  N        -47.0640   11.3140   12.2860 N.3   298  HIS298     -0.1226
     73  CA       -46.0990   10.5510   13.0900 C.3   298  HIS298      0.1752
     74  C        -46.2210    9.0460   12.8870 C.2   298  HIS298      0.2595
     75  O        -45.2120    8.3230   12.8310 O.2   298  HIS298     -0.2718
     76  CB       -46.3230   10.8880   14.5520 C.3   298  HIS298      0.0759
     77  CG       -45.1500   10.5870   15.4250 C.ar  298  HIS298      0.0818
     78  ND1      -43.8610   10.9520   15.0950 N.ar  298  HIS298     -0.2268
     79  CD2      -45.0840   10.0470   16.6640 C.ar  298  HIS298      0.1154
     80  CE1      -43.0440   10.6060   16.0730 C.ar  298  HIS298      0.1986
     81  NE2      -43.7640   10.0650   17.0410 N.ar  298  HIS298     -0.2212
     82  N        -47.4550    8.5620   12.7890 N.am  299  GLN299     -0.1979
     83  CA       -47.7020    7.1170   12.6510 C.3   299  GLN299      0.1601
     84  C        -47.3610    6.5130   11.3000 C.2   299  GLN299      0.2287
     85  O        -47.3490    5.2780   11.1550 O.2   299  GLN299     -0.2864
     86  CB       -49.1330    6.7670   13.0370 C.3   299  GLN299      0.0394
     87  CG       -49.4480    6.9640   14.5010 C.3   299  GLN299      0.0908
     88  CD       -48.5610    6.1290   15.4070 C.2   299  GLN299      0.2608
     89  OE1      -48.3730    4.9400   15.1800 O.2   299  GLN299     -0.2717
     90  NE2      -47.9900    6.7690   16.4210 N.am  299  GLN299     -0.0878
     91  N        -44.7900    3.6430   11.5340 N.3   302  ALA302     -0.1245
     92  CA       -45.0800    2.4290   12.3240 C.3   302  ALA302      0.1562
     93  C        -46.1590    1.5930   11.6600 C.2   302  ALA302      0.2260
     94  O        -46.8700    2.0860   10.7590 O.2   302  ALA302     -0.2867
     95  CB       -45.4690    2.7940   13.7380 C.3   302  ALA302      0.0290
@<TRIPOS>BOND
     1    94    93    2
     2    85    84    2
     3    36    35    2
     4    84    83    1
     5    91    92    1
     6    93    92    1
     7    35    34    1
     8    72    73    1
     9    92    95    1
    10    61    62    1
    11    83    82    1
    12    83    86    1
    13    82    74   am
    14    34    37    1
    15    34    33    1
    16    75    74    2
    17    74    73    1
    18    86    87    1
    19    73    76    1
    20    37    38    1
    21    39    38   ar
    22    39    41   ar
    23    62    65    1
    24    62    63    1
    25    65    66    1
    26    52    54   ar
    27    52    50   ar
    28    38    40   ar
    29    54    53   ar
    30    63    64    2
    31    87    88    1
    32    76    77    1
    33    41    43   ar
    34    50    49    1
    35    50    51   ar
    36    49    46    1
    37    78    77   ar
    38    78    80   ar
    39    89    88    2
    40    53    51   ar
    41    88    90   am
    42    77    79   ar
    43    46    45    1
    44    46    47    1
    45    66    68   ar
    46    66    67   ar
    47    40    42   ar
    48    68    70   ar
    49    43    42   ar
    50    43    44    1
    51    80    81   ar
    52    67    69   ar
    53    79    81   ar
    54    55    47   am
    55    55    56    1
    56    47    48    2
    57    70    71   ar
    58    56    59    1
    59    56    57    1
    60    69    71   ar
    61    59    60    1
    62    58    57    2
    63    12    13    1
    64    32    29    1
    65    13    14    1
    66    29    30    1
    67    29    28    1
    68    14    15    2
    69    14    16   am
    70    30    31    2
    71    16    17    1
    72    28    26   am
    73    19    18    2
    74    27    26    2
    75    10    11   ar
    76    10     8   ar
    77    26    25    1
    78    18    17    1
    79    18    24   am
    80    11     9   ar
    81    17    20    1
    82     8     6   ar
    83    25    24    1
    84    20    21    1
    85     9     7   ar
    86     6     7   ar
    87     6     5    1
    88    21    23    1
    89    21    22    1
    90     5     2    1
    91     3     4    2
    92     3     2    1
    93     2     1    1
