@<TRIPOS>MOLECULE
tmp/3f98A00.pdb
 111 111 0 0 0
SMALL
GASTEIGER

@<TRIPOS>ATOM
      1  N         20.5930  -34.0840   56.0130 N.3    62  PHE62      -0.1241
      2  CA        20.2040  -34.3820   54.6410 C.3    62  PHE62       0.1605
      3  C         21.2370  -35.2710   53.9400 C.2    62  PHE62       0.2264
      4  O         20.8790  -36.1990   53.2100 O.2    62  PHE62      -0.2867
      5  CB        20.0020  -33.0630   53.8940 C.3    62  PHE62       0.0534
      6  CG        19.8280  -33.2160   52.4140 C.ar   62  PHE62      -0.0203
      7  CD1       18.7880  -33.9870   51.8970 C.ar   62  PHE62      -0.0042
      8  CD2       20.6950  -32.5810   51.5400 C.ar   62  PHE62      -0.0042
      9  CE1       18.6130  -34.1140   50.5250 C.ar   62  PHE62      -0.0003
     10  CE2       20.5290  -32.7080   50.1620 C.ar   62  PHE62      -0.0003
     11  CZ        19.4840  -33.4800   49.6610 C.ar   62  PHE62      -0.0000
     12  N         15.0420  -26.6470   45.8960 N.3   104  GLY104     -0.1210
     13  CA        14.9580  -28.1090   45.8270 C.3   104  GLY104      0.1956
     14  C         14.8960  -28.8150   47.1750 C.2   104  GLY104      0.2611
     15  O         14.9530  -28.1940   48.2480 O.2   104  GLY104     -0.2717
     16  N         14.7930  -30.1390   47.1140 N.am  105  LEU105     -0.1979
     17  CA        14.8300  -30.9650   48.3150 C.3   105  LEU105      0.1596
     18  C         16.1920  -30.8460   48.9840 C.2   105  LEU105      0.2287
     19  O         17.2210  -30.9810   48.3370 O.2   105  LEU105     -0.2864
     20  CB        14.5770  -32.4300   47.9250 C.3   105  LEU105      0.0297
     21  CG        14.5380  -33.4410   49.0650 C.3   105  LEU105      0.0022
     22  CD1       13.3020  -33.2410   49.9030 C.3   105  LEU105      0.0001
     23  CD2       14.5380  -34.8910   48.4470 C.3   105  LEU105      0.0001
     24  N         17.4680  -28.2140   50.1670 N.3   107  ALA107     -0.1245
     25  CA        17.9620  -26.8410   50.1020 C.3   107  ALA107      0.1562
     26  C         17.1360  -25.9560   51.0430 C.2   107  ALA107      0.2260
     27  O         16.4750  -26.4490   51.9870 O.2   107  ALA107     -0.2867
     28  CB        17.9390  -26.3330   48.6480 C.3   107  ALA107      0.0290
     29  N         20.2330  -20.2790   46.1070 N.3   112  TYR112     -0.1241
     30  CA        20.1060  -20.0280   44.6650 C.3   112  TYR112      0.1605
     31  C         20.3360  -18.5590   44.3530 C.2   112  TYR112      0.2264
     32  O         19.6440  -17.9610   43.5220 O.2   112  TYR112     -0.2867
     33  CB        18.7450  -20.4820   44.1570 C.3   112  TYR112      0.0534
     34  CG        18.5460  -21.9730   44.3230 C.ar  112  TYR112     -0.0201
     35  CD1       18.9070  -22.8720   43.3010 C.ar  112  TYR112     -0.0009
     36  CD2       18.0270  -22.4860   45.5140 C.ar  112  TYR112     -0.0009
     37  CE1       18.7090  -24.2560   43.4660 C.ar  112  TYR112      0.0417
     38  CE2       17.8330  -23.8560   45.6900 C.ar  112  TYR112      0.0417
     39  CZ        18.1670  -24.7270   44.6650 C.ar  112  TYR112      0.1957
     40  OH        17.9190  -26.0710   44.8440 O.3   112  TYR112     -0.2866
     41  N         14.0520  -25.0280   41.1320 N.3   224  HIS224     -0.1226
     42  CA        15.0070  -26.0880   40.8430 C.3   224  HIS224      0.1752
     43  C         14.4490  -27.3810   41.4510 C.2   224  HIS224      0.2597
     44  O         14.3000  -27.5000   42.6620 O.2   224  HIS224     -0.2718
     45  CB        16.3600  -25.7260   41.4200 C.3   224  HIS224      0.0759
     46  CG        17.4000  -26.8080   41.3210 C.ar  224  HIS224      0.0818
     47  ND1       18.0490  -27.2960   42.4300 N.ar  224  HIS224     -0.2268
     48  CD2       17.8990  -27.4880   40.2600 C.ar  224  HIS224      0.1154
     49  CE1       18.9380  -28.2020   42.0590 C.ar  224  HIS224      0.1986
     50  NE2       18.8560  -28.3480   40.7460 N.ar  224  HIS224     -0.2212
     51  N         14.4960  -28.6980   40.5030 N.am  225  SER225     -0.1938
     52  CA        14.4150  -30.0910   40.9350 C.3   225  SER225      0.2055
     53  C         13.1310  -30.2570   41.7320 C.2   225  SER225      0.2643
     54  O         11.9330  -30.0170   41.0130 O.2   225  SER225     -0.2714
     55  CB        15.6100  -30.3850   41.8380 C.3   225  SER225      0.2130
     56  OG        15.6130  -31.7540   42.2910 O.3   225  SER225     -0.2179
     57  N         12.7960  -30.3940   43.1230 N.am  226  PHE226     -0.1973
     58  CA        11.4570  -30.3030   43.7380 C.3   226  PHE226      0.1639
     59  C         10.8070  -28.9650   43.3610 C.2   226  PHE226      0.2290
     60  O          9.5880  -28.8720   43.1990 O.2   226  PHE226     -0.2864
     61  CB        11.6310  -30.4040   45.2470 C.3   226  PHE226      0.0560
     62  CG        10.4810  -31.0650   45.9600 C.ar  226  PHE226     -0.0200
     63  CD1       10.6910  -31.5950   47.2220 C.ar  226  PHE226     -0.0042
     64  CD2        9.2170  -31.1570   45.3830 C.ar  226  PHE226     -0.0042
     65  CE1        9.6460  -32.2350   47.9250 C.ar  226  PHE226     -0.0003
     66  CE2        8.1530  -31.7940   46.0810 C.ar  226  PHE226     -0.0003
     67  CZ         8.3790  -32.3240   47.3430 C.ar  226  PHE226     -0.0000
     68  N         12.0430  -32.3490   38.9820 N.3   250  TRP250     -0.1241
     69  CA        11.8590  -33.7060   39.4610 C.3   250  TRP250      0.1605
     70  C         10.3460  -33.9050   39.5060 C.2   250  TRP250      0.2264
     71  O          9.6510  -33.2680   40.3020 O.2   250  TRP250     -0.2867
     72  CB        12.5100  -33.8140   40.8490 C.3   250  TRP250      0.0550
     73  CG        12.1640  -35.0680   41.5800 C.ar  250  TRP250      0.0003
     74  CD1       12.3090  -36.3590   41.1300 C.ar  250  TRP250      0.0946
     75  CD2       11.6470  -35.1560   42.9100 C.ar  250  TRP250      0.0152
     76  NE1       11.8720  -37.2540   42.1100 N.ar  250  TRP250     -0.2442
     77  CE2       11.4620  -36.5400   43.2040 C.ar  250  TRP250      0.0810
     78  CE3       11.3060  -34.2010   43.8870 C.ar  250  TRP250      0.0012
     79  CZ2       10.9580  -36.9920   44.4400 C.ar  250  TRP250      0.0191
     80  CZ3       10.8070  -34.6540   45.1220 C.ar  250  TRP250      0.0001
     81  CH2       10.6400  -36.0390   45.3840 C.ar  250  TRP250      0.0015
     82  N         21.4460  -35.6640   35.5120 N.3   274  PHE274     -0.1241
     83  CA        20.3870  -35.9680   36.4780 C.3   274  PHE274      0.1605
     84  C         19.2570  -36.7980   35.8580 C.2   274  PHE274      0.2264
     85  O         18.7420  -37.7390   36.4850 O.2   274  PHE274     -0.2867
     86  CB        19.8050  -34.6970   37.1190 C.3   274  PHE274      0.0534
     87  CG        18.6400  -34.9800   38.0380 C.ar  274  PHE274     -0.0203
     88  CD1       18.8130  -35.7480   39.1950 C.ar  274  PHE274     -0.0042
     89  CD2       17.3640  -34.5240   37.7170 C.ar  274  PHE274     -0.0042
     90  CE1       17.7180  -36.0430   40.0240 C.ar  274  PHE274     -0.0003
     91  CE2       16.2610  -34.8210   38.5430 C.ar  274  PHE274     -0.0003
     92  CZ        16.4490  -35.5640   39.6980 C.ar  274  PHE274     -0.0000
     93  N         22.7050  -31.9900   38.5180 N.3   303  HIS303     -0.1226
     94  CA        21.6130  -31.1610   39.0390 C.3   303  HIS303      0.1752
     95  C         22.1360  -30.0570   39.9540 C.2   303  HIS303      0.2595
     96  O         21.5170  -29.0080   40.0530 O.2   303  HIS303     -0.2718
     97  CB        20.4890  -31.9590   39.7220 C.3   303  HIS303      0.0759
     98  CG        20.8480  -32.5320   41.0540 C.ar  303  HIS303      0.0818
     99  ND1       21.5750  -33.6980   41.1970 N.ar  303  HIS303     -0.2268
    100  CD2       20.5370  -32.1240   42.3080 C.ar  303  HIS303      0.1154
    101  CE1       21.7190  -33.9670   42.4850 C.ar  303  HIS303      0.1986
    102  NE2       21.1000  -33.0280   43.1780 N.ar  303  HIS303     -0.2212
    103  N         23.2640  -30.3030   40.6210 N.am  304  GLN304     -0.1979
    104  CA        23.8070  -29.2600   41.5140 C.3   304  GLN304      0.1601
    105  C         24.3690  -28.0430   40.7790 C.2   304  GLN304      0.2287
    106  O         24.6490  -27.0250   41.4330 O.2   304  GLN304     -0.2864
    107  CB        24.8250  -29.8370   42.5010 C.3   304  GLN304      0.0394
    108  CG        24.1820  -30.7340   43.5590 C.3   304  GLN304      0.0908
    109  CD        23.2730  -29.9750   44.5120 C.2   304  GLN304      0.2608
    110  OE1       22.1230  -30.3640   44.7330 O.2   304  GLN304     -0.2717
    111  NE2       23.7730  -28.8800   45.0650 N.am  304  GLN304     -0.0878
@<TRIPOS>BOND
     1    82    83    1
     2    84    83    1
     3    84    85    2
     4    83    86    1
     5    86    87    1
     6    89    87   ar
     7    89    91   ar
     8    87    88   ar
     9    93    94    1
    10    91    92   ar
    11    68    69    1
    12    94    97    1
    13    94    95    1
    14    88    90   ar
    15    69    70    1
    16    69    72    1
    17    70    71    2
    18    92    90   ar
    19    97    98    1
    20    95    96    2
    21    95   103   am
    22    48    50   ar
    23    48    46   ar
    24    51    52    1
    25    51    43   am
    26   103   104    1
    27    50    49   ar
    28   105   106    2
    29   105   104    1
    30    42    41    1
    31    42    45    1
    32    42    43    1
    33    72    73    1
    34    52    53    1
    35    52    55    1
    36    54    53    2
    37    98    99   ar
    38    98   100   ar
    39    74    73   ar
    40    74    76   ar
    41    99   101   ar
    42    46    45    1
    43    46    47   ar
    44    43    44    2
    45   104   107    1
    46    73    75   ar
    47    53    57   am
    48    55    56    1
    49    49    47   ar
    50    76    77   ar
    51   100   102   ar
    52   101   102   ar
    53   107   108    1
    54    75    77   ar
    55    75    78   ar
    56    57    58    1
    57    60    59    2
    58    77    79   ar
    59    35    37   ar
    60    35    34   ar
    61    59    58    1
    62    37    39   ar
    63    32    31    2
    64   108   109    1
    65    58    61    1
    66    78    80   ar
    67    33    34    1
    68    33    30    1
    69    34    36   ar
    70    31    30    1
    71    79    81   ar
    72   109   110    2
    73   109   111   am
    74    30    29    1
    75    39    40    1
    76    39    38   ar
    77    80    81   ar
    78    61    62    1
    79    64    62   ar
    80    64    66   ar
    81    36    38   ar
    82    13    12    1
    83    13    14    1
    84    62    63   ar
    85    66    67   ar
    86    16    14   am
    87    16    17    1
    88    14    15    2
    89    63    65   ar
    90    67    65   ar
    91    20    17    1
    92    20    21    1
    93    17    18    1
    94    19    18    2
    95    23    21    1
    96    28    25    1
    97    21    22    1
    98    11    10   ar
    99    11     9   ar
   100    25    24    1
   101    25    26    1
   102    10     8   ar
   103     9     7   ar
   104    26    27    2
   105     8     6   ar
   106     7     6   ar
   107     6     5    1
   108     4     3    2
   109     5     2    1
   110     3     2    1
   111     2     1    1
