@<TRIPOS>MOLECULE
tmp/3f9cB00.pdb
 120 120 0 0 0
SMALL
GASTEIGER

@<TRIPOS>ATOM
      1  N         51.5450    3.0660  -27.0920 N.3    57  PHE57      -0.1241
      2  CA        50.8390    4.1640  -26.4520 C.3    57  PHE57       0.1605
      3  C         51.8110    5.1370  -25.7240 C.2    57  PHE57       0.2264
      4  O         51.5740    6.3720  -25.6140 O.2    57  PHE57      -0.2867
      5  CB        49.7970    3.5810  -25.5040 C.3    57  PHE57       0.0534
      6  CG        49.2760    4.5530  -24.5010 C.ar   57  PHE57      -0.0203
      7  CD1       48.3320    5.5050  -24.8550 C.ar   57  PHE57      -0.0042
      8  CD2       49.7010    4.5060  -23.1860 C.ar   57  PHE57      -0.0042
      9  CE1       47.8640    6.4250  -23.9070 C.ar   57  PHE57      -0.0003
     10  CE2       49.2180    5.4270  -22.2660 C.ar   57  PHE57      -0.0003
     11  CZ        48.3040    6.3850  -22.6490 C.ar   57  PHE57      -0.0000
     12  N         40.5740    3.5080  -19.0600 N.3    99  GLY99      -0.1210
     13  CA        41.0660    4.6710  -19.7740 C.3    99  GLY99       0.1956
     14  C         41.7150    4.3870  -21.1020 C.2    99  GLY99       0.2612
     15  O         41.8330    3.2440  -21.5540 O.2    99  GLY99      -0.2717
     16  N         42.1430    5.4640  -21.7380 N.am  100  LEU100     -0.1965
     17  CA        42.8630    5.4260  -22.9780 C.3   100  LEU100      0.1728
     18  C         44.2280    4.7380  -22.7470 C.2   100  LEU100      0.2617
     19  O         44.8030    4.8830  -21.7020 O.2   100  LEU100     -0.2715
     20  CB        43.0300    6.8740  -23.4870 C.3   100  LEU100      0.0311
     21  CG        43.7920    6.9800  -24.7960 C.3   100  LEU100      0.0022
     22  CD1       42.9080    6.6350  -25.9430 C.3   100  LEU100      0.0001
     23  CD2       44.5200    8.3140  -24.9760 C.3   100  LEU100      0.0001
     24  N         44.7030    3.9200  -23.6940 N.am  101  GLY101     -0.1940
     25  CA        45.8980    3.1230  -23.4710 C.3   101  GLY101      0.2014
     26  C         45.7890    2.0310  -22.4120 C.2   101  GLY101      0.2638
     27  O         46.7560    1.2840  -22.2010 O.2   101  GLY101     -0.2714
     28  N         44.6420    1.8720  -21.7550 N.am  102  ALA102     -0.1977
     29  CA        44.5370    0.7550  -20.7780 C.3   102  ALA102      0.1597
     30  C         43.8180   -0.4190  -21.4570 C.2   102  ALA102      0.2287
     31  O         43.7700   -0.4580  -22.6910 O.2   102  ALA102     -0.2864
     32  CB        43.8480    1.1730  -19.5040 C.3   102  ALA102      0.0319
     33  N         42.6150   -2.4560  -13.6400 N.3   107  TYR107     -0.1241
     34  CA        41.8810   -1.8310  -12.5650 C.3   107  TYR107      0.1605
     35  C         41.4090   -2.8850  -11.5320 C.2   107  TYR107      0.2264
     36  O         40.3040   -2.8110  -10.9640 O.2   107  TYR107     -0.2867
     37  CB        40.7150   -0.9780  -13.1320 C.3   107  TYR107      0.0534
     38  CG        41.1840    0.1470  -14.0650 C.ar  107  TYR107     -0.0201
     39  CD1       41.4710    1.4160  -13.5630 C.ar  107  TYR107     -0.0009
     40  CD2       41.3340   -0.0630  -15.4490 C.ar  107  TYR107     -0.0009
     41  CE1       41.9100    2.4810  -14.4020 C.ar  107  TYR107      0.0417
     42  CE2       41.7900    0.9710  -16.2790 C.ar  107  TYR107      0.0417
     43  CZ        42.0670    2.2330  -15.7320 C.ar  107  TYR107      0.1957
     44  OH        42.4360    3.2490  -16.5330 O.3   107  TYR107     -0.2866
     45  N         37.6870    5.0690  -15.0610 N.3   219  HIS219     -0.1226
     46  CA        38.8300    5.9530  -14.9400 C.3   219  HIS219      0.1752
     47  C         39.0700    6.6820  -16.2230 C.2   219  HIS219      0.2597
     48  O         39.1540    6.1030  -17.3140 O.2   219  HIS219     -0.2718
     49  CB        40.0920    5.1680  -14.5570 C.3   219  HIS219      0.0759
     50  CG        41.3520    6.0000  -14.4970 C.ar  219  HIS219      0.0818
     51  ND1       42.4630    5.7230  -15.2710 N.ar  219  HIS219     -0.2268
     52  CD2       41.6800    7.0880  -13.7540 C.ar  219  HIS219      0.1154
     53  CE1       43.4280    6.5800  -14.9860 C.ar  219  HIS219      0.1986
     54  NE2       42.9860    7.4130  -14.0660 N.ar  219  HIS219     -0.2212
     55  N         39.0570    8.3190  -16.2290 N.am  220  SER220     -0.1938
     56  CA        39.8270    8.9870  -17.2540 C.3   220  SER220      0.2055
     57  C         39.0530    8.9760  -18.5390 C.2   220  SER220      0.2643
     58  O         37.9610    9.5020  -18.6800 O.2   220  SER220     -0.2714
     59  CB        41.1620    8.2960  -17.4470 C.3   220  SER220      0.2130
     60  OG        41.8700    9.0840  -18.3790 O.3   220  SER220     -0.2179
     61  N         39.2340    8.1640  -19.9460 N.am  221  PHE221     -0.1973
     62  CA        38.3480    8.0330  -21.0600 C.3   221  PHE221      0.1639
     63  C         37.1920    7.2370  -20.4420 C.2   221  PHE221      0.2290
     64  O         36.0390    7.4180  -20.8560 O.2   221  PHE221     -0.2864
     65  CB        39.0500    7.3170  -22.1730 C.3   221  PHE221      0.0560
     66  CG        38.4860    7.5860  -23.5370 C.ar  221  PHE221     -0.0200
     67  CD1       39.2330    7.3020  -24.6580 C.ar  221  PHE221     -0.0042
     68  CD2       37.2060    8.0850  -23.7120 C.ar  221  PHE221     -0.0042
     69  CE1       38.7410    7.5330  -25.9210 C.ar  221  PHE221     -0.0003
     70  CE2       36.7000    8.3100  -25.0200 C.ar  221  PHE221     -0.0003
     71  CZ        37.4740    8.0450  -26.0980 C.ar  221  PHE221     -0.0000
     72  N         38.2290   12.3740  -18.2430 N.3   245  TRP245     -0.1241
     73  CA        38.7630   13.1930  -19.2400 C.3   245  TRP245      0.1605
     74  C         37.5860   13.5730  -20.1250 C.2   245  TRP245      0.2264
     75  O         37.0490   12.7280  -20.8660 O.2   245  TRP245     -0.2867
     76  CB        39.8410   12.4250  -19.9810 C.3   245  TRP245      0.0550
     77  CG        40.3550   13.1430  -21.1290 C.ar  245  TRP245      0.0003
     78  CD1       40.8480   14.4310  -21.1470 C.ar  245  TRP245      0.0946
     79  CD2       40.5340   12.6190  -22.4380 C.ar  245  TRP245      0.0152
     80  NE1       41.2700   14.7420  -22.4150 N.ar  245  TRP245     -0.2442
     81  CE2       41.0960   13.6430  -23.2240 C.ar  245  TRP245      0.0810
     82  CE3       40.2840   11.3740  -23.0290 C.ar  245  TRP245      0.0012
     83  CZ2       41.3880   13.4670  -24.5810 C.ar  245  TRP245      0.0191
     84  CZ3       40.5660   11.2120  -24.3860 C.ar  245  TRP245      0.0001
     85  CH2       41.1000   12.2540  -25.1390 C.ar  245  TRP245      0.0015
     86  N         46.0780   15.6570  -12.2310 N.3   269  PHE269     -0.1241
     87  CA        45.6210   15.5260  -13.6140 C.3   269  PHE269      0.1605
     88  C         44.7950   16.7260  -14.0720 C.2   269  PHE269      0.2264
     89  O         44.8690   17.0920  -15.2320 O.2   269  PHE269     -0.2867
     90  CB        44.8600   14.2160  -13.8460 C.3   269  PHE269      0.0534
     91  CG        44.1850   14.1020  -15.2100 C.ar  269  PHE269     -0.0203
     92  CD1       44.9290   13.7650  -16.3630 C.ar  269  PHE269     -0.0042
     93  CD2       42.8090   14.2640  -15.3210 C.ar  269  PHE269     -0.0042
     94  CE1       44.3040   13.6180  -17.6170 C.ar  269  PHE269     -0.0003
     95  CE2       42.1660   14.1410  -16.5430 C.ar  269  PHE269     -0.0003
     96  CZ        42.9110   13.8060  -17.7170 C.ar  269  PHE269     -0.0000
     97  N         47.0960   11.0960  -11.8820 N.3   298  HIS298     -0.1226
     98  CA        46.1740   10.3410  -12.7190 C.3   298  HIS298      0.1752
     99  C         46.2590    8.8030  -12.4660 C.2   298  HIS298      0.2595
    100  O         45.2370    8.1110  -12.3310 O.2   298  HIS298     -0.2718
    101  CB        46.4530   10.7130  -14.1760 C.3   298  HIS298      0.0759
    102  CG        45.3160   10.4490  -15.1110 C.ar  298  HIS298      0.0818
    103  ND1       44.0090   10.7830  -14.8150 N.ar  298  HIS298     -0.2268
    104  CD2       45.2980    9.9360  -16.3640 C.ar  298  HIS298      0.1154
    105  CE1       43.2330   10.4610  -15.8300 C.ar  298  HIS298      0.1986
    106  NE2       43.9880    9.9380  -16.7780 N.ar  298  HIS298     -0.2212
    107  N         47.4920    8.2970  -12.3480 N.am  299  GLN299     -0.1979
    108  CA        47.7630    6.8720  -12.4040 C.3   299  GLN299      0.1601
    109  C         47.4820    6.1800  -11.0980 C.2   299  GLN299      0.2287
    110  O         47.4350    4.9550  -11.0440 O.2   299  GLN299     -0.2864
    111  CB        49.1720    6.6030  -12.8980 C.3   299  GLN299      0.0394
    112  CG        49.3150    6.9010  -14.3200 C.3   299  GLN299      0.0908
    113  CD        48.4990    5.9290  -15.1700 C.2   299  GLN299      0.2608
    114  OE1       48.4720    4.7040  -14.9030 O.2   299  GLN299     -0.2717
    115  NE2       47.8010    6.4660  -16.1740 N.am  299  GLN299     -0.0878
    116  N         44.7130    3.4250  -11.2920 N.3   302  ALA302     -0.1245
    117  CA        45.0310    2.2180  -12.0670 C.3   302  ALA302      0.1562
    118  C         46.1400    1.3880  -11.4050 C.2   302  ALA302      0.2260
    119  O         46.8430    1.8660  -10.5080 O.2   302  ALA302     -0.2867
    120  CB        45.4210    2.6140  -13.4950 C.3   302  ALA302      0.0290
@<TRIPOS>BOND
     1     1     2    1
     2     2     3    1
     3     2     5    1
     4    71    69   ar
     5    71    70   ar
     6    22    21    1
     7    69    67   ar
     8     3     4    2
     9     5     6    1
    10    85    83   ar
    11    85    84   ar
    12    70    68   ar
    13    23    21    1
    14     7     6   ar
    15     7     9   ar
    16    21    20    1
    17    67    66   ar
    18    83    81   ar
    19     6     8   ar
    20    84    82   ar
    21     9    11   ar
    22    68    66   ar
    23    24    25    1
    24    24    18   am
    25    66    65    1
    26    20    17    1
    27    25    26    1
    28    81    79   ar
    29    81    80   ar
    30     8    10   ar
    31    82    79   ar
    32    17    18    1
    33    17    16    1
    34    18    19    2
    35    31    30    2
    36    11    10   ar
    37    79    77   ar
    38    80    78   ar
    39    26    27    2
    40    26    28   am
    41    65    62    1
    42    28    29    1
    43    16    14   am
    44    15    14    2
    45    30    29    1
    46    78    77   ar
    47    77    76    1
    48    14    13    1
    49    62    63    1
    50    62    61    1
    51    75    74    2
    52    64    63    2
    53    29    32    1
    54    74    73    1
    55    76    73    1
    56    61    57   am
    57    13    12    1
    58    73    72    1
    59    58    57    2
    60    57    56    1
    61    60    59    1
    62    96    94   ar
    63    96    95   ar
    64    94    92   ar
    65    59    56    1
    66    48    47    2
    67    56    55    1
    68   106   104   ar
    69   106   105   ar
    70    95    93   ar
    71    44    43    1
    72   104   102   ar
    73    92    91   ar
    74    42    43   ar
    75    42    40   ar
    76    55    47   am
    77    47    46    1
    78   115   113   am
    79   105   103   ar
    80    43    41   ar
    81    40    38   ar
    82    93    91   ar
    83    51    53   ar
    84    51    50   ar
    85    89    88    2
    86    91    90    1
    87   113   114    2
    88   113   112    1
    89   102   103   ar
    90   102   101    1
    91    45    46    1
    92    53    54   ar
    93    46    49    1
    94    49    50    1
    95    50    52   ar
    96    41    39   ar
    97   112   111    1
    98   101    98    1
    99    88    87    1
   100    54    52   ar
   101    38    39   ar
   102    38    37    1
   103    90    87    1
   104    33    34    1
   105    87    86    1
   106   120   117    1
   107    37    34    1
   108   111   108    1
   109    98    99    1
   110    98    97    1
   111    34    35    1
   112    99   107   am
   113    99   100    2
   114   108   107    1
   115   108   109    1
   116   117   118    1
   117   117   116    1
   118    35    36    2
   119   118   119    2
   120   109   110    2
