@<TRIPOS>MOLECULE
tmp/3f9mA01.pdb
 169 164 0 0 0
SMALL
GASTEIGER

@<TRIPOS>ATOM
      1  N        -14.9170   -4.4820   24.0110 N.3    58  TYR58      -0.1227
      2  CA       -13.5290   -4.5720   24.4440 C.3    58  TYR58       0.1736
      3  C        -12.5710   -3.6580   23.6790 C.2    58  TYR58       0.2595
      4  O        -11.3490   -3.7670   23.8090 O.2    58  TYR58      -0.2718
      5  CB       -13.0480   -6.0330   24.5310 C.3    58  TYR58       0.0548
      6  CG       -13.6380   -6.7080   25.7290 C.ar   58  TYR58      -0.0200
      7  CD1      -12.9430   -6.7470   26.9350 C.ar   58  TYR58      -0.0009
      8  CD2      -14.9010   -7.2860   25.6770 C.ar   58  TYR58      -0.0009
      9  CE1      -13.4910   -7.3590   28.0440 C.ar   58  TYR58       0.0417
     10  CE2      -15.4570   -7.8970   26.7820 C.ar   58  TYR58       0.0417
     11  CZ       -14.7500   -7.9230   27.9590 C.ar   58  TYR58       0.1957
     12  OH       -15.2850   -8.5340   29.0710 O.3    58  TYR58      -0.2866
     13  N        -13.1450   -2.6920   22.9590 N.am   59  VAL59      -0.1966
     14  CA       -12.3600   -1.6430   22.3490 C.3    59  VAL59       0.1727
     15  C        -12.3260   -0.5000   23.3540 C.2    59  VAL59       0.2616
     16  O        -13.3370    0.1600   23.5900 O.2    59  VAL59      -0.2715
     17  CB       -12.9500   -1.2010   20.9850 C.3    59  VAL59       0.0290
     18  CG1      -12.1920    0.0170   20.4520 C.3    59  VAL59       0.0023
     19  CG2      -12.8630   -2.3330   20.0010 C.3    59  VAL59       0.0023
     20  N        -11.1680   -0.3130   23.9670 N.am   60  ARG60      -0.1963
     21  CA       -11.0260    0.6510   25.0450 C.3    60  ARG60       0.1729
     22  C        -10.3900    1.9100   24.5280 C.2    60  ARG60       0.2617
     23  O         -9.6360    1.8860   23.5590 O.2    60  ARG60      -0.2715
     24  CB       -10.1400    0.0810   26.1550 C.3    60  ARG60       0.0348
     25  CG       -10.7320   -1.1470   26.8230 C.3    60  ARG60       0.0492
     26  CD        -9.6840   -1.8800   27.6250 C.3    60  ARG60       0.2205
     27  NE       -10.1640   -3.1860   28.0800 N.pl3  60  ARG60      -0.0865
     28  CZ       -10.7350   -3.4120   29.2590 C.cat  60  ARG60       0.5346
     29  NH1      -10.9020   -2.4210   30.1240 N.pl3  60  ARG60       0.1354
     30  NH2      -11.1320   -4.6340   29.5790 N.pl3  60  ARG60       0.1354
     31  N        -10.7040    3.0140   25.1870 N.am   61  SER61      -0.1936
     32  CA       -10.0090    4.2630   24.9720 C.3    61  SER61       0.2055
     33  C         -8.6020    4.0620   25.5420 C.2    61  SER61       0.2644
     34  O         -8.4190    3.2500   26.4480 O.2    61  SER61      -0.2714
     35  CB       -10.7420    5.3970   25.6940 C.3    61  SER61       0.2130
     36  OG       -10.8450    5.1450   27.0880 O.3    61  SER61      -0.2179
     37  N         -7.6380    4.6930   24.9650 N.am   62  THR62      -0.1937
     38  CA        -7.8340    5.8500   24.1740 C.3    62  THR62       0.2013
     39  C         -7.1530    5.6340   22.8250 C.2    62  THR62       0.2484
     40  O         -7.6190    6.1540   21.8230 O.2    62  THR62      -0.2729
     41  CB        -7.1680    7.1040   24.8930 C.3    62  THR62       0.1807
     42  OG1       -6.9310    6.8370   26.2780 O.3    62  THR62      -0.2208
     43  CG2       -8.0370    8.2630   24.8230 C.3    62  THR62       0.0379
     44  N         -6.0180    4.9090   22.7980 N.am   63  PRO63      -0.2726
     45  CA        -5.4410    4.2140   23.9380 C.3    63  PRO63       0.1402
     46  C         -3.9700    4.5290   24.3060 C.2    63  PRO63       0.2269
     47  O         -3.7170    5.3700   25.1210 O.2    63  PRO63      -0.2865
     48  CB        -5.4800    2.7640   23.4570 C.3    63  PRO63       0.0296
     49  CG        -5.2520    2.8660   21.9740 C.3    63  PRO63       0.0237
     50  CD        -5.7990    4.1970   21.5330 C.3    63  PRO63       0.0939
     51  N        -11.2810   -8.6710   22.9190 N.3   152  ILE152     -0.1245
     52  CA       -11.2250   -8.0640   21.5990 C.3   152  ILE152      0.1561
     53  C        -11.1760   -9.1130   20.4930 C.2   152  ILE152      0.2260
     54  O        -11.5860   -8.8390   19.3720 O.2   152  ILE152     -0.2867
     55  CB       -10.0320   -7.0730   21.4980 C.3   152  ILE152      0.0252
     56  CG1      -10.1790   -6.1650   20.2680 C.3   152  ILE152      0.0019
     57  CG2       -8.6940   -7.7960   21.5730 C.3   152  ILE152      0.0019
     58  CD1      -11.5610   -5.5430   20.1320 C.3   152  ILE152      0.0001
     59  N        -16.3740    4.0990   13.5440 N.3   203  MET203     -0.1230
     60  CA       -16.0230    5.0810   14.5300 C.3   203  MET203      0.1702
     61  C        -14.5090    5.2400   14.5860 C.2   203  MET203      0.2592
     62  O        -13.9980    6.3620   14.5080 O.2   203  MET203     -0.2718
     63  CB       -16.5450    4.6690   15.8940 C.3   203  MET203      0.0401
     64  CG       -16.2460    5.6960   16.9590 C.3   203  MET203      0.0596
     65  SD       -16.5580    5.0220   18.5850 S.3   203  MET203     -0.1393
     66  CE       -15.2700    3.7800   18.7180 C.3   203  MET203      0.0692
     67  N        -13.7980    4.1250   14.7170 N.am  204  ILE204     -0.1980
     68  CA       -12.3340    4.1870   14.8910 C.3   204  ILE204      0.1595
     69  C        -11.6530    4.8070   13.6720 C.2   204  ILE204      0.2287
     70  O        -10.6760    5.5700   13.8100 O.2   204  ILE204     -0.2864
     71  CB       -11.7380    2.7780   15.1520 C.3   204  ILE204      0.0276
     72  CG1      -12.2900    2.1790   16.4630 C.3   204  ILE204      0.0022
     73  CG2      -10.1910    2.7950   15.1720 C.3   204  ILE204      0.0022
     74  CD1      -11.8530    2.8640   17.6710 C.3   204  ILE204      0.0001
     75  N        -11.6290    8.5620   13.9280 N.3   207  TYR207     -0.1227
     76  CA       -10.9380    9.1400   15.0800 C.3   207  TYR207      0.1736
     77  C         -9.6960    9.9730   14.7430 C.2   207  TYR207      0.2595
     78  O         -9.5040   11.0540   15.2880 O.2   207  TYR207     -0.2718
     79  CB       -10.5910    8.0400   16.1020 C.3   207  TYR207      0.0548
     80  CG        -9.7770    8.5330   17.2730 C.ar  207  TYR207     -0.0200
     81  CD1      -10.3750    9.2620   18.3040 C.ar  207  TYR207     -0.0009
     82  CD2       -8.4040    8.3000   17.3410 C.ar  207  TYR207     -0.0009
     83  CE1       -9.6310    9.7330   19.3720 C.ar  207  TYR207      0.0417
     84  CE2       -7.6470    8.7650   18.4090 C.ar  207  TYR207      0.0417
     85  CZ        -8.2660    9.4810   19.4220 C.ar  207  TYR207      0.1957
     86  OH        -7.5210    9.9450   20.4840 O.3   207  TYR207     -0.2866
     87  N         -8.8450    9.4860   13.8510 N.am  208  TYR208     -0.1976
     88  CA        -7.5510   10.1280   13.6550 C.3   208  TYR208      0.1639
     89  C         -7.6530   11.4870   12.9290 C.2   208  TYR208      0.2290
     90  O         -6.8610   12.4140   13.1880 O.2   208  TYR208     -0.2864
     91  CB        -6.5940    9.1240   13.0200 C.3   208  TYR208      0.0560
     92  CG        -6.4330    7.8800   13.8990 C.ar  208  TYR208     -0.0198
     93  CD1       -5.4780    7.8480   14.9160 C.ar  208  TYR208     -0.0009
     94  CD2       -7.2610    6.7570   13.7380 C.ar  208  TYR208     -0.0009
     95  CE1       -5.3210    6.7270   15.7310 C.ar  208  TYR208      0.0417
     96  CE2       -7.1120    5.6290   14.5600 C.ar  208  TYR208      0.0417
     97  CZ        -6.1320    5.6220   15.5490 C.ar  208  TYR208      0.1957
     98  OH        -5.9490    4.5220   16.3690 O.3   208  TYR208     -0.2866
     99  N        -10.6300   13.5100   16.5310 N.3   211  HIS211     -0.1241
    100  CA       -10.5170   12.8720   17.8390 C.3   211  HIS211      0.1621
    101  C        -11.7990   12.9430   18.6590 C.2   211  HIS211      0.2264
    102  O        -11.9560   12.2260   19.6370 O.2   211  HIS211     -0.2867
    103  CB        -9.3800   13.5040   18.6300 C.3   211  HIS211      0.0745
    104  CG        -8.0200   13.0780   18.1810 C.ar  211  HIS211      0.0817
    105  ND1       -7.7960   12.3840   17.0100 N.ar  211  HIS211     -0.2268
    106  CD2       -6.8040   13.2780   18.7370 C.ar  211  HIS211      0.1154
    107  CE1       -6.4990   12.1660   16.8730 C.ar  211  HIS211      0.1986
    108  NE2       -5.8760   12.6990   17.9070 N.ar  211  HIS211     -0.2212
    109  N        -14.6130   12.0620   17.4980 N.3   213  CYS213     -0.1221
    110  CA       -15.5200   11.0050   17.0440 C.3   213  CYS213      0.1808
    111  C        -15.5740    9.8730   18.0440 C.2   213  CYS213      0.2601
    112  O        -14.5950    9.1410   18.2060 O.2   213  CYS213     -0.2717
    113  CB       -15.0870   10.4830   15.6950 C.3   213  CYS213      0.0970
    114  SG       -16.2050    9.2110   15.1240 S.3   213  CYS213     -0.0800
    115  N        -16.7080    9.7520   18.7300 N.am  214  GLU214     -0.1979
    116  CA       -16.9040    8.7230   19.7490 C.3   214  GLU214      0.1602
    117  C        -18.2440    8.0310   19.5570 C.2   214  GLU214      0.2287
    118  O        -18.7810    7.4270   20.4810 O.2   214  GLU214     -0.2864
    119  CB       -16.8180    9.3150   21.1500 C.3   214  GLU214      0.0415
    120  CG       -15.4260    9.7560   21.4970 C.3   214  GLU214      0.1163
    121  CD       -15.3270   10.1580   22.9390 C.2   214  GLU214      0.3649
    122  OE1      -15.2040    9.2620   23.7930 O.co2 214  GLU214     -0.2457
    123  OE2      -15.3700   11.3730   23.2210 O.co2 214  GLU214     -0.2457
    124  N        -18.7360    5.4710   22.7180 N.3   228  MET228     -0.1245
    125  CA       -17.8200    5.3130   23.8400 C.3   228  MET228      0.1570
    126  C        -18.5240    5.5370   25.1590 C.2   228  MET228      0.2261
    127  O        -18.8760    6.6590   25.4930 O.2   228  MET228     -0.2867
    128  CB       -16.6370    6.2820   23.7190 C.3   228  MET228      0.0387
    129  CG       -15.8170    6.0530   22.4520 C.3   228  MET228      0.0595
    130  SD       -15.1400    4.3850   22.2850 S.3   228  MET228     -0.1393
    131  CE       -14.1040    4.2630   23.7390 C.3   228  MET228      0.0692
    132  N        -13.0220    4.5020   29.1190 N.3   243  ARG243     -0.1245
    133  CA       -14.1870    4.2850   28.2930 C.3   243  ARG243      0.1563
    134  C        -14.0040    3.0200   27.4870 C.2   243  ARG243      0.2260
    135  O        -12.8810    2.5880   27.2310 O.2   243  ARG243     -0.2867
    136  CB       -14.4310    5.4670   27.3560 C.3   243  ARG243      0.0307
    137  CG       -14.8730    6.7140   28.1130 C.3   243  ARG243      0.0489
    138  CD       -15.0010    7.8980   27.2000 C.3   243  ARG243      0.2205
    139  NE       -15.2790    9.1070   27.9730 N.pl3 243  ARG243     -0.0865
    140  CZ       -14.9280   10.3360   27.6090 C.cat 243  ARG243      0.5346
    141  NH1      -14.2830   10.5480   26.4580 N.pl3 243  ARG243      0.1354
    142  NH2      -15.2240   11.3610   28.4040 N.pl3 243  ARG243      0.1354
    143  N         -6.7380   -0.5330   12.4920 N.3   444  LEU444     -0.1231
    144  CA        -6.2970    0.3500   13.5570 C.3   444  LEU444      0.1693
    145  C         -6.5000   -0.3050   14.9060 C.2   444  LEU444      0.2591
    146  O         -5.6550   -0.2070   15.7740 O.2   444  LEU444     -0.2718
    147  CB        -7.0200    1.6980   13.5080 C.3   444  LEU444      0.0284
    148  CG        -6.5860    2.5950   12.3490 C.3   444  LEU444      0.0019
    149  CD1       -7.7130    3.5670   12.0120 C.3   444  LEU444      0.0001
    150  CD2       -5.2750    3.3280   12.6380 C.3   444  LEU444      0.0001
    151  N         -7.6300   -0.9800   15.0770 N.am  445  VAL445     -0.1980
    152  CA        -7.8360   -1.7470   16.2980 C.3   445  VAL445      0.1595
    153  C         -6.8240   -2.8830   16.3840 C.2   445  VAL445      0.2287
    154  O         -6.2240   -3.0830   17.4290 O.2   445  VAL445     -0.2864
    155  CB        -9.2740   -2.2790   16.3870 C.3   445  VAL445      0.0276
    156  CG1       -9.4450   -3.1780   17.6150 C.3   445  VAL445      0.0022
    157  CG2      -10.2540   -1.1160   16.4320 C.3   445  VAL445      0.0022
    158  N         -3.3600   -2.0130   17.5640 N.3   448  VAL448     -0.1231
    159  CA        -3.2610   -1.9070   19.0250 C.3   448  VAL448      0.1692
    160  C         -3.4030   -3.2870   19.6820 C.2   448  VAL448      0.2591
    161  O         -2.6340   -3.6370   20.5870 O.2   448  VAL448     -0.2718
    162  CB        -4.3170   -0.9370   19.5980 C.3   448  VAL448      0.0266
    163  CG1       -4.2240   -0.8650   21.1120 C.3   448  VAL448      0.0020
    164  CG2       -4.1720    0.4550   18.9740 C.3   448  VAL448      0.0020
    165  N         -4.3720   -4.0730   19.2190 N.am  449  ALA449     -0.1980
    166  CA        -4.6420   -5.4050   19.7820 C.3   449  ALA449      0.1597
    167  C         -3.4700   -6.3740   19.6800 C.2   449  ALA449      0.2287
    168  O         -3.1840   -7.1020   20.6310 O.2   449  ALA449     -0.2864
    169  CB        -5.8840   -6.0240   19.1450 C.3   449  ALA449      0.0319
@<TRIPOS>BOND
     1   149   148    1
     2   148   150    1
     3   148   147    1
     4   143   144    1
     5    89    90    2
     6    89    88    1
     7    91    88    1
     8    91    92    1
     9   147   144    1
    10    59    60    1
    11   144   145    1
    12    88    87    1
    13    69    70    2
    14    69    68    1
    15    94    92   ar
    16    94    96   ar
    17    87    77   am
    18    92    93   ar
    19    75    76    1
    20    62    61    2
    21    60    61    1
    22    60    63    1
    23    96    97   ar
    24    61    67   am
    25    67    68    1
    26    77    76    1
    27    77    78    2
    28    68    71    1
    29   145   151   am
    30   145   146    2
    31    93    95   ar
    32   151   152    1
    33    76    79    1
    34   114   113    1
    35    71    73    1
    36    71    72    1
    37    97    95   ar
    38    97    98    1
    39   113   110    1
    40    63    64    1
    41    79    80    1
    42   152   153    1
    43   152   155    1
    44   153   154    2
    45   155   157    1
    46   155   156    1
    47    72    74    1
    48    99   100    1
    49   107   105   ar
    50   107   108   ar
    51    64    65    1
    52   105   104   ar
    53   110   109    1
    54   110   111    1
    55    80    82   ar
    56    80    81   ar
    57    82    84   ar
    58   158   159    1
    59   100   103    1
    60   100   101    1
    61   108   106   ar
    62   111   112    2
    63   111   115   am
    64   104   103    1
    65   104   106   ar
    66    81    83   ar
    67    84    85   ar
    68    65    66    1
    69   101   102    2
    70   115   116    1
    71   164   162    1
    72   159   162    1
    73   159   160    1
    74   169   166    1
    75   165   160   am
    76   165   166    1
    77    54    53    2
    78    83    85   ar
    79    85    86    1
    80   117   116    1
    81   117   118    2
    82   162   163    1
    83   167   166    1
    84   167   168    2
    85   160   161    2
    86   116   119    1
    87    19    17    1
    88    58    56    1
    89    56    55    1
    90    18    17    1
    91    53    52    1
    92    17    14    1
    93   119   120    1
    94   120   121    1
    95    55    57    1
    96    55    52    1
    97    50    49    1
    98    50    44    1
    99    52    51    1
   100    40    39    2
   101    49    48    1
   102   130   129    1
   103   130   131    1
   104    14    13    1
   105    14    15    1
   106   129   128    1
   107   124   125    1
   108    44    39   am
   109    44    45    1
   110    39    38    1
   111   121   123   ar
   112   121   122   ar
   113    13     3   am
   114    15    16    2
   115    15    20   am
   116    48    45    1
   117    23    22    2
   118     3     4    2
   119     3     2    1
   120   128   125    1
   121   125   126    1
   122    45    46    1
   123    20    21    1
   124     1     2    1
   125    38    41    1
   126    38    37    1
   127    46    47    2
   128     2     5    1
   129    22    21    1
   130    22    31   am
   131     5     6    1
   132    43    41    1
   133    41    42    1
   134    37    33   am
   135    32    31    1
   136    32    33    1
   137    32    35    1
   138    21    24    1
   139   126   127    2
   140    33    34    2
   141     8     6   ar
   142     8    10   ar
   143    35    36    1
   144     6     7   ar
   145    24    25    1
   146   141   140    1
   147    10    11   ar
   148    25    26    1
   149     7     9   ar
   150   138   139    1
   151   138   137    1
   152   135   134    2
   153   136   137    1
   154   136   133    1
   155   134   133    1
   156   140   139    2
   157   140   142    1
   158    26    27    1
   159    11     9   ar
   160    11    12    1
   161    27    28    2
   162   133   132    1
   163    28    30    1
   164    28    29    1
