@<TRIPOS>MOLECULE
tmp/3f9nA00.pdb
 135 135 0 0 0
SMALL
GASTEIGER

@<TRIPOS>ATOM
      1  N         22.7850   -0.2170   18.3770 N.3    76  PHE76      -0.1241
      2  CA        23.5120   -1.3510   18.9450 C.3    76  PHE76       0.1605
      3  C         24.8630   -1.5030   18.2300 C.2    76  PHE76       0.2264
      4  O         25.8780   -1.7630   18.8590 O.2    76  PHE76      -0.2867
      5  CB        22.6830   -2.6490   18.8220 C.3    76  PHE76       0.0534
      6  CG        23.3900   -3.8830   19.3030 C.ar   76  PHE76      -0.0203
      7  CD1       24.1290   -4.6660   18.4110 C.ar   76  PHE76      -0.0042
      8  CD2       23.2190   -4.3410   20.6020 C.ar   76  PHE76      -0.0042
      9  CE1       24.7680   -5.8300   18.8370 C.ar   76  PHE76      -0.0003
     10  CE2       23.8700   -5.5100   21.0480 C.ar   76  PHE76      -0.0003
     11  CZ        24.6580   -6.2430   20.1590 C.ar   76  PHE76      -0.0000
     12  N         32.0380   -2.9440   22.1180 N.3    81  PRO81      -0.2102
     13  CA        32.0210   -3.7030   23.3750 C.3    81  PRO81       0.1504
     14  C         33.1420   -3.3390   24.3340 C.2    81  PRO81       0.2575
     15  O         34.2850   -3.1010   23.9370 O.2    81  PRO81      -0.2718
     16  CB        32.1110   -5.1560   22.9050 C.3    81  PRO81       0.0282
     17  CG        31.4410   -5.1390   21.5920 C.3    81  PRO81       0.0208
     18  CD        31.7520   -3.8060   20.9580 C.3    81  PRO81       0.0893
     19  N         32.7710   -3.1800   25.5920 N.am   82  ASP82      -0.1974
     20  CA        33.7080   -2.8020   26.5930 C.3    82  ASP82       0.1708
     21  C         34.1740   -1.3540   26.5460 C.2    82  ASP82       0.2293
     22  O         34.8220   -0.8910   27.4680 O.2    82  ASP82      -0.2864
     23  CB        34.9150   -3.7380   26.5750 C.3    82  ASP82       0.1436
     24  CG        35.4810   -3.9500   27.9520 C.2    82  ASP82       0.3671
     25  OD1       34.6840   -3.9810   28.9110 O.co2  82  ASP82      -0.2456
     26  OD2       36.7220   -3.9650   28.0910 O.co2  82  ASP82      -0.2456
     27  N         19.0060   -2.3150   19.9800 N.3   117  GLU117     -0.1245
     28  CA        18.5670   -3.0100   18.7560 C.3   117  GLU117      0.1567
     29  C         17.3250   -2.3230   18.1900 C.2   117  GLU117      0.2260
     30  O         17.0280   -2.4210   16.9870 O.2   117  GLU117     -0.2867
     31  CB        18.1750   -4.4780   19.0910 C.3   117  GLU117      0.0388
     32  CG        19.3230   -5.3500   19.5580 C.3   117  GLU117      0.1160
     33  CD        19.4490   -5.3790   21.0670 C.2   117  GLU117      0.3649
     34  OE1       19.2510   -4.3260   21.6960 O.co2 117  GLU117     -0.2457
     35  OE2       19.8770   -6.4090   21.6280 O.co2 117  GLU117     -0.2457
     36  N         12.9950   -6.9910   27.8530 N.3   153  THR153     -0.1218
     37  CA        14.2350   -7.7780   27.7200 C.3   153  THR153      0.1862
     38  C         14.9660   -7.6220   29.0340 C.2   153  THR153      0.2287
     39  O         15.2990   -6.4830   29.4390 O.2   153  THR153     -0.2866
     40  CB        15.0520   -7.1960   26.5430 C.3   153  THR153      0.1770
     41  OG1       14.2340   -7.2580   25.3740 O.3   153  THR153     -0.2211
     42  CG2       16.3560   -7.9550   26.2980 C.3   153  THR153      0.0375
     43  N         17.8660   -7.5740   30.7500 N.3   155  PRO155     -0.2102
     44  CA        18.8810   -6.6010   31.1850 C.3   155  PRO155      0.1504
     45  C         18.3950   -5.1360   31.2370 C.2   155  PRO155      0.2575
     46  O         18.9920   -4.3190   31.9230 O.2   155  PRO155     -0.2718
     47  CB        19.9540   -6.7110   30.0900 C.3   155  PRO155      0.0282
     48  CG        19.8170   -8.1370   29.5790 C.3   155  PRO155      0.0208
     49  CD        18.3070   -8.3320   29.5610 C.3   155  PRO155      0.0893
     50  N         17.3820   -4.8170   30.4330 N.am  156  TYR156     -0.1977
     51  CA        16.8470   -3.4670   30.2690 C.3   156  TYR156      0.1639
     52  C         15.5580   -3.2550   31.0770 C.2   156  TYR156      0.2290
     53  O         15.0440   -2.1440   31.1660 O.2   156  TYR156     -0.2864
     54  CB        16.4950   -3.2790   28.7820 C.3   156  TYR156      0.0560
     55  CG        17.7020   -3.4110   27.8910 C.ar  156  TYR156     -0.0198
     56  CD1       18.5090   -2.3120   27.6360 C.ar  156  TYR156     -0.0009
     57  CD2       18.0410   -4.6400   27.3210 C.ar  156  TYR156     -0.0009
     58  CE1       19.6030   -2.4280   26.8430 C.ar  156  TYR156      0.0417
     59  CE2       19.1100   -4.7430   26.4460 C.ar  156  TYR156      0.0417
     60  CZ        19.9090   -3.6530   26.2500 C.ar  156  TYR156      0.1957
     61  OH        21.0300   -3.7530   25.4720 O.3   156  TYR156     -0.2866
     62  N         29.8810    0.4080   26.8950 N.3   187  GLY187     -0.1210
     63  CA        29.9010   -0.7340   25.9940 C.3   187  GLY187      0.1956
     64  C         29.6620   -2.0160   26.7740 C.2   187  GLY187      0.2612
     65  O         30.1250   -3.0910   26.3870 O.2   187  GLY187     -0.2717
     66  N         28.8830   -1.9010   27.8460 N.am  188  GLU188     -0.1965
     67  CA        28.6130   -3.0170   28.7490 C.3   188  GLU188      0.1733
     68  C         27.2570   -2.8270   29.4510 C.2   188  GLU188      0.2616
     69  O         26.9200   -1.7070   29.8430 O.2   188  GLU188     -0.2715
     70  CB        29.6860   -2.9860   29.8390 C.3   188  GLU188      0.0429
     71  CG        29.6830   -4.1940   30.7130 C.3   188  GLU188      0.1163
     72  CD        30.7250   -4.1390   31.8060 C.2   188  GLU188      0.3649
     73  OE1       30.6870   -5.0270   32.6390 O.co2 188  GLU188     -0.2457
     74  OE2       31.5790   -3.2320   31.8450 O.co2 188  GLU188     -0.2457
     75  N         26.5290   -3.9220   29.6640 N.am  189  LEU189     -0.1964
     76  CA        25.2550   -3.8850   30.3910 C.3   189  LEU189      0.1713
     77  C         25.5750   -4.1410   31.8410 C.2   189  LEU189      0.2458
     78  O         26.4680   -4.9220   32.1640 O.2   189  LEU189     -0.2730
     79  CB        24.2540   -4.9190   29.8800 C.3   189  LEU189      0.0310
     80  CG        23.9890   -4.7990   28.3770 C.3   189  LEU189      0.0022
     81  CD1       23.0200   -5.8900   27.9170 C.3   189  LEU189      0.0001
     82  CD2       23.4190   -3.4240   28.0950 C.3   189  LEU189      0.0001
     83  N         24.8920   -3.4340   32.7430 N.am  190  PRO190     -0.2716
     84  CA        25.3130   -3.5960   34.1330 C.3   190  PRO190      0.1536
     85  C         24.9650   -4.9060   34.8440 C.2   190  PRO190      0.2599
     86  O         25.6250   -5.2800   35.8280 O.2   190  PRO190     -0.2715
     87  CB        24.6640   -2.4090   34.8270 C.3   190  PRO190      0.0310
     88  CG        23.4770   -2.0850   34.0280 C.3   190  PRO190      0.0237
     89  CD        23.8510   -2.3920   32.5960 C.3   190  PRO190      0.0939
     90  N         23.8910   -5.5670   34.4250 N.am  191  TRP191     -0.1960
     91  CA        23.4910   -6.8120   35.1040 C.3   191  TRP191      0.1771
     92  C         22.6170   -7.6420   34.1630 C.2   191  TRP191      0.2619
     93  O         22.0370   -7.1170   33.2060 O.2   191  TRP191     -0.2715
     94  CB        22.7490   -6.5000   36.4270 C.3   191  TRP191      0.0590
     95  CG        21.7440   -5.3040   36.3030 C.ar  191  TRP191      0.0006
     96  CD1       20.5490   -5.2830   35.6150 C.ar  191  TRP191      0.0946
     97  CD2       21.9100   -3.9890   36.8460 C.ar  191  TRP191      0.0152
     98  NE1       19.9610   -4.0180   35.7140 N.ar  191  TRP191     -0.2442
     99  CE2       20.7870   -3.2160   36.4490 C.ar  191  TRP191      0.0810
    100  CE3       22.8750   -3.3980   37.6690 C.ar  191  TRP191      0.0012
    101  CZ2       20.6600   -1.8740   36.7750 C.ar  191  TRP191      0.0191
    102  CZ3       22.6990   -2.0780   38.0540 C.ar  191  TRP191      0.0001
    103  CH2       21.6300   -1.3210   37.5710 C.ar  191  TRP191      0.0015
    104  N         22.5770   -8.9460   34.4080 N.am  192  ASP192     -0.1971
    105  CA        21.7630   -9.8890   33.6220 C.3   192  ASP192      0.1709
    106  C         20.2980   -9.5170   33.8280 C.2   192  ASP192      0.2293
    107  O         19.4860   -9.6590   32.9060 O.2   192  ASP192     -0.2864
    108  CB        21.9470  -11.3060   34.2070 C.3   192  ASP192      0.1436
    109  CG        23.2550  -11.9490   33.7910 C.2   192  ASP192      0.3671
    110  OD1       24.1260  -11.2560   33.2230 O.co2 192  ASP192     -0.2456
    111  OD2       23.4070  -13.1560   34.0280 O.co2 192  ASP192     -0.2456
    112  N         25.6170   -8.2230   40.5570 N.3   200  GLU200     -0.1245
    113  CA        25.9170   -6.8940   40.0060 C.3   200  GLU200      0.1567
    114  C         24.8390   -5.8680   40.4000 C.2   200  GLU200      0.2260
    115  O         25.1370   -4.7130   40.7080 O.2   200  GLU200     -0.2867
    116  CB        26.0260   -6.9930   38.4740 C.3   200  GLU200      0.0388
    117  CG        27.3320   -7.6030   37.9950 C.3   200  GLU200      0.1160
    118  CD        27.3240   -9.1260   38.0490 C.2   200  GLU200      0.3649
    119  OE1       26.2720   -9.7510   38.3260 O.co2 200  GLU200     -0.2457
    120  OE2       28.3940   -9.7010   37.8450 O.co2 200  GLU200     -0.2457
    121  N         32.9260   -2.2520   37.3740 N.3   212  ASN212     -0.1226
    122  CA        32.4270   -2.0670   36.0140 C.3   212  ASN212      0.1770
    123  C         30.8960   -2.2910   36.0190 C.2   212  ASN212      0.2439
    124  O         30.3760   -3.0790   36.8210 O.2   212  ASN212     -0.2733
    125  CB        33.0620   -3.1050   35.0880 C.3   212  ASN212      0.1168
    126  CG        34.4820   -2.7380   34.6800 C.2   212  ASN212      0.2627
    127  OD1       34.8140   -1.5610   34.5460 O.2   212  ASN212     -0.2716
    128  ND2       35.3320   -3.7560   34.4970 N.am  212  ASN212     -0.0877
    129  N         30.1680   -1.6510   35.0800 N.am  213  PRO213     -0.2729
    130  CA        30.6290   -0.6930   34.0810 C.3   213  PRO213      0.1401
    131  C         30.7970    0.7210   34.6210 C.2   213  PRO213      0.2269
    132  O         31.3350    1.5760   33.9260 O.2   213  PRO213     -0.2865
    133  CB        29.5000   -0.7270   33.0350 C.3   213  PRO213      0.0296
    134  CG        28.2510   -0.9880   33.8560 C.3   213  PRO213      0.0237
    135  CD        28.7320   -2.0010   34.8960 C.3   213  PRO213      0.0939
@<TRIPOS>BOND
     1    30    29    2
     2    29    28    1
     3     3     4    2
     4     3     2    1
     5     1     2    1
     6     7     9   ar
     7     7     6   ar
     8    28    31    1
     9    28    27    1
    10     5     2    1
    11     5     6    1
    12     9    11   ar
    13    31    32    1
    14     6     8   ar
    15    32    33    1
    16    11    10   ar
    17     8    10   ar
    18    18    17    1
    19    18    12    1
    20    33    35   ar
    21    33    34   ar
    22    17    16    1
    23    12    13    1
    24    16    13    1
    25    13    14    1
    26    15    14    2
    27    14    19   am
    28    41    40    1
    29    61    60    1
    30    19    20    1
    31    63    64    1
    32    63    62    1
    33    60    59   ar
    34    60    58   ar
    35    42    40    1
    36    65    64    2
    37    59    57   ar
    38    40    37    1
    39    21    20    1
    40    21    22    2
    41    23    20    1
    42    23    24    1
    43    64    66   am
    44    58    56   ar
    45    57    55   ar
    46    56    55   ar
    47    37    36    1
    48    37    38    1
    49    66    67    1
    50    55    54    1
    51    81    80    1
    52    24    26   ar
    53    24    25   ar
    54    82    80    1
    55    80    79    1
    56    67    68    1
    57    67    70    1
    58    54    51    1
    59    38    39    2
    60    68    75   am
    61    68    69    2
    62    49    48    1
    63    49    43    1
    64    48    47    1
    65    75    76    1
    66    70    71    1
    67    79    76    1
    68    47    44    1
    69    51    50    1
    70    51    52    1
    71    76    77    1
    72    50    45   am
    73    71    72    1
    74    43    44    1
    75    52    53    2
    76    44    45    1
    77    45    46    2
    78    72    74   ar
    79    72    73   ar
    80    77    78    2
    81    77    83   am
    82    89    83    1
    83    89    88    1
    84    83    84    1
    85   107   106    2
    86   133   134    1
    87   133   130    1
    88    93    92    2
    89   110   109   ar
    90   105   106    1
    91   105   108    1
    92   105   104    1
    93   109   111   ar
    94   109   108    1
    95   134   135    1
    96   132   131    2
    97    88    87    1
    98   130   131    1
    99   130   129    1
   100    84    87    1
   101    84    85    1
   102    92   104   am
   103    92    91    1
   104    90    85   am
   105    90    91    1
   106   128   126   am
   107   127   126    2
   108   126   125    1
   109    85    86    2
   110   135   129    1
   111   129   123   am
   112   125   122    1
   113    91    94    1
   114    96    98   ar
   115    96    95   ar
   116    98    99   ar
   117   122   123    1
   118   122   121    1
   119   123   124    2
   120    95    94    1
   121    95    97   ar
   122    99   101   ar
   123    99    97   ar
   124   101   103   ar
   125    97   100   ar
   126   103   102   ar
   127   100   102   ar
   128   120   118   ar
   129   117   118    1
   130   117   116    1
   131   118   119   ar
   132   116   113    1
   133   113   114    1
   134   113   112    1
   135   114   115    2
