@<TRIPOS>MOLECULE
tmp/3f9tA00.pdb
 106 99 0 0 0
SMALL
GASTEIGER

@<TRIPOS>ATOM
      1  N         46.7480   82.7940   33.8940 N.3    90  GLY90      -0.1210
      2  CA        46.8530   83.2980   32.5510 C.3    90  GLY90       0.1956
      3  C         47.9800   84.3110   32.4360 C.2    90  GLY90       0.2612
      4  O         48.6850   84.6310   33.4130 O.2    90  GLY90      -0.2717
      5  N         48.1240   84.8170   31.2280 N.am   91  GLY91      -0.1942
      6  CA        49.1100   85.8210   30.9010 C.3    91  GLY91       0.2014
      7  C         48.9010   87.1330   31.6180 C.2    91  GLY91       0.2639
      8  O         49.8600   87.8630   31.8600 O.2    91  GLY91      -0.2714
      9  N         47.6600   87.4350   31.9900 N.am   92  THR92      -0.1950
     10  CA        47.3910   88.6750   32.7590 C.3    92  THR92       0.1897
     11  C         48.0310   88.6300   34.1570 C.2    92  THR92       0.2313
     12  O         48.7950   89.5250   34.5470 O.2    92  THR92      -0.2863
     13  CB        45.8660   88.9740   32.8230 C.3    92  THR92       0.1794
     14  OG1       45.3770   89.1950   31.4890 O.3    92  THR92      -0.2208
     15  CG2       45.5520   90.1860   33.7260 C.3    92  THR92       0.0378
     16  N         51.9070   88.7290   33.7770 N.3    95  ASN95      -0.1240
     17  CA        52.3490   90.1060   33.5340 C.3    95  ASN95       0.1653
     18  C         52.2040   91.0030   34.7680 C.2    95  ASN95       0.2266
     19  O         53.0750   91.8340   35.0340 O.2    95  ASN95      -0.2867
     20  CB        51.5880   90.7600   32.3640 C.3    95  ASN95       0.1155
     21  CG        51.9970   90.2040   30.9810 C.2    95  ASN95       0.2627
     22  OD1       53.0520   89.5920   30.8170 O.2    95  ASN95      -0.2716
     23  ND2       51.1650   90.4630   29.9870 N.am   95  ASN95      -0.0877
     24  N         49.9160   94.2240   25.4850 N.3   128  HIS128     -0.1241
     25  CA        48.5800   93.7220   25.7970 C.3   128  HIS128      0.1621
     26  C         47.8930   94.5860   26.8820 C.2   128  HIS128      0.2264
     27  O         48.5600   95.1620   27.7540 O.2   128  HIS128     -0.2867
     28  CB        48.7190   92.2330   26.2090 C.3   128  HIS128      0.0745
     29  CG        47.4220   91.5570   26.5350 C.ar  128  HIS128      0.0817
     30  ND1       46.9830   91.3850   27.8320 N.ar  128  HIS128     -0.2268
     31  CD2       46.4740   91.0040   25.7370 C.ar  128  HIS128      0.1154
     32  CE1       45.8030   90.7890   27.8120 C.ar  128  HIS128      0.1986
     33  NE2       45.4800   90.5270   26.5580 N.ar  128  HIS128     -0.2212
     34  N         58.0250   92.2730   23.7390 N.3   171  ILE171     -0.1245
     35  CA        56.9680   91.3210   23.3810 C.3   171  ILE171      0.1561
     36  C         57.4510   90.3100   22.3450 C.2   171  ILE171      0.2260
     37  O         57.9840   90.6770   21.3020 O.2   171  ILE171     -0.2867
     38  CB        55.7360   92.0900   22.8330 C.3   171  ILE171      0.0252
     39  CG1       55.3600   93.2450   23.7680 C.3   171  ILE171      0.0019
     40  CG2       54.5390   91.1990   22.6860 C.3   171  ILE171      0.0019
     41  CD1       54.2780   94.1020   23.2110 C.3   171  ILE171      0.0001
     42  N         55.7810   87.9110   20.2260 N.3   173  GLY173     -0.1225
     43  CA        54.5110   87.4530   19.6400 C.3   173  GLY173      0.1811
     44  C         53.3910   88.3920   20.0480 C.2   173  GLY173      0.2280
     45  O         52.5740   88.0610   20.9360 O.2   173  GLY173     -0.2866
     46  N         50.0280   90.6020   20.4870 N.3   175  THR175     -0.1218
     47  CA        48.6110   90.2470   20.4960 C.3   175  THR175      0.1862
     48  C         47.9360   90.4760   19.1570 C.2   175  THR175      0.2287
     49  O         47.2010   89.6340   18.6810 O.2   175  THR175     -0.2866
     50  CB        47.8260   91.0520   21.5900 C.3   175  THR175      0.1770
     51  OG1       48.4430   90.8710   22.8640 O.3   175  THR175     -0.2211
     52  CG2       46.3870   90.5640   21.7100 C.3   175  THR175      0.0375
     53  N         57.0030   89.4970   27.3310 N.3   200  ASP200     -0.1239
     54  CA        55.6780   88.9070   27.2570 C.3   200  ASP200      0.1674
     55  C         55.6100   87.9540   26.0650 C.2   200  ASP200      0.2266
     56  O         55.3890   88.3640   24.9230 O.2   200  ASP200     -0.2867
     57  CB        54.5910   89.9770   27.1760 C.3   200  ASP200      0.1410
     58  CG        53.2100   89.3950   27.1940 C.2   200  ASP200      0.3668
     59  OD1       53.0830   88.1370   27.1190 O.co2 200  ASP200     -0.2456
     60  OD2       52.2440   90.1960   27.2990 O.co2 200  ASP200     -0.2456
     61  N         53.4380   85.3400   26.1290 N.3   202  ALA202     -0.1231
     62  CA        52.1780   84.6190   26.3990 C.3   202  ALA202      0.1694
     63  C         51.7780   83.6920   25.2470 C.2   202  ALA202      0.2592
     64  O         51.4840   82.5130   25.4470 O.2   202  ALA202     -0.2718
     65  CB        50.9980   85.6390   26.7570 C.3   202  ALA202      0.0304
     66  N         51.8150   84.2250   24.0320 N.am  203  PHE203     -0.1976
     67  CA        51.4740   83.4720   22.8280 C.3   203  PHE203      0.1639
     68  C         52.7010   82.8470   22.1240 C.2   203  PHE203      0.2290
     69  O         52.7670   81.6340   21.9120 O.2   203  PHE203     -0.2864
     70  CB        50.6960   84.3920   21.8660 C.3   203  PHE203      0.0560
     71  CG        50.2420   83.7030   20.6080 C.ar  203  PHE203     -0.0200
     72  CD1       49.1320   82.8590   20.6210 C.ar  203  PHE203     -0.0042
     73  CD2       50.9480   83.8810   19.4080 C.ar  203  PHE203     -0.0042
     74  CE1       48.7190   82.2040   19.4570 C.ar  203  PHE203     -0.0003
     75  CE2       50.5420   83.2470   18.2290 C.ar  203  PHE203     -0.0003
     76  CZ        49.4310   82.3980   18.2550 C.ar  203  PHE203     -0.0000
     77  N         47.6500   77.6440   28.0830 N.3   238  HIS238     -0.1226
     78  CA        46.2700   77.6020   27.5800 C.3   238  HIS238      0.1752
     79  C         46.0540   78.3510   26.2620 C.2   238  HIS238      0.2595
     80  O         44.9290   78.4090   25.7540 O.2   238  HIS238     -0.2718
     81  CB        45.1960   77.9560   28.6280 C.3   238  HIS238      0.0759
     82  CG        45.1880   79.3750   29.1180 C.ar  238  HIS238      0.0818
     83  ND1       44.8660   79.6890   30.4270 N.ar  238  HIS238     -0.2268
     84  CD2       45.4280   80.5600   28.5010 C.ar  238  HIS238      0.1154
     85  CE1       44.9070   81.0030   30.5920 C.ar  238  HIS238      0.1986
     86  NE2       45.2360   81.5560   29.4370 N.ar  238  HIS238     -0.2212
     87  N         47.1150   78.9430   25.7240 N.am  239  LYS239     -0.1980
     88  CA        47.0800   79.4210   24.3370 C.3   239  LYS239      0.1596
     89  C         47.6390   78.2880   23.4390 C.2   239  LYS239      0.2287
     90  O         46.9470   77.3070   23.2060 O.2   239  LYS239     -0.2864
     91  CB        47.8190   80.7550   24.1900 C.3   239  LYS239      0.0298
     92  CG        47.1240   81.9170   24.9480 C.3   239  LYS239      0.0038
     93  CD        47.9250   83.2070   24.7680 C.3   239  LYS239      0.0206
     94  CE        47.2380   84.4020   25.3810 C.3   239  LYS239      0.1093
     95  NZ        47.0980   84.2340   26.8510 N.3   239  LYS239     -0.1314
     96  N         41.5310   90.8030   12.3490 N.3   363  ARG363     -0.1245
     97  CA        42.6260   90.0260   12.9290 C.3   363  ARG363      0.1563
     98  C         42.2060   88.5560   13.0640 C.2   363  ARG363      0.2260
     99  O         41.1600   88.2590   13.6450 O.2   363  ARG363     -0.2867
    100  CB        43.0100   90.6230   14.2830 C.3   363  ARG363      0.0307
    101  CG        43.9000   89.7770   15.1840 C.3   363  ARG363      0.0489
    102  CD        44.0890   90.4740   16.5320 C.3   363  ARG363      0.2205
    103  NE        44.7570   89.6320   17.5140 N.pl3 363  ARG363     -0.0865
    104  CZ        44.1320   88.8360   18.3960 C.cat 363  ARG363      0.5346
    105  NH1       42.8100   88.7400   18.4160 N.pl3 363  ARG363      0.1354
    106  NH2       44.8350   88.1110   19.2700 N.pl3 363  ARG363      0.1354
@<TRIPOS>BOND
     1    96    97    1
     2    97    98    1
     3    97   100    1
     4    98    99    2
     5   100   101    1
     6   101   102    1
     7   102   103    1
     8   103   104    2
     9    75    76   ar
    10    75    73   ar
    11    76    74   ar
    12   104   105    1
    13   104   106    1
    14    49    48    2
    15    48    47    1
    16    73    71   ar
    17    74    72   ar
    18    43    44    1
    19    43    42    1
    20    44    45    2
    21    46    47    1
    22    47    50    1
    23    71    72   ar
    24    71    70    1
    25    37    36    2
    26    50    52    1
    27    50    51    1
    28    70    67    1
    29    69    68    2
    30    68    67    1
    31    36    35    1
    32    40    38    1
    33    67    66    1
    34    38    35    1
    35    38    39    1
    36    90    89    2
    37    41    39    1
    38    35    34    1
    39    89    88    1
    40    66    63   am
    41    91    88    1
    42    91    92    1
    43    88    87    1
    44    93    92    1
    45    93    94    1
    46    56    55    2
    47    63    64    2
    48    63    62    1
    49    94    95    1
    50    24    25    1
    51    87    79   am
    52    31    29   ar
    53    31    33   ar
    54    80    79    2
    55    25    28    1
    56    25    26    1
    57    55    54    1
    58    61    62    1
    59    28    29    1
    60    79    78    1
    61    62    65    1
    62    29    30   ar
    63    33    32   ar
    64    26    27    2
    65    59    58   ar
    66    57    58    1
    67    57    54    1
    68    58    60   ar
    69    54    53    1
    70    78    77    1
    71    78    81    1
    72    32    30   ar
    73    84    82   ar
    74    84    86   ar
    75    81    82    1
    76    82    83   ar
    77    86    85   ar
    78    23    21   am
    79    83    85   ar
    80    22    21    2
    81     6     5    1
    82     6     7    1
    83    21    20    1
    84     5     3   am
    85    14    13    1
    86     7     8    2
    87     7     9   am
    88     9    10    1
    89    20    17    1
    90     3     2    1
    91     3     4    2
    92     2     1    1
    93    10    13    1
    94    10    11    1
    95    13    15    1
    96    17    16    1
    97    17    18    1
    98    11    12    2
    99    18    19    2
