@<TRIPOS>MOLECULE
tmp/3f9tA01.pdb
 109 108 0 0 0
SMALL
GASTEIGER

@<TRIPOS>ATOM
      1  N         57.0410  100.8020   27.8010 N.3   123  VAL123     -0.1231
      2  CA        56.0410   99.8710   27.3360 C.3   123  VAL123      0.1678
      3  C         55.7200  100.1730   25.8840 C.2   123  VAL123      0.2434
      4  O         55.3270  101.2920   25.5460 O.2   123  VAL123     -0.2733
      5  CB        54.7720   99.9660   28.2380 C.3   123  VAL123      0.0265
      6  CG1       53.6880   98.9810   27.8320 C.3   123  VAL123      0.0020
      7  CG2       55.1510   99.7510   29.7120 C.3   123  VAL123      0.0020
      8  N         55.8870   99.1720   25.0100 N.am  124  PRO124     -0.2718
      9  CA        55.5270   99.4470   23.6170 C.3   124  PRO124      0.1535
     10  C         54.0120   99.6240   23.4870 C.2   124  PRO124      0.2598
     11  O         53.2490   99.0870   24.3250 O.2   124  PRO124     -0.2715
     12  CB        56.0460   98.2070   22.8750 C.3   124  PRO124      0.0310
     13  CG        56.0710   97.1260   23.9160 C.3   124  PRO124      0.0237
     14  CD        56.4000   97.8040   25.2040 C.3   124  PRO124      0.0939
     15  N         53.5580  100.3760   22.4900 N.am  125  ILE125     -0.1978
     16  CA        52.1130  100.5980   22.3210 C.3   125  ILE125      0.1596
     17  C         51.3760   99.3380   21.8400 C.2   125  ILE125      0.2287
     18  O         50.1650   99.3320   21.7350 O.2   125  ILE125     -0.2864
     19  CB        51.7820  101.8210   21.3810 C.3   125  ILE125      0.0276
     20  CG1       52.2810  101.5730   19.9490 C.3   125  ILE125      0.0022
     21  CG2       52.3340  103.1480   21.9720 C.3   125  ILE125      0.0022
     22  CD1       52.1300  102.7730   19.0490 C.3   125  ILE125      0.0001
     23  N         51.7210   96.5470   23.5170 N.3   127  ALA127     -0.1231
     24  CA        51.5920   95.7980   24.7510 C.3   127  ALA127      0.1694
     25  C         50.1260   95.4280   24.9770 C.2   127  ALA127      0.2592
     26  O         49.2150   96.1880   24.6620 O.2   127  ALA127     -0.2718
     27  CB        52.1440   96.6160   25.9370 C.3   127  ALA127      0.0304
     28  N         49.9160   94.2240   25.4850 N.am  128  HIS128     -0.1962
     29  CA        48.5800   93.7220   25.7970 C.3   128  HIS128      0.1787
     30  C         47.8930   94.5860   26.8820 C.2   128  HIS128      0.2620
     31  O         48.5600   95.1620   27.7540 O.2   128  HIS128     -0.2715
     32  CB        48.7190   92.2330   26.2090 C.3   128  HIS128      0.0785
     33  CG        47.4220   91.5570   26.5350 C.ar  128  HIS128      0.0821
     34  ND1       46.9830   91.3850   27.8320 N.ar  128  HIS128     -0.2267
     35  CD2       46.4740   91.0040   25.7370 C.ar  128  HIS128      0.1154
     36  CE1       45.8030   90.7890   27.8120 C.ar  128  HIS128      0.1986
     37  NE2       45.4800   90.5270   26.5580 N.ar  128  HIS128     -0.2212
     38  N         46.5610   94.6510   26.8490 N.am  129  PHE129     -0.1974
     39  CA        45.8060   95.4480   27.8100 C.3   129  PHE129      0.1639
     40  C         45.9800   95.0740   29.3120 C.2   129  PHE129      0.2290
     41  O         45.6220   95.8630   30.1900 O.2   129  PHE129     -0.2864
     42  CB        44.3180   95.6080   27.3960 C.3   129  PHE129      0.0560
     43  CG        43.4540   94.3990   27.6530 C.ar  129  PHE129     -0.0200
     44  CD1       43.4830   93.3100   26.7900 C.ar  129  PHE129     -0.0042
     45  CD2       42.5310   94.3940   28.7020 C.ar  129  PHE129     -0.0042
     46  CE1       42.6610   92.1970   26.9950 C.ar  129  PHE129     -0.0003
     47  CE2       41.7050   93.2830   28.9150 C.ar  129  PHE129     -0.0003
     48  CZ        41.7790   92.1710   28.0620 C.ar  129  PHE129     -0.0000
     49  N         48.6710   95.1590   30.6500 N.3   131  PHE131     -0.1227
     50  CA        49.6260   96.1810   31.0540 C.3   131  PHE131      0.1736
     51  C         48.9330   97.4500   31.5240 C.2   131  PHE131      0.2595
     52  O         49.4030   98.0940   32.4350 O.2   131  PHE131     -0.2718
     53  CB        50.7050   96.4160   29.9810 C.3   131  PHE131      0.0547
     54  CG        51.7100   95.3150   29.9300 C.ar  131  PHE131     -0.0202
     55  CD1       52.6990   95.2300   30.9060 C.ar  131  PHE131     -0.0042
     56  CD2       51.6380   94.3230   28.9670 C.ar  131  PHE131     -0.0042
     57  CE1       53.5880   94.1930   30.9100 C.ar  131  PHE131     -0.0003
     58  CE2       52.5540   93.2840   28.9690 C.ar  131  PHE131     -0.0003
     59  CZ        53.5240   93.2230   29.9370 C.ar  131  PHE131     -0.0000
     60  N         47.7730   97.7440   30.9580 N.am  132  GLU132     -0.1979
     61  CA        46.9690   98.8970   31.3540 C.3   132  GLU132      0.1602
     62  C         46.3000   98.6700   32.7180 C.2   132  GLU132      0.2287
     63  O         46.2060   99.6070   33.5500 O.2   132  GLU132     -0.2864
     64  CB        45.9350   99.2260   30.2660 C.3   132  GLU132      0.0415
     65  CG        44.8460  100.1560   30.6960 C.3   132  GLU132      0.1163
     66  CD        45.3560  101.5120   31.2300 C.2   132  GLU132      0.3649
     67  OE1       46.5200  101.8970   30.9920 O.co2 132  GLU132     -0.2457
     68  OE2       44.5740  102.1880   31.9340 O.co2 132  GLU132     -0.2457
     69  N         54.2070  104.8990   32.7620 N.3   140  TYR140     -0.1241
     70  CA        54.6140  104.2870   31.5150 C.3   140  TYR140      0.1605
     71  C         55.2070  105.2730   30.5380 C.2   140  TYR140      0.2264
     72  O         54.6380  106.3290   30.2880 O.2   140  TYR140     -0.2867
     73  CB        53.4090  103.5900   30.8610 C.3   140  TYR140      0.0534
     74  CG        53.0450  102.2260   31.4230 C.ar  140  TYR140     -0.0201
     75  CD1       53.6660  101.7140   32.5560 C.ar  140  TYR140     -0.0009
     76  CD2       51.9970  101.4880   30.8660 C.ar  140  TYR140     -0.0009
     77  CE1       53.3210  100.4750   33.0640 C.ar  140  TYR140      0.0417
     78  CE2       51.6320  100.2610   31.3810 C.ar  140  TYR140      0.0417
     79  CZ        52.2950   99.7570   32.4760 C.ar  140  TYR140      0.1957
     80  OH        51.9330   98.5530   32.9890 O.3   140  TYR140     -0.2866
     81  N         55.6530  105.3600   26.9420 N.3   142  TYR142     -0.1241
     82  CA        55.1470  104.5860   25.8130 C.3   142  TYR142      0.1605
     83  C         56.1130  104.6040   24.6490 C.2   142  TYR142      0.2264
     84  O         56.3340  105.6400   24.0490 O.2   142  TYR142     -0.2867
     85  CB        53.7660  105.0740   25.3900 C.3   142  TYR142      0.0534
     86  CG        52.7460  104.8060   26.4500 C.ar  142  TYR142     -0.0201
     87  CD1       52.1360  103.5450   26.5490 C.ar  142  TYR142     -0.0009
     88  CD2       52.4220  105.7760   27.3990 C.ar  142  TYR142     -0.0009
     89  CE1       51.2100  103.2790   27.5280 C.ar  142  TYR142      0.0417
     90  CE2       51.4850  105.5130   28.3870 C.ar  142  TYR142      0.0417
     91  CZ        50.8880  104.2630   28.4480 C.ar  142  TYR142      0.1957
     92  OH        49.9620  104.0080   29.4410 O.3   142  TYR142     -0.2866
     93  N         48.2080   91.6000   18.5240 N.3   176  GLU176     -0.1245
     94  CA        47.5180   91.9480   17.2920 C.3   176  GLU176      0.1567
     95  C         48.0790   91.3580   16.0170 C.2   176  GLU176      0.2260
     96  O         47.3140   91.0270   15.1180 O.2   176  GLU176     -0.2867
     97  CB        47.5190   93.4750   17.1330 C.3   176  GLU176      0.0388
     98  CG        46.8260   94.1840   18.2990 C.3   176  GLU176      0.1160
     99  CD        47.1400   95.6540   18.3350 C.2   176  GLU176      0.3649
    100  OE1       46.6760   96.3820   17.4320 O.co2 176  GLU176     -0.2457
    101  OE2       47.8580   96.0740   19.2620 O.co2 176  GLU176     -0.2457
    102  N         44.0570   97.1360   17.2360 N.3   357  ASN357     -0.1240
    103  CA        43.9770   98.3560   18.0410 C.3   357  ASN357      0.1653
    104  C         44.7850   99.4950   17.3930 C.2   357  ASN357      0.2266
    105  O         44.3050  100.6390   17.2760 O.2   357  ASN357     -0.2867
    106  CB        44.5200   98.0570   19.4550 C.3   357  ASN357      0.1155
    107  CG        44.3950   99.2390   20.4090 C.2   357  ASN357      0.2627
    108  OD1       45.3970   99.7430   20.9340 O.2   357  ASN357     -0.2716
    109  ND2       43.1710   99.6980   20.6220 N.am  357  ASN357     -0.0877
@<TRIPOS>BOND
     1    96    95    2
     2    95    94    1
     3    97    94    1
     4    97    98    1
     5   102   103    1
     6   105   104    2
     7    94    93    1
     8   104   103    1
     9   100    99   ar
    10   103   106    1
    11    98    99    1
    12    99   101   ar
    13    22    20    1
    14   106   107    1
    15    20    19    1
    16   107   109   am
    17   107   108    2
    18    19    21    1
    19    19    16    1
    20    18    17    2
    21    17    16    1
    22    16    15    1
    23    15    10   am
    24    12     9    1
    25    12    13    1
    26    10     9    1
    27    10    11    2
    28    23    24    1
    29     9     8    1
    30    13    14    1
    31    84    83    2
    32    83    82    1
    33    26    25    2
    34    24    25    1
    35    24    27    1
    36    25    28   am
    37     8    14    1
    38     8     3   am
    39    85    82    1
    40    85    86    1
    41    28    29    1
    42     4     3    2
    43    35    33   ar
    44    35    37   ar
    45    29    32    1
    46    29    30    1
    47    82    81    1
    48     3     2    1
    49    32    33    1
    50    86    87   ar
    51    86    88   ar
    52    33    34   ar
    53    87    89   ar
    54    37    36   ar
    55    44    46   ar
    56    44    43   ar
    57    38    30   am
    58    38    39    1
    59    30    31    2
    60    46    48   ar
    61     2     1    1
    62     2     5    1
    63    42    43    1
    64    42    39    1
    65    88    90   ar
    66    89    91   ar
    67    43    45   ar
    68    39    40    1
    69    36    34   ar
    70     6     5    1
    71    48    47   ar
    72     5     7    1
    73    90    91   ar
    74    91    92    1
    75    45    47   ar
    76    56    58   ar
    77    56    54   ar
    78    58    59   ar
    79    40    41    2
    80    54    53    1
    81    54    55   ar
    82    59    57   ar
    83    53    50    1
    84    64    65    1
    85    64    61    1
    86    72    71    2
    87    71    70    1
    88    49    50    1
    89    65    66    1
    90    73    74    1
    91    73    70    1
    92    76    78   ar
    93    76    74   ar
    94    55    57   ar
    95    60    61    1
    96    60    51   am
    97    67    66   ar
    98    50    51    1
    99    66    68   ar
   100    61    62    1
   101    78    79   ar
   102    74    75   ar
   103    70    69    1
   104    51    52    2
   105    79    80    1
   106    79    77   ar
   107    75    77   ar
   108    62    63    2
