@<TRIPOS>MOLECULE
tmp/3f9wB01.pdb
 143 143 0 0 0
SMALL
GASTEIGER

@<TRIPOS>ATOM
      1  N          8.3220    5.5370    5.2950 N.3    33  GLY33      -0.1210
      2  CA         8.7480    4.1900    5.6680 C.3    33  GLY33       0.1956
      3  C          7.6330    3.2180    6.0030 C.2    33  GLY33       0.2612
      4  O          7.9090    2.0250    6.1840 O.2    33  GLY33      -0.2717
      5  N          6.3870    3.6980    6.0830 N.am   34  LYS34      -0.1965
      6  CA         5.3030    2.8750    6.6100 C.3    34  LYS34       0.1728
      7  C          4.1570    2.5710    5.6400 C.2    34  LYS34       0.2617
      8  O          3.2940    1.7640    5.9560 O.2    34  LYS34      -0.2715
      9  CB         4.7210    3.5290    7.8680 C.3    34  LYS34       0.0311
     10  CG         5.7560    3.8130    8.9550 C.3    34  LYS34       0.0038
     11  CD         5.0730    4.3010   10.2290 C.3    34  LYS34       0.0206
     12  CE         6.0580    5.0120   11.1520 C.3    34  LYS34       0.1093
     13  NZ         5.3570    5.6900   12.2710 N.3    34  LYS34      -0.1314
     14  N          4.1570    3.2000    4.4690 N.am   35  GLY35      -0.1940
     15  CA         2.9960    3.1370    3.5570 C.3    35  GLY35       0.2014
     16  C          1.9980    4.2010    3.9500 C.2    35  GLY35       0.2638
     17  O          2.3930    5.3430    4.2120 O.2    35  GLY35      -0.2714
     18  N          0.7120    3.8460    3.9620 N.am   36  ARG36      -0.1977
     19  CA        -0.3150    4.7570    4.4630 C.3    36  ARG36       0.1597
     20  C         -0.3340    4.6870    5.9880 C.2    36  ARG36       0.2287
     21  O          0.0820    3.6970    6.5670 O.2    36  ARG36      -0.2864
     22  CB        -1.7010    4.3920    3.9240 C.3    36  ARG36       0.0334
     23  CG        -1.7720    4.4360    2.3900 C.3    36  ARG36       0.0492
     24  CD        -3.0320    3.7370    1.8950 C.3    36  ARG36       0.2205
     25  NE        -2.9470    2.2990    2.1440 N.pl3  36  ARG36      -0.0865
     26  CZ        -3.9290    1.4370    1.8850 C.cat  36  ARG36       0.5346
     27  NH1       -5.0870    1.8730    1.3850 N.pl3  36  ARG36       0.1354
     28  NH2       -3.7500    0.1390    2.1140 N.pl3  36  ARG36       0.1354
     29  N        -11.2760   -1.4170   15.1430 N.3    53  TYR53      -0.1241
     30  CA       -10.5350   -2.2230   14.1750 C.3    53  TYR53       0.1605
     31  C        -11.5720   -3.0740   13.4600 C.2    53  TYR53       0.2264
     32  O        -11.9790   -4.1080   13.9650 O.2    53  TYR53      -0.2867
     33  CB        -9.4250   -3.0680   14.8200 C.3    53  TYR53       0.0534
     34  CG        -8.4970   -3.6100   13.7540 C.ar   53  TYR53      -0.0201
     35  CD1       -7.3150   -2.9470   13.4320 C.ar   53  TYR53      -0.0009
     36  CD2       -8.8350   -4.7450   13.0200 C.ar   53  TYR53      -0.0009
     37  CE1       -6.4660   -3.4230   12.4210 C.ar   53  TYR53       0.0417
     38  CE2       -7.9990   -5.2400   12.0120 C.ar   53  TYR53       0.0417
     39  CZ        -6.8200   -4.5680   11.7130 C.ar   53  TYR53       0.1957
     40  OH        -5.9840   -5.0390   10.7170 O.3    53  TYR53      -0.2866
     41  N         -0.4160   -8.3280    1.9790 N.3    77  GLY77      -0.1210
     42  CA        -0.3280   -7.4270    3.1380 C.3    77  GLY77       0.1956
     43  C         -0.9930   -8.0430    4.3660 C.2    77  GLY77       0.2612
     44  O         -1.7850   -8.9860    4.2530 O.2    77  GLY77      -0.2717
     45  N         -0.6860   -7.4850    5.5330 N.am   78  CYS78      -0.1956
     46  CA        -1.0550   -8.0900    6.8120 C.3    78  CYS78       0.1843
     47  C         -2.0600   -7.2300    7.5750 C.2    78  CYS78       0.2625
     48  O         -1.6890   -6.2340    8.2140 O.2    78  CYS78      -0.2714
     49  CB         0.1970   -8.3690    7.6610 C.3    78  CYS78       0.0997
     50  SG         1.3290   -9.5500    6.8570 S.3    78  CYS78      -0.0797
     51  N         -3.3240   -7.6390    7.5110 N.am   79  TYR79      -0.1974
     52  CA        -4.4420   -6.8480    8.0650 C.3    79  TYR79       0.1639
     53  C         -5.2830   -7.6760    9.0300 C.2    79  TYR79       0.2290
     54  O         -6.4050   -7.2800    9.3640 O.2    79  TYR79      -0.2864
     55  CB        -5.3460   -6.2990    6.9350 C.3    79  TYR79       0.0560
     56  CG        -4.6230   -5.3860    5.9830 C.ar   79  TYR79      -0.0198
     57  CD1       -4.4340   -4.0310    6.2800 C.ar   79  TYR79      -0.0009
     58  CD2       -4.0640   -5.8890    4.7960 C.ar   79  TYR79      -0.0009
     59  CE1       -3.7420   -3.2020    5.4040 C.ar   79  TYR79       0.0417
     60  CE2       -3.3600   -5.0580    3.9230 C.ar   79  TYR79       0.0417
     61  CZ        -3.2060   -3.7220    4.2340 C.ar   79  TYR79       0.1957
     62  OH        -2.5020   -2.9080    3.3750 O.3    79  TYR79      -0.2866
     63  N         -7.8220   -0.3670   10.1950 N.3   103  ARG103     -0.1231
     64  CA        -6.9240   -1.2540    9.4500 C.3   103  ARG103      0.1694
     65  C         -5.6590   -0.5760    8.9030 C.2   103  ARG103      0.2592
     66  O         -4.6980   -1.2790    8.5400 O.2   103  ARG103     -0.2718
     67  CB        -7.6910   -1.9410    8.3130 C.3   103  ARG103      0.0321
     68  CG        -8.2740   -0.9730    7.2750 C.3   103  ARG103      0.0489
     69  CD        -9.1760   -1.6960    6.2870 C.3   103  ARG103      0.2205
     70  NE        -8.4310   -2.6800    5.4930 N.pl3 103  ARG103     -0.0865
     71  CZ        -7.6640   -2.3900    4.4530 C.cat 103  ARG103      0.5346
     72  NH1       -7.5080   -1.1280    4.0670 N.pl3 103  ARG103      0.1354
     73  NH2       -7.0430   -3.3750    3.8030 N.pl3 103  ARG103      0.1354
     74  N         -5.6700    0.7620    8.8000 N.am  104  LEU104     -0.1966
     75  CA        -4.5390    1.5130    8.2370 C.3   104  LEU104      0.1728
     76  C         -3.6020    2.0620    9.2940 C.2   104  LEU104      0.2616
     77  O         -2.5860    2.6820    8.9630 O.2   104  LEU104     -0.2715
     78  CB        -5.0320    2.6830    7.3550 C.3   104  LEU104      0.0311
     79  CG        -5.8770    2.2870    6.1450 C.3   104  LEU104      0.0022
     80  CD1       -6.2740    3.5260    5.3980 C.3   104  LEU104      0.0001
     81  CD2       -5.0950    1.3010    5.2600 C.3   104  LEU104      0.0001
     82  N         -3.9320    1.8350   10.5640 N.am  105  ILE105     -0.1963
     83  CA        -3.0940    2.3750   11.6440 C.3   105  ILE105      0.1727
     84  C         -1.8150    1.5620   11.8040 C.2   105  ILE105      0.2616
     85  O         -1.8370    0.3240   11.8640 O.2   105  ILE105     -0.2715
     86  CB        -3.9040    2.4940   12.9530 C.3   105  ILE105      0.0290
     87  CG1       -4.9580    3.5840   12.7500 C.3   105  ILE105      0.0022
     88  CG2       -2.9870    2.8440   14.1290 C.3   105  ILE105      0.0023
     89  CD1       -5.9370    3.7700   13.8730 C.3   105  ILE105      0.0001
     90  N         -0.6970    2.2680   11.8510 N.am  106  ASN106     -0.1958
     91  CA         0.6140    1.6130   11.9270 C.3   106  ASN106      0.1819
     92  C          1.0570    1.2180   13.3330 C.2   106  ASN106      0.2621
     93  O          0.3550    1.5040   14.3270 O.2   106  ASN106     -0.2715
     94  CB         1.6490    2.4530   11.1970 C.3   106  ASN106      0.1195
     95  CG         1.3690    2.4940    9.7150 C.2   106  ASN106      0.2630
     96  OD1        1.0750    1.4480    9.1110 O.2   106  ASN106     -0.2716
     97  ND2        1.4170    3.6930    9.1200 N.am  106  ASN106     -0.0877
     98  N          2.2060    0.5370   13.3910 N.am  107  HIS107     -0.1973
     99  CA         2.7050   -0.0730   14.6190 C.3   107  HIS107      0.1656
    100  C          3.7170    0.7750   15.3710 C.2   107  HIS107      0.2291
    101  O          4.5960    1.3910   14.7690 O.2   107  HIS107     -0.2864
    102  CB         3.4010   -1.4000   14.2740 C.3   107  HIS107      0.0771
    103  CG         4.1620   -1.9830   15.4190 C.ar  107  HIS107      0.0820
    104  ND1        3.5630   -2.6790   16.4500 N.ar  107  HIS107     -0.2267
    105  CD2        5.4880   -1.9850   15.6830 C.ar  107  HIS107      0.1154
    106  CE1        4.4970   -3.0870   17.3010 C.ar  107  HIS107      0.1986
    107  NE2        5.6710   -2.6740   16.8540 N.ar  107  HIS107     -0.2212
    108  N          1.2990   -3.7970   17.5910 N.3   144  TYR144     -0.1241
    109  CA         0.7810   -4.9870   16.8810 C.3   144  TYR144      0.1605
    110  C          0.9020   -6.2710   17.6980 C.2   144  TYR144      0.2264
    111  O          0.1900   -7.2260   17.4400 O.2   144  TYR144     -0.2867
    112  CB         1.4850   -5.1680   15.5310 C.3   144  TYR144      0.0534
    113  CG         1.0520   -4.2160   14.4220 C.ar  144  TYR144     -0.0201
    114  CD1        0.1950   -3.1230   14.6710 C.ar  144  TYR144     -0.0009
    115  CD2        1.5280   -4.3900   13.1280 C.ar  144  TYR144     -0.0009
    116  CE1       -0.1780   -2.2490   13.6400 C.ar  144  TYR144      0.0417
    117  CE2        1.1460   -3.5300   12.0850 C.ar  144  TYR144      0.0417
    118  CZ         0.2990   -2.4730   12.3510 C.ar  144  TYR144      0.1957
    119  OH        -0.0680   -1.6470   11.3280 O.3   144  TYR144     -0.2866
    120  N         10.0940   -8.1970    9.1390 N.3   155  HIS155     -0.1241
    121  CA         9.4770   -6.8920    9.3730 C.3   155  HIS155      0.1621
    122  C         10.1810   -6.2390   10.5580 C.2   155  HIS155      0.2264
    123  O          9.6420   -6.2050   11.6590 O.2   155  HIS155     -0.2867
    124  CB         7.9750   -7.0580    9.6760 C.3   155  HIS155      0.0745
    125  CG         7.2390   -7.8300    8.6260 C.ar  155  HIS155      0.0817
    126  ND1        6.7200   -7.2360    7.4940 N.ar  155  HIS155     -0.2268
    127  CD2        6.9620   -9.1520    8.5190 C.ar  155  HIS155      0.1154
    128  CE1        6.1450   -8.1560    6.7410 C.ar  155  HIS155      0.1986
    129  NE2        6.2800   -9.3270    7.3380 N.ar  155  HIS155     -0.2212
    130  N         10.6780   -3.3620   11.6840 N.3   157  TRP157     -0.1241
    131  CA        10.0480   -2.2450   12.3880 C.3   157  TRP157      0.1605
    132  C          9.2310   -2.7220   13.6080 C.2   157  TRP157      0.2264
    133  O          8.8550   -1.9280   14.4660 O.2   157  TRP157     -0.2867
    134  CB         9.1840   -1.4210   11.4140 C.3   157  TRP157      0.0550
    135  CG         8.3630   -2.2900   10.5230 C.ar  157  TRP157      0.0003
    136  CD1        8.6640   -2.6990    9.2440 C.ar  157  TRP157      0.0946
    137  CD2        7.1050   -2.8910   10.8490 C.ar  157  TRP157      0.0152
    138  NE1        7.6700   -3.5160    8.7620 N.ar  157  TRP157     -0.2442
    139  CE2        6.6990   -3.6470    9.7230 C.ar  157  TRP157      0.0810
    140  CE3        6.2770   -2.8630   11.9890 C.ar  157  TRP157      0.0012
    141  CZ2        5.5010   -4.3720    9.6990 C.ar  157  TRP157      0.0191
    142  CZ3        5.0900   -3.5780   11.9640 C.ar  157  TRP157      0.0001
    143  CH2        4.7160   -4.3300   10.8240 C.ar  157  TRP157      0.0015
@<TRIPOS>BOND
     1    27    26    1
     2    26    28    1
     3    26    25    2
     4    24    25    1
     5    24    23    1
     6    41    42    1
     7    23    22    1
     8    42    43    1
     9    62    61    1
    10    15    16    1
    11    15    14    1
    12    73    71    1
    13    60    61   ar
    14    60    58   ar
    15    22    19    1
    16    16    18   am
    17    16    17    2
    18    18    19    1
    19    72    71    1
    20    61    59   ar
    21    44    43    2
    22    43    45   am
    23    71    70    2
    24    19    20    1
    25    14     7   am
    26    58    56   ar
    27    81    79    1
    28     1     2    1
    29    80    79    1
    30    59    57   ar
    31    70    69    1
    32    45    46    1
    33     7     8    2
    34     7     6    1
    35     2     3    1
    36    56    57   ar
    37    56    55    1
    38    20    21    2
    39     3     5   am
    40     3     4    2
    41     5     6    1
    42    79    78    1
    43    69    68    1
    44     6     9    1
    45   128   129   ar
    46   128   126   ar
    47    46    47    1
    48    46    49    1
    49    50    49    1
    50    55    52    1
    51    68    67    1
    52   129   127   ar
    53    78    75    1
    54   126   125   ar
    55    51    47   am
    56    51    52    1
    57    47    48    2
    58     9    10    1
    59    52    53    1
    60    75    74    1
    61    75    76    1
    62    67    64    1
    63   127   125   ar
    64    66    65    2
    65   125   124    1
    66   138   136   ar
    67   138   139   ar
    68    74    65   am
    69    65    64    1
    70    10    11    1
    71    77    76    2
    72    53    54    2
    73    96    95    2
    74    97    95   am
    75   120   121    1
    76   136   135   ar
    77    76    82   am
    78   121   124    1
    79   121   122    1
    80    64    63    1
    81   141   139   ar
    82   141   143   ar
    83    95    94    1
    84   139   137   ar
    85    11    12    1
    86   135   137   ar
    87   135   134    1
    88   122   123    2
    89    82    83    1
    90    40    39    1
    91   143   142   ar
    92   137   140   ar
    93    12    13    1
    94    94    91    1
    95   119   118    1
    96   134   131    1
    97    83    84    1
    98    83    86    1
    99   130   131    1
   100    39    38   ar
   101    39    37   ar
   102    84    90   am
   103    84    85    2
   104    90    91    1
   105    91    92    1
   106   142   140   ar
   107    38    36   ar
   108   117   118   ar
   109   117   115   ar
   110   118   116   ar
   111   131   132    1
   112    37    35   ar
   113    87    86    1
   114    87    89    1
   115    86    88    1
   116    36    34   ar
   117   115   113   ar
   118    92    98   am
   119    92    93    2
   120    98    99    1
   121    35    34   ar
   122    31    32    2
   123    31    30    1
   124   132   133    2
   125   116   114   ar
   126    34    33    1
   127    30    33    1
   128    30    29    1
   129   102    99    1
   130   102   103    1
   131   113   114   ar
   132   113   112    1
   133    99   100    1
   134   101   100    2
   135   103   105   ar
   136   103   104   ar
   137   112   109    1
   138   105   107   ar
   139   104   106   ar
   140   107   106   ar
   141   109   108    1
   142   109   110    1
   143   111   110    2
