@<TRIPOS>MOLECULE
tmp/3fa3B00.pdb
 155 147 0 0 0
SMALL
GASTEIGER

@<TRIPOS>ATOM
      1  N        -23.5980  -29.8580  -25.8370 N.3    43  TYR43      -0.1241
      2  CA       -24.8240  -29.1220  -25.3550 C.3    43  TYR43       0.1605
      3  C        -24.6990  -28.5950  -23.9170 C.2    43  TYR43       0.2264
      4  O        -24.5340  -29.3910  -22.9580 O.2    43  TYR43      -0.2867
      5  CB       -26.0890  -29.9770  -25.4680 C.3    43  TYR43       0.0534
      6  CG       -27.3180  -29.3670  -24.8080 C.ar   43  TYR43      -0.0201
      7  CD1      -27.9960  -28.3330  -25.4250 C.ar   43  TYR43      -0.0009
      8  CD2      -27.8190  -29.8440  -23.5740 C.ar   43  TYR43      -0.0009
      9  CE1      -29.0960  -27.7720  -24.8610 C.ar   43  TYR43       0.0417
     10  CE2      -28.9380  -29.2800  -23.0050 C.ar   43  TYR43       0.0417
     11  CZ       -29.5670  -28.2360  -23.6690 C.ar   43  TYR43       0.1957
     12  OH       -30.6790  -27.6080  -23.1850 O.3    43  TYR43      -0.2866
     13  N        -26.3730  -27.7210  -20.8260 N.3    45  THR45      -0.1203
     14  CA       -27.6600  -27.7890  -20.1900 C.3    45  THR45       0.1994
     15  C        -27.9660  -26.6550  -19.2300 C.2    45  THR45       0.2618
     16  O        -27.2380  -26.4560  -18.2430 O.2    45  THR45      -0.2717
     17  CB       -27.8750  -29.1060  -19.4270 C.3    45  THR45       0.1784
     18  OG1      -28.8420  -28.8670  -18.4060 O.3    45  THR45      -0.2211
     19  CG2      -26.5940  -29.6590  -18.8000 C.3    45  THR45       0.0376
     20  N        -29.0480  -25.9300  -19.5150 N.am   46  GLY46      -0.1942
     21  CA       -29.6040  -24.9750  -18.5560 C.3    46  GLY46       0.2014
     22  C        -29.7570  -25.5680  -17.1410 C.2    46  GLY46       0.2638
     23  O        -29.1150  -25.0410  -16.1940 O.2    46  GLY46      -0.2714
     24  N        -30.5710  -26.6430  -16.9850 N.am   47  ALA47      -0.1977
     25  CA       -30.6260  -27.4590  -15.7370 C.3    47  ALA47       0.1597
     26  C        -29.3130  -27.7060  -15.0180 C.2    47  ALA47       0.2287
     27  O        -29.2500  -27.6710  -13.8180 O.2    47  ALA47      -0.2864
     28  CB       -31.2580  -28.7980  -15.9890 C.3    47  ALA47       0.0319
     29  N        -33.8160  -26.6810  -11.5040 N.3    58  ASP58      -0.1239
     30  CA       -33.9700  -26.0370  -12.8190 C.3    58  ASP58       0.1674
     31  C        -35.2920  -25.2650  -12.8450 C.2    58  ASP58       0.2266
     32  O        -36.3430  -25.7690  -13.3350 O.2    58  ASP58      -0.2867
     33  CB       -33.8420  -27.0740  -13.9470 C.3    58  ASP58       0.1410
     34  CG       -34.0150  -26.4730  -15.3700 C.2    58  ASP58       0.3668
     35  OD1      -34.0540  -27.3100  -16.3320 O.co2  58  ASP58      -0.2456
     36  OD2      -34.1150  -25.1940  -15.5480 O.co2  58  ASP58      -0.2456
     37  N        -28.2150  -23.6450  -23.9530 N.3    86  ASP86      -0.1239
     38  CA       -29.4730  -23.1660  -23.3670 C.3    86  ASP86       0.1674
     39  C        -29.4650  -21.6110  -23.2260 C.2    86  ASP86       0.2266
     40  O        -28.4230  -21.0140  -23.0280 O.2    86  ASP86      -0.2867
     41  CB       -29.6260  -23.8220  -21.9990 C.3    86  ASP86       0.1410
     42  CG       -31.0670  -23.9370  -21.5360 C.2    86  ASP86       0.3668
     43  OD1      -31.9420  -23.2250  -22.0380 O.co2  86  ASP86      -0.2456
     44  OD2      -31.3020  -24.7540  -20.6300 O.co2  86  ASP86      -0.2456
     45  N        -31.0110  -21.9120  -27.6740 N.3   113  HIS113     -0.1241
     46  CA       -32.4690  -22.1260  -27.8320 C.3   113  HIS113      0.1621
     47  C        -33.3280  -21.2260  -26.9380 C.2   113  HIS113      0.2264
     48  O        -32.9590  -20.9570  -25.7870 O.2   113  HIS113     -0.2867
     49  CB       -32.8910  -23.6320  -27.7650 C.3   113  HIS113      0.0745
     50  CG       -32.6160  -24.3300  -26.4450 C.ar  113  HIS113      0.0817
     51  ND1      -33.3160  -24.0580  -25.2820 N.ar  113  HIS113     -0.2268
     52  CD2      -31.7460  -25.3240  -26.1250 C.ar  113  HIS113      0.1154
     53  CE1      -32.8580  -24.8180  -24.3010 C.ar  113  HIS113      0.1986
     54  NE2      -31.9060  -25.5950  -24.7830 N.ar  113  HIS113     -0.2212
     55  N        -38.9170  -19.9880  -15.4380 N.3   121  LYS121     -0.1245
     56  CA       -39.1270  -21.2580  -16.1310 C.3   121  LYS121      0.1561
     57  C        -38.8640  -22.4820  -15.2610 C.2   121  LYS121      0.2260
     58  O        -38.3070  -22.3750  -14.1890 O.2   121  LYS121     -0.2867
     59  CB       -38.3430  -21.3080  -17.4770 C.3   121  LYS121      0.0271
     60  CG       -36.8360  -20.8260  -17.4550 C.3   121  LYS121      0.0035
     61  CD       -35.8610  -21.9040  -16.9290 C.3   121  LYS121      0.0206
     62  CE       -36.2000  -23.3240  -17.4700 C.3   121  LYS121      0.1093
     63  NZ       -35.4340  -23.6260  -18.7440 N.3   121  LYS121     -0.1314
     64  N        -37.6440  -26.7920  -15.7950 N.3   123  CYS123     -0.1221
     65  CA       -37.4210  -27.9600  -16.6490 C.3   123  CYS123      0.1808
     66  C        -38.6960  -28.3860  -17.4040 C.2   123  CYS123      0.2602
     67  O        -39.7900  -28.5260  -16.7920 O.2   123  CYS123     -0.2717
     68  CB       -36.9590  -29.1360  -15.7950 C.3   123  CYS123      0.0970
     69  SG       -36.6300  -30.6700  -16.6630 S.3   123  CYS123     -0.0800
     70  N        -38.5310  -28.6260  -18.7210 N.am  124  GLY124     -0.1942
     71  CA       -39.6570  -28.9120  -19.6150 C.3   124  GLY124      0.2014
     72  C        -40.1310  -30.3310  -19.4160 C.2   124  GLY124      0.2638
     73  O        -40.9510  -30.8300  -20.1980 O.2   124  GLY124     -0.2714
     74  N        -39.6020  -30.9950  -18.3780 N.am  125  HIS125     -0.1973
     75  CA       -40.1350  -32.3140  -17.9890 C.3   125  HIS125      0.1656
     76  C        -40.7750  -32.2730  -16.5980 C.2   125  HIS125      0.2291
     77  O        -41.1090  -33.3030  -16.0970 O.2   125  HIS125     -0.2864
     78  CB       -39.0770  -33.4610  -18.0670 C.3   125  HIS125      0.0771
     79  CG       -38.7350  -33.9370  -19.4620 C.ar  125  HIS125      0.0820
     80  ND1      -39.5410  -34.7920  -20.1860 N.ar  125  HIS125     -0.2267
     81  CD2      -37.6270  -33.7430  -20.2240 C.ar  125  HIS125      0.1154
     82  CE1      -38.9680  -35.0680  -21.3470 C.ar  125  HIS125      0.1986
     83  NE2      -37.8020  -34.4490  -21.3900 N.ar  125  HIS125     -0.2212
     84  N        -37.9920  -23.1200  -29.3540 N.3   160  ARG160     -0.1245
     85  CA       -38.4880  -24.1950  -28.5250 C.3   160  ARG160      0.1563
     86  C        -39.8700  -23.8430  -27.9960 C.2   160  ARG160      0.2260
     87  O        -40.1100  -22.6940  -27.5830 O.2   160  ARG160     -0.2867
     88  CB       -37.4820  -24.5530  -27.3890 C.3   160  ARG160      0.0307
     89  CG       -38.0450  -25.4670  -26.2350 C.3   160  ARG160      0.0489
     90  CD       -37.0070  -25.8450  -25.1630 C.3   160  ARG160      0.2205
     91  NE       -37.6490  -26.1840  -23.8810 N.pl3 160  ARG160     -0.0865
     92  CZ       -37.0480  -26.6670  -22.7930 C.cat 160  ARG160      0.5346
     93  NH1      -37.7560  -26.9760  -21.7190 N.pl3 160  ARG160      0.1354
     94  NH2      -35.7510  -26.8540  -22.7850 N.pl3 160  ARG160      0.1354
     95  N        -37.6610  -27.1580  -31.9910 N.3   188  PHE188     -0.1241
     96  CA       -37.5040  -27.9090  -30.7330 C.3   188  PHE188      0.1605
     97  C        -38.8740  -28.1740  -30.0680 C.2   188  PHE188      0.2264
     98  O        -39.3300  -27.3790  -29.2220 O.2   188  PHE188     -0.2867
     99  CB       -36.6160  -27.0550  -29.8200 C.3   188  PHE188      0.0534
    100  CG       -36.0810  -27.7480  -28.5980 C.ar  188  PHE188     -0.0203
    101  CD1      -34.8660  -27.3530  -28.0700 C.ar  188  PHE188     -0.0042
    102  CD2      -36.7960  -28.7250  -27.9320 C.ar  188  PHE188     -0.0042
    103  CE1      -34.3440  -27.9360  -26.9440 C.ar  188  PHE188     -0.0003
    104  CE2      -36.2670  -29.3240  -26.7680 C.ar  188  PHE188     -0.0003
    105  CZ       -35.0400  -28.9240  -26.2880 C.ar  188  PHE188     -0.0000
    106  N        -40.4720  -29.7440  -27.3210 N.3   190  GLU190     -0.1245
    107  CA       -39.8700  -30.2900  -26.1250 C.3   190  GLU190      0.1567
    108  C        -40.8260  -31.2980  -25.4990 C.2   190  GLU190      0.2260
    109  O        -42.0370  -31.0740  -25.4830 O.2   190  GLU190     -0.2867
    110  CB       -39.4300  -29.1460  -25.1670 C.3   190  GLU190      0.0388
    111  CG       -39.5540  -29.3800  -23.6670 C.3   190  GLU190      0.1160
    112  CD       -38.4100  -30.2090  -23.0510 C.2   190  GLU190      0.3649
    113  OE1      -37.4180  -30.5460  -23.7130 O.co2 190  GLU190     -0.2457
    114  OE2      -38.4890  -30.5440  -21.8630 O.co2 190  GLU190     -0.2457
    115  N        -34.6900  -33.4060  -28.0070 N.3   213  ASN213     -0.1240
    116  CA       -34.1520  -33.4480  -26.6450 C.3   213  ASN213      0.1653
    117  C        -34.4150  -34.8160  -25.9770 C.2   213  ASN213      0.2266
    118  O        -35.5360  -35.0910  -25.4740 O.2   213  ASN213     -0.2867
    119  CB       -34.7510  -32.3270  -25.7980 C.3   213  ASN213      0.1155
    120  CG       -34.1160  -32.2510  -24.4330 C.2   213  ASN213      0.2627
    121  OD1      -32.9740  -32.7120  -24.2630 O.2   213  ASN213     -0.2716
    122  ND2      -34.8270  -31.6700  -23.4490 N.am  213  ASN213     -0.0877
    123  N        -34.1080  -36.6270  -23.0940 N.3   215  VAL215     -0.1245
    124  CA       -33.9250  -36.6010  -21.6290 C.3   215  VAL215      0.1561
    125  C        -34.5960  -37.8920  -21.1950 C.2   215  VAL215      0.2260
    126  O        -35.7290  -38.1470  -21.5960 O.2   215  VAL215     -0.2867
    127  CB       -34.5500  -35.3300  -20.9340 C.3   215  VAL215      0.0252
    128  CG1      -34.5210  -35.4450  -19.4770 C.3   215  VAL215      0.0019
    129  CG2      -33.8200  -34.1220  -21.2930 C.3   215  VAL215      0.0019
    130  N        -29.9140  -33.9960  -28.6020 N.3   237  ILE237     -0.1245
    131  CA       -29.2220  -33.6870  -27.3390 C.3   237  ILE237      0.1561
    132  C        -29.6280  -34.6610  -26.1790 C.2   237  ILE237      0.2260
    133  O        -30.7800  -35.1650  -26.0850 O.2   237  ILE237     -0.2867
    134  CB       -29.4010  -32.1910  -26.8540 C.3   237  ILE237      0.0252
    135  CG1      -30.8740  -31.7850  -26.7420 C.3   237  ILE237      0.0019
    136  CG2      -28.7350  -31.2490  -27.7340 C.3   237  ILE237      0.0019
    137  CD1      -31.0990  -30.4440  -26.0210 C.3   237  ILE237      0.0001
    138  N        -29.2660  -33.8900  -22.4130 N.3   239  PRO239     -0.2102
    139  CA       -28.9230  -32.9320  -21.3760 C.3   239  PRO239      0.1504
    140  C        -28.2380  -33.4700  -20.0700 C.2   239  PRO239      0.2575
    141  O        -27.3040  -32.8080  -19.5610 O.2   239  PRO239     -0.2718
    142  CB       -30.2770  -32.2730  -21.0980 C.3   239  PRO239      0.0282
    143  CG       -30.9170  -32.2880  -22.4600 C.3   239  PRO239      0.0208
    144  CD       -30.6230  -33.6730  -22.9070 C.3   239  PRO239      0.0893
    145  N        -28.6640  -34.6500  -19.5620 N.am  240  PHE240     -0.1977
    146  CA       -28.0800  -35.2030  -18.3290 C.3   240  PHE240      0.1639
    147  C        -26.9750  -36.1930  -18.5300 C.2   240  PHE240      0.2290
    148  O        -26.6500  -36.9550  -17.6120 O.2   240  PHE240     -0.2864
    149  CB       -29.1470  -35.7150  -17.3600 C.3   240  PHE240      0.0560
    150  CG       -30.1080  -34.6290  -16.9620 C.ar  240  PHE240     -0.0200
    151  CD1      -29.6230  -33.3480  -16.6540 C.ar  240  PHE240     -0.0042
    152  CD2      -31.4750  -34.8330  -16.9650 C.ar  240  PHE240     -0.0042
    153  CE1      -30.4970  -32.2930  -16.3450 C.ar  240  PHE240     -0.0003
    154  CE2      -32.3760  -33.8010  -16.6620 C.ar  240  PHE240     -0.0003
    155  CZ       -31.8950  -32.5240  -16.3550 C.ar  240  PHE240     -0.0000
@<TRIPOS>BOND
     1    95    96    1
     2    96    97    1
     3    96    99    1
     4    97    98    2
     5    99   100    1
     6    84    85    1
     7   130   131    1
     8   100   101   ar
     9   100   102   ar
    10    85    86    1
    11    85    88    1
    12   101   103   ar
    13   115   116    1
    14    86    87    2
    15   102   104   ar
    16    46    49    1
    17    46    45    1
    18    46    47    1
    19    49    50    1
    20   136   134    1
    21    88    89    1
    22   131   134    1
    23   131   132    1
    24   106   107    1
    25   103   105   ar
    26    47    48    2
    27   134   135    1
    28   104   105   ar
    29   135   137    1
    30   116   117    1
    31   116   119    1
    32    50    52   ar
    33    50    51   ar
    34    89    90    1
    35   132   133    2
    36   107   108    1
    37   107   110    1
    38    52    54   ar
    39   117   118    2
    40     1     2    1
    41   119   120    1
    42   108   109    2
    43     5     2    1
    44     5     6    1
    45     7     9   ar
    46     7     6   ar
    47     2     3    1
    48    51    53   ar
    49   110   111    1
    50    90    91    1
    51     9    11   ar
    52     6     8   ar
    53    54    53   ar
    54   120   121    2
    55   120   122   am
    56    37    38    1
    57     3     4    2
    58    91    92    2
    59   113   112   ar
    60    11    12    1
    61    11    10   ar
    62   111   112    1
    63     8    10   ar
    64    38    39    1
    65    38    41    1
    66    39    40    2
    67   123   124    1
    68   112   114   ar
    69   144   143    1
    70   144   138    1
    71    92    94    1
    72    92    93    1
    73   143   142    1
    74   138   139    1
    75    43    42   ar
    76    41    42    1
    77   124   125    1
    78   124   127    1
    79   126   125    2
    80    42    44   ar
    81    83    82   ar
    82    83    81   ar
    83   139   142    1
    84   139   140    1
    85    82    80   ar
    86   129   127    1
    87   127   128    1
    88    13    14    1
    89    81    79   ar
    90    73    72    2
    91    14    17    1
    92    14    15    1
    93    80    79   ar
    94   140   145   am
    95   140   141    2
    96    71    72    1
    97    71    70    1
    98   145   146    1
    99    20    15   am
   100    20    21    1
   101    79    78    1
   102    17    19    1
   103    17    18    1
   104    72    74   am
   105    15    16    2
   106    63    62    1
   107    70    66   am
   108    21    22    1
   109   147   146    1
   110   147   148    2
   111    74    75    1
   112   146   149    1
   113    78    75    1
   114    75    76    1
   115    59    60    1
   116    59    56    1
   117    62    61    1
   118    60    61    1
   119    66    67    2
   120    66    65    1
   121   149   150    1
   122    22    24   am
   123    22    23    2
   124    24    25    1
   125   152   150   ar
   126   152   154   ar
   127   150   151   ar
   128    69    68    1
   129   154   155   ar
   130   151   153   ar
   131    65    64    1
   132    65    68    1
   133    76    77    2
   134   155   153   ar
   135    35    34   ar
   136    56    55    1
   137    56    57    1
   138    28    25    1
   139    25    26    1
   140    36    34   ar
   141    34    33    1
   142    57    58    2
   143    26    27    2
   144    33    30    1
   145    32    31    2
   146    31    30    1
   147    30    29    1
