@<TRIPOS>MOLECULE
tmp/3fa6B00.pdb
 151 141 0 0 0
SMALL
GASTEIGER

@<TRIPOS>ATOM
      1  N          4.8680    3.4230  -43.5000 N.3    15  PHE15      -0.1241
      2  CA         4.7690    3.2890  -42.0330 C.3    15  PHE15       0.1605
      3  C          4.0550    4.4820  -41.4120 C.2    15  PHE15       0.2264
      4  O          3.1720    4.3050  -40.5510 O.2    15  PHE15      -0.2867
      5  CB         6.1520    3.0930  -41.4180 C.3    15  PHE15       0.0534
      6  CG         6.1180    2.8190  -39.9280 C.ar   15  PHE15      -0.0203
      7  CD1        5.3100    1.8100  -39.4260 C.ar   15  PHE15      -0.0042
      8  CD2        6.8980    3.5630  -39.0620 C.ar   15  PHE15      -0.0042
      9  CE1        5.2600    1.5490  -38.0590 C.ar   15  PHE15      -0.0003
     10  CE2        6.8490    3.3010  -37.6920 C.ar   15  PHE15      -0.0003
     11  CZ         6.0270    2.3130  -37.2050 C.ar   15  PHE15      -0.0000
     12  N         13.9180    0.2720  -36.1510 N.3    39  PRO39      -0.2116
     13  CA        13.7950   -1.0140  -35.4150 C.3    39  PRO39       0.1372
     14  C         14.8130   -2.0570  -35.8050 C.2    39  PRO39       0.2244
     15  O         15.0290   -2.2950  -37.0090 O.2    39  PRO39      -0.2868
     16  CB        12.4150   -1.5450  -35.8510 C.3    39  PRO39       0.0268
     17  CG        12.2170   -0.9600  -37.2340 C.3    39  PRO39       0.0207
     18  CD        12.9670    0.3500  -37.2690 C.3    39  PRO39       0.0892
     19  N         15.2250   -6.1380  -35.3580 N.3    41  VAL41      -0.1245
     20  CA        14.2910   -7.2270  -35.0440 C.3    41  VAL41       0.1561
     21  C         15.0650   -8.5140  -34.8760 C.2    41  VAL41       0.2260
     22  O         15.7730   -8.9500  -35.7890 O.2    41  VAL41      -0.2867
     23  CB        13.2710   -7.3800  -36.2350 C.3    41  VAL41       0.0252
     24  CG1       12.3800   -8.6270  -36.0720 C.3    41  VAL41       0.0019
     25  CG2       12.4110   -6.1050  -36.3940 C.3    41  VAL41       0.0019
     26  N          9.9220  -12.9400  -30.8270 N.3    52  ILE52      -0.1245
     27  CA        10.3460  -11.7820  -31.6220 C.3    52  ILE52       0.1561
     28  C         10.5990  -10.6270  -30.6880 C.2    52  ILE52       0.2260
     29  O          9.7230  -10.2480  -29.8850 O.2    52  ILE52      -0.2867
     30  CB         9.2900  -11.3910  -32.6540 C.3    52  ILE52       0.0252
     31  CG1        8.9710  -12.5980  -33.5420 C.3    52  ILE52       0.0019
     32  CG2        9.8240  -10.2280  -33.4910 C.3    52  ILE52       0.0019
     33  CD1        7.9750  -12.3050  -34.7100 C.3    52  ILE52       0.0001
     34  N         11.7860   -6.5580  -30.7080 N.3    54  VAL54      -0.1245
     35  CA        12.0880   -5.3630  -31.4930 C.3    54  VAL54       0.1561
     36  C         12.7430   -4.3360  -30.6010 C.2    54  VAL54       0.2260
     37  O         12.2190   -3.9510  -29.5400 O.2    54  VAL54      -0.2867
     38  CB        10.8310   -4.7360  -32.0990 C.3    54  VAL54       0.0252
     39  CG1       11.1760   -3.5140  -32.9710 C.3    54  VAL54       0.0019
     40  CG2       10.0650   -5.8080  -32.8850 C.3    54  VAL54       0.0019
     41  N          7.6280  -10.5050  -27.7870 N.3    63  ILE63      -0.1245
     42  CA         6.3800  -11.3100  -27.8680 C.3    63  ILE63       0.1561
     43  C          6.7870  -12.7400  -28.1860 C.2    63  ILE63       0.2260
     44  O          7.8300  -12.9490  -28.8700 O.2    63  ILE63      -0.2867
     45  CB         5.4130  -10.7630  -28.9920 C.3    63  ILE63       0.0252
     46  CG1        4.0660  -11.5280  -29.1100 C.3    63  ILE63       0.0019
     47  CG2        6.0480  -10.8260  -30.3290 C.3    63  ILE63       0.0019
     48  CD1        3.0000  -11.0940  -28.1940 C.3    63  ILE63       0.0001
     49  N          4.8480  -16.6140  -29.4730 N.3    65  PHE65      -0.1241
     50  CA         3.6200  -17.2500  -29.9260 C.3    65  PHE65       0.1605
     51  C          3.9810  -18.5420  -30.6330 C.2    65  PHE65       0.2264
     52  O          5.1480  -18.8310  -30.9030 O.2    65  PHE65      -0.2867
     53  CB         2.8340  -16.3480  -30.8990 C.3    65  PHE65       0.0534
     54  CG         3.6050  -15.9820  -32.1620 C.ar   65  PHE65      -0.0203
     55  CD1        3.5420  -16.7700  -33.2840 C.ar   65  PHE65      -0.0042
     56  CD2        4.3530  -14.8220  -32.2050 C.ar   65  PHE65      -0.0042
     57  CE1        4.2440  -16.4180  -34.4320 C.ar   65  PHE65      -0.0003
     58  CE2        5.0390  -14.4660  -33.3620 C.ar   65  PHE65      -0.0003
     59  CZ         4.9920  -15.2820  -34.4710 C.ar   65  PHE65      -0.0000
     60  N         -1.7130  -10.1330  -28.2970 N.3    73  GLU73      -0.1231
     61  CA        -0.6030   -9.1920  -28.5110 C.3    73  GLU73       0.1699
     62  C         -1.2030   -7.8050  -28.6430 C.2    73  GLU73       0.2592
     63  O         -2.3490   -7.6080  -28.2390 O.2    73  GLU73      -0.2718
     64  CB         0.2440   -9.5840  -29.7240 C.3    73  GLU73       0.0402
     65  CG        -0.4860   -9.5370  -31.0330 C.3    73  GLU73       0.1161
     66  CD         0.4070   -9.8430  -32.2330 C.2    73  GLU73       0.3649
     67  OE1        1.6490   -9.7130  -32.1670 O.co2  73  GLU73      -0.2457
     68  OE2       -0.1570  -10.2170  -33.2640 O.co2  73  GLU73      -0.2457
     69  N         -0.4400   -6.8330  -29.1110 N.am   74  GLN74      -0.1979
     70  CA        -1.0080   -5.4870  -29.3270 C.3    74  GLN74       0.1601
     71  C         -0.9260   -5.1450  -30.7720 C.2    74  GLN74       0.2287
     72  O         -0.0570   -5.6260  -31.4610 O.2    74  GLN74      -0.2864
     73  CB        -0.2520   -4.4550  -28.4810 C.3    74  GLN74       0.0394
     74  CG        -0.4500   -4.7280  -26.9670 C.3    74  GLN74       0.0908
     75  CD         0.0240   -3.6060  -26.0970 C.2    74  GLN74       0.2608
     76  OE1        1.0610   -3.0030  -26.3610 O.2    74  GLN74      -0.2717
     77  NE2       -0.7230   -3.3270  -25.0310 N.am   74  GLN74      -0.0878
     78  N         -0.1260   -2.4080  -33.8370 N.3    76  VAL76      -0.1245
     79  CA         1.0840   -1.6020  -33.9430 C.3    76  VAL76       0.1561
     80  C          0.9660   -0.3420  -33.0800 C.2    76  VAL76       0.2260
     81  O          1.9360    0.0960  -32.4880 O.2    76  VAL76      -0.2867
     82  CB         1.4470   -1.2880  -35.4180 C.3    76  VAL76       0.0252
     83  CG1        0.2140   -0.9700  -36.2230 C.3    76  VAL76       0.0019
     84  CG2        2.4770   -0.1720  -35.5000 C.3    76  VAL76       0.0019
     85  N         -5.9130  -10.6100  -36.7850 N.3    97  GLN97      -0.1245
     86  CA        -6.0490   -9.9610  -35.5050 C.3    97  GLN97       0.1566
     87  C         -7.4790   -9.4710  -35.3160 C.2    97  GLN97       0.2260
     88  O         -8.1230   -8.9640  -36.2480 O.2    97  GLN97      -0.2867
     89  CB        -5.0780   -8.7670  -35.3990 C.3    97  GLN97       0.0367
     90  CG        -3.6130   -9.1290  -35.5640 C.3    97  GLN97       0.0905
     91  CD        -2.7140   -7.9350  -35.3960 C.2    97  GLN97       0.2608
     92  OE1       -2.9940   -6.8660  -35.9380 O.2    97  GLN97      -0.2717
     93  NE2       -1.6250   -8.1010  -34.6550 N.am   97  GLN97      -0.0878
     94  N         -0.7970   -8.7160  -39.9970 N.3   109  TRP109     -0.1241
     95  CA         0.6120   -8.6460  -40.3920 C.3   109  TRP109      0.1605
     96  C          0.9790   -9.9420  -41.0120 C.2   109  TRP109      0.2264
     97  O          0.3560  -10.9720  -40.7860 O.2   109  TRP109     -0.2867
     98  CB         1.5600   -8.2860  -39.2440 C.3   109  TRP109      0.0550
     99  CG         1.5690   -9.2100  -38.0260 C.ar  109  TRP109      0.0003
    100  CD1        0.9500   -8.9730  -36.8300 C.ar  109  TRP109      0.0946
    101  CD2        2.2920  -10.4590  -37.8720 C.ar  109  TRP109      0.0152
    102  NE1        1.2240  -10.0040  -35.9460 N.ar  109  TRP109     -0.2442
    103  CE2        2.0600  -10.9130  -36.5520 C.ar  109  TRP109      0.0810
    104  CE3        3.0990  -11.2410  -38.7230 C.ar  109  TRP109      0.0012
    105  CZ2        2.5890  -12.1210  -36.0740 C.ar  109  TRP109      0.0191
    106  CZ3        3.6330  -12.4220  -38.2540 C.ar  109  TRP109      0.0001
    107  CH2        3.3850  -12.8550  -36.9230 C.ar  109  TRP109      0.0015
    108  N          4.7270  -12.1020  -42.4020 N.3   111  LEU111     -0.1245
    109  CA         6.1850  -12.1860  -42.5160 C.3   111  LEU111      0.1561
    110  C          6.5240  -13.2210  -43.5750 C.2   111  LEU111      0.2260
    111  O          6.0180  -14.3630  -43.5510 O.2   111  LEU111     -0.2867
    112  CB         6.8490  -12.6200  -41.2000 C.3   111  LEU111      0.0270
    113  CG         6.8620  -11.6200  -40.0630 C.3   111  LEU111      0.0019
    114  CD1        7.4980  -12.3070  -38.8370 C.3   111  LEU111      0.0001
    115  CD2        7.6340  -10.3730  -40.4460 C.3   111  LEU111      0.0001
    116  N          8.0360   -7.7780  -43.9940 N.3   121  ASP121     -0.1239
    117  CA         7.0070   -7.6120  -42.9560 C.3   121  ASP121      0.1674
    118  C          5.9270   -6.7110  -43.5910 C.2   121  ASP121      0.2266
    119  O          6.2360   -5.5840  -43.9870 O.2   121  ASP121     -0.2867
    120  CB         7.7040   -6.9130  -41.7860 C.3   121  ASP121      0.1410
    121  CG         6.7870   -6.5580  -40.6730 C.2   121  ASP121      0.3668
    122  OD1        5.6310   -7.0130  -40.6520 O.co2 121  ASP121     -0.2456
    123  OD2        7.2620   -5.8120  -39.7920 O.co2 121  ASP121     -0.2456
    124  N          2.2640   -4.9130  -42.9160 N.3   123  MET123     -0.1245
    125  CA         1.3250   -4.5930  -41.8520 C.3   123  MET123      0.1570
    126  C          0.1950   -3.8380  -42.5130 C.2   123  MET123      0.2261
    127  O          0.4390   -2.9130  -43.2910 O.2   123  MET123     -0.2867
    128  CB         1.9850   -3.7280  -40.7820 C.3   123  MET123      0.0387
    129  CG         2.8270   -4.5670  -39.8190 C.3   123  MET123      0.0595
    130  SD         3.7600   -3.5970  -38.6390 S.3   123  MET123     -0.1393
    131  CE         4.7320   -2.8550  -39.8400 C.3   123  MET123      0.0692
    132  N          7.8970   -3.3940  -44.6360 N.3   132  LYS132     -0.1245
    133  CA         9.2720   -3.1290  -44.2150 C.3   132  LYS132      0.1561
    134  C         10.0020   -4.3390  -44.6800 C.2   132  LYS132      0.2260
    135  O          9.6110   -5.4910  -44.5300 O.2   132  LYS132     -0.2867
    136  CB         9.3060   -3.0010  -42.6830 C.3   132  LYS132      0.0271
    137  CG         8.5720   -1.7720  -42.1930 C.3   132  LYS132      0.0035
    138  CD         8.7020   -1.6830  -40.6820 C.3   132  LYS132      0.0206
    139  CE         7.8170   -0.5470  -40.1840 C.3   132  LYS132      0.1093
    140  NZ         8.1570   -0.2890  -38.7760 N.3   132  LYS132     -0.1314
    141  N         13.8200   -6.3460  -44.4090 N.3   134  PHE134     -0.1241
    142  CA        14.9780   -6.5140  -43.5550 C.3   134  PHE134      0.1605
    143  C         15.9390   -7.4970  -44.2090 C.2   134  PHE134      0.2264
    144  O         15.5470   -8.3540  -45.0270 O.2   134  PHE134     -0.2867
    145  CB        14.5910   -7.1160  -42.1740 C.3   134  PHE134      0.0534
    146  CG        13.6020   -6.2710  -41.3850 C.ar  134  PHE134     -0.0203
    147  CD1       12.2560   -6.2850  -41.6870 C.ar  134  PHE134     -0.0042
    148  CD2       14.0460   -5.5040  -40.3360 C.ar  134  PHE134     -0.0042
    149  CE1       11.3950   -5.5090  -40.9330 C.ar  134  PHE134     -0.0003
    150  CE2       13.1920   -4.7150  -39.6020 C.ar  134  PHE134     -0.0003
    151  CZ        11.8460   -4.7250  -39.9190 C.ar  134  PHE134     -0.0000
@<TRIPOS>BOND
     1   144   143    2
     2   134   135    2
     3   134   133    1
     4   132   133    1
     5   141   142    1
     6   133   136    1
     7   143   142    1
     8   116   117    1
     9   119   118    2
    10   118   117    1
    11   110   111    2
    12   110   109    1
    13   142   145    1
    14     1     2    1
    15   127   126    2
    16   117   120    1
    17   124   125    1
    18   136   137    1
    19   109   108    1
    20   109   112    1
    21   126   125    1
    22   137   138    1
    23   145   146    1
    24     2     5    1
    25     2     3    1
    26   125   128    1
    27   120   121    1
    28   147   146   ar
    29   147   149   ar
    30     5     6    1
    31     3     4    2
    32   146   148   ar
    33   112   113    1
    34    96    97    2
    35    96    95    1
    36   149   151   ar
    37   128   129    1
    38   138   139    1
    39   121   122   ar
    40   121   123   ar
    41   115   113    1
    42    95    94    1
    43    95    98    1
    44   148   150   ar
    45   139   140    1
    46   113   114    1
    47     6     7   ar
    48     6     8   ar
    49   151   150   ar
    50   131   130    1
    51   129   130    1
    52     7     9   ar
    53    98    99    1
    54     8    10   ar
    55   104   106   ar
    56   104   101   ar
    57   106   107   ar
    58     9    11   ar
    59    99   101   ar
    60    99   100   ar
    61   101   103   ar
    62    10    11   ar
    63    18    17    1
    64    18    12    1
    65    17    16    1
    66    15    14    2
    67   107   105   ar
    68   100   102   ar
    69    85    86    1
    70   103   105   ar
    71   103   102   ar
    72    25    23    1
    73    88    87    2
    74    23    24    1
    75    23    20    1
    76    83    82    1
    77    12    13    1
    78    92    91    2
    79    16    13    1
    80    14    13    1
    81    22    21    2
    82    90    89    1
    83    90    91    1
    84    86    89    1
    85    86    87    1
    86    84    82    1
    87    82    79    1
    88    91    93   am
    89    19    20    1
    90    20    21    1
    91    33    31    1
    92    59    57   ar
    93    59    58   ar
    94    57    55   ar
    95    79    78    1
    96    79    80    1
    97    31    30    1
    98    32    30    1
    99    58    56   ar
   100    55    54   ar
   101    68    66   ar
   102    80    81    2
   103    39    38    1
   104    40    38    1
   105    30    27    1
   106    66    67   ar
   107    66    65    1
   108    56    54   ar
   109    54    53    1
   110    38    35    1
   111    27    26    1
   112    27    28    1
   113    35    34    1
   114    35    36    1
   115    72    71    2
   116    65    64    1
   117    52    51    2
   118    53    50    1
   119    71    70    1
   120    28    29    2
   121    51    50    1
   122    36    37    2
   123    47    45    1
   124    50    49    1
   125    64    61    1
   126    70    69    1
   127    70    73    1
   128    69    62   am
   129    46    45    1
   130    46    48    1
   131    45    42    1
   132    44    43    2
   133    62    61    1
   134    62    63    2
   135    61    60    1
   136    73    74    1
   137    43    42    1
   138    42    41    1
   139    74    75    1
   140    76    75    2
   141    75    77   am
