@<TRIPOS>MOLECULE
tmp/3faaA00.pdb
 197 187 0 0 0
SMALL
GASTEIGER

@<TRIPOS>ATOM
      1  N         82.2540   21.3860   97.4960 N.3    41  ILE41      -0.1245
      2  CA        81.2030   20.4540   97.1040 C.3    41  ILE41       0.1561
      3  C         81.0010   20.3960   95.6050 C.2    41  ILE41       0.2260
      4  O         79.8800   20.2450   95.1290 O.2    41  ILE41      -0.2867
      5  CB        79.8430   20.7820   97.7680 C.3    41  ILE41       0.0252
      6  CG1       79.4200   22.2210   97.4610 C.3    41  ILE41       0.0019
      7  CG2       79.9270   20.5430   99.2580 C.3    41  ILE41       0.0019
      8  CD1       78.5810   22.3740   96.2180 C.3    41  ILE41       0.0001
      9  N         85.4160   26.4310   85.4400 N.3    46  PHE46      -0.1241
     10  CA        84.9080   27.7410   85.8530 C.3    46  PHE46       0.1605
     11  C         85.5440   28.0480   87.1950 C.2    46  PHE46       0.2264
     12  O         85.5340   29.1800   87.6730 O.2    46  PHE46      -0.2867
     13  CB        83.4040   27.6790   86.0950 C.3    46  PHE46       0.0534
     14  CG        83.0440   26.9820   87.3770 C.ar   46  PHE46      -0.0203
     15  CD1       83.2220   25.6140   87.5070 C.ar   46  PHE46      -0.0042
     16  CD2       82.5820   27.6970   88.4630 C.ar   46  PHE46      -0.0042
     17  CE1       82.9470   24.9760   88.6950 C.ar   46  PHE46      -0.0003
     18  CE2       82.3060   27.0590   89.6590 C.ar   46  PHE46      -0.0003
     19  CZ        82.4880   25.6990   89.7750 C.ar   46  PHE46      -0.0000
     20  N         83.0030   25.2090   93.3280 N.3    49  VAL49      -0.1245
     21  CA        81.9570   25.7120   94.2000 C.3    49  VAL49       0.1561
     22  C         82.0140   25.0450   95.5620 C.2    49  VAL49       0.2260
     23  O         82.1940   23.8350   95.6690 O.2    49  VAL49      -0.2867
     24  CB        80.5660   25.4960   93.5850 C.3    49  VAL49       0.0252
     25  CG1       80.4330   24.0790   93.1400 C.3    49  VAL49       0.0019
     26  CG2       79.4920   25.8180   94.5950 C.3    49  VAL49       0.0019
     27  N         75.5570   28.9460   98.9500 N.3    60  ALA60      -0.1245
     28  CA        76.4370   28.3580   97.9520 C.3    60  ALA60       0.1562
     29  C         77.4830   29.3700   97.5100 C.2    60  ALA60       0.2260
     30  O         77.1500   30.5140   97.1790 O.2    60  ALA60      -0.2867
     31  CB        75.6440   27.9040   96.7600 C.3    60  ALA60       0.0290
     32  N         80.3620   29.9020   94.7430 N.3    62  LYS62      -0.1245
     33  CA        81.1080   29.5160   93.5560 C.3    62  LYS62       0.1561
     34  C         82.3590   30.3890   93.5000 C.2    62  LYS62       0.2260
     35  O         82.2730   31.6100   93.3350 O.2    62  LYS62      -0.2867
     36  CB        80.2510   29.7170   92.3070 C.3    62  LYS62       0.0271
     37  CG        81.0370   29.6900   91.0370 C.3    62  LYS62       0.0035
     38  CD        80.1850   30.0300   89.8410 C.3    62  LYS62       0.0206
     39  CE        79.2860   28.8940   89.4540 C.3    62  LYS62       0.1093
     40  NZ        78.8030   29.0320   88.0480 N.3    62  LYS62      -0.1314
     41  N         78.1690   36.2280   84.7920 N.3    75  GLU75      -0.1245
     42  CA        77.1410   35.7730   85.7030 C.3    75  GLU75       0.1567
     43  C         76.7130   36.9080   86.6140 C.2    75  GLU75       0.2260
     44  O         75.5320   37.1650   86.7850 O.2    75  GLU75      -0.2867
     45  CB        77.6340   34.6080   86.5410 C.3    75  GLU75       0.0388
     46  CG        77.4720   33.2800   85.8670 C.3    75  GLU75       0.1160
     47  CD        77.4130   32.1490   86.8670 C.2    75  GLU75       0.3649
     48  OE1       78.4420   31.8990   87.5260 O.co2  75  GLU75      -0.2457
     49  OE2       76.3360   31.5190   87.0030 O.co2  75  GLU75      -0.2457
     50  N         72.7680   37.6910   86.6280 N.3    79  TYR79      -0.1241
     51  CA        71.9480   37.4440   87.8090 C.3    79  TYR79       0.1605
     52  C         71.4840   38.7370   88.4550 C.2    79  TYR79       0.2264
     53  O         70.6950   38.7070   89.3940 O.2    79  TYR79      -0.2867
     54  CB        72.7030   36.6440   88.8720 C.3    79  TYR79       0.0534
     55  CG        72.7180   35.1580   88.6580 C.ar   79  TYR79      -0.0201
     56  CD1       73.7580   34.5520   87.9860 C.ar   79  TYR79      -0.0009
     57  CD2       71.6940   34.3590   89.1450 C.ar   79  TYR79      -0.0009
     58  CE1       73.7840   33.2000   87.8080 C.ar   79  TYR79       0.0417
     59  CE2       71.7080   33.0050   88.9730 C.ar   79  TYR79       0.0417
     60  CZ        72.7590   32.4310   88.3040 C.ar   79  TYR79       0.1957
     61  OH        72.8120   31.0740   88.1330 O.3    79  TYR79      -0.2866
     62  N         67.8810   30.2980   90.1160 N.3    90  LEU90      -0.1245
     63  CA        68.8370   30.3620   91.2160 C.3    90  LEU90       0.1561
     64  C         69.0010   31.7030   91.9000 C.2    90  LEU90       0.2260
     65  O         69.5540   32.6390   91.3310 O.2    90  LEU90      -0.2867
     66  CB        70.1990   29.8790   90.7390 C.3    90  LEU90       0.0270
     67  CG        71.1840   29.8320   91.9000 C.3    90  LEU90       0.0019
     68  CD1       70.5030   29.1730   93.0920 C.3    90  LEU90       0.0001
     69  CD2       72.4470   29.0940   91.4890 C.3    90  LEU90       0.0001
     70  N         70.3240   34.6060   93.4010 N.3    92  PHE92      -0.1241
     71  CA        71.6240   35.2540   93.4890 C.3    92  PHE92       0.1605
     72  C         71.6850   36.1270   94.7260 C.2    92  PHE92       0.2264
     73  O         70.8030   36.9500   94.9390 O.2    92  PHE92      -0.2867
     74  CB        71.8500   36.1330   92.2690 C.3    92  PHE92       0.0534
     75  CG        73.1050   36.9320   92.3370 C.ar   92  PHE92      -0.0203
     76  CD1       74.3260   36.3520   92.0500 C.ar   92  PHE92      -0.0042
     77  CD2       73.0750   38.2540   92.7280 C.ar   92  PHE92      -0.0042
     78  CE1       75.4940   37.0800   92.1540 C.ar   92  PHE92      -0.0003
     79  CE2       74.2410   38.9870   92.8330 C.ar   92  PHE92      -0.0003
     80  CZ        75.4500   38.4000   92.5470 C.ar   92  PHE92      -0.0000
     81  N         80.9640   34.4170   93.8120 N.3   108  LEU108     -0.1231
     82  CA        79.5510   34.6180   93.4860 C.3   108  LEU108      0.1693
     83  C         78.8460   33.8290   94.5990 C.2   108  LEU108      0.2592
     84  O         79.1360   32.6530   94.7980 O.2   108  LEU108     -0.2718
     85  CB        79.2330   34.0200   92.1110 C.3   108  LEU108      0.0284
     86  CG        78.8890   34.9520   90.9490 C.3   108  LEU108      0.0019
     87  CD1       79.5260   36.2960   91.1070 C.3   108  LEU108      0.0001
     88  CD2       79.3550   34.3180   89.6780 C.3   108  LEU108      0.0001
     89  N         77.9560   34.4570   95.3540 N.am  109  VAL109     -0.1966
     90  CA        77.2740   33.7350   96.4280 C.3   109  VAL109      0.1727
     91  C         75.7910   33.5940   96.1460 C.2   109  VAL109      0.2617
     92  O         75.1100   34.5910   95.9490 O.2   109  VAL109     -0.2715
     93  CB        77.4290   34.4640   97.7670 C.3   109  VAL109      0.0290
     94  CG1       76.6670   33.7470   98.8440 C.3   109  VAL109      0.0023
     95  CG2       78.8680   34.5550   98.1270 C.3   109  VAL109      0.0023
     96  N         75.2780   32.3690   96.1320 N.am  110  SER110     -0.1936
     97  CA        73.8500   32.1700   95.8750 C.3   110  SER110      0.2055
     98  C         73.1330   31.4970   97.0400 C.2   110  SER110      0.2643
     99  O         73.5050   31.6600   98.1990 O.2   110  SER110     -0.2714
    100  CB        73.6410   31.3210   94.6270 C.3   110  SER110      0.2130
    101  OG        73.9790   29.9750   94.8870 O.3   110  SER110     -0.2179
    102  N         72.0830   30.7540   96.7160 N.am  111  ASP111     -0.1957
    103  CA        71.3170   30.0280   97.7160 C.3   111  ASP111      0.1840
    104  C         71.7340   28.5630   97.6000 C.2   111  ASP111      0.2622
    105  O         72.1280   28.1090   96.5220 O.2   111  ASP111     -0.2715
    106  CB        69.8160   30.1990   97.4620 C.3   111  ASP111      0.1450
    107  CG        69.2980   31.5810   97.8820 C.2   111  ASP111      0.3671
    108  OD1       69.3720   31.8980   99.0910 O.co2 111  ASP111     -0.2456
    109  OD2       68.8140   32.3490   97.0130 O.co2 111  ASP111     -0.2456
    110  N         71.6540   27.8360   98.7110 N.am  112  TYR112     -0.1960
    111  CA        72.0580   26.4250   98.7890 C.3   112  TYR112      0.1771
    112  C         70.8890   25.4390   98.7210 C.2   112  TYR112      0.2620
    113  O         69.9210   25.5370   99.4840 O.2   112  TYR112     -0.2715
    114  CB        72.8290   26.2160  100.0930 C.3   112  TYR112      0.0574
    115  CG        73.3010   24.8100  100.3910 C.ar  112  TYR112     -0.0198
    116  CD1       74.3870   24.2630   99.7230 C.ar  112  TYR112     -0.0009
    117  CD2       72.7180   24.0650  101.4100 C.ar  112  TYR112     -0.0009
    118  CE1       74.8890   23.0200  100.0720 C.ar  112  TYR112      0.0417
    119  CE2       73.2080   22.8280  101.7580 C.ar  112  TYR112      0.0417
    120  CZ        74.2950   22.3140  101.0920 C.ar  112  TYR112      0.1957
    121  OH        74.8110   21.1020  101.4770 O.3   112  TYR112     -0.2866
    122  N         70.9910   24.4820   97.8080 N.am  113  HIS113     -0.1959
    123  CA        69.9560   23.4760   97.6440 C.3   113  HIS113      0.1787
    124  C         70.5860   22.1100   97.8730 C.2   113  HIS113      0.2620
    125  O         71.2100   21.5540   96.9800 O.2   113  HIS113     -0.2715
    126  CB        69.3690   23.5550   96.2350 C.3   113  HIS113      0.0785
    127  CG        68.7780   24.8890   95.8940 C.ar  113  HIS113      0.0821
    128  ND1       67.7750   25.4730   96.6380 N.ar  113  HIS113     -0.2267
    129  CD2       69.0400   25.7480   94.8810 C.ar  113  HIS113      0.1154
    130  CE1       67.4450   26.6330   96.1000 C.ar  113  HIS113      0.1986
    131  NE2       68.1980   26.8250   95.0320 N.ar  113  HIS113     -0.2212
    132  N         70.4260   21.5800   99.0780 N.am  114  GLU114     -0.1977
    133  CA        70.9880   20.2830   99.4360 C.3   114  GLU114      0.1602
    134  C         71.0550   19.2940   98.2830 C.2   114  GLU114      0.2287
    135  O         72.1210   18.7730   97.9700 O.2   114  GLU114     -0.2864
    136  CB        70.1740   19.6560  100.5720 C.3   114  GLU114      0.0415
    137  CG        70.7260   18.3320  101.1510 C.3   114  GLU114      0.1163
    138  CD        70.6230   17.1240  100.2020 C.2   114  GLU114      0.3649
    139  OE1       71.6010   16.8600   99.4570 O.co2 114  GLU114     -0.2457
    140  OE2       69.5680   16.4370  100.2060 O.co2 114  GLU114     -0.2457
    141  N         71.3230   19.3150   95.1080 N.3   116  GLY116     -0.1210
    142  CA        72.3250   19.4220   94.0640 C.3   116  GLY116      0.1956
    143  C         71.7390   19.4870   92.6670 C.2   116  GLY116      0.2612
    144  O         70.5600   19.8130   92.4810 O.2   116  GLY116     -0.2717
    145  N         72.5680   19.1630   91.6800 N.am  117  SER117     -0.1952
    146  CA        72.1490   19.2030   90.2880 C.3   117  SER117      0.1924
    147  C         71.3080   18.0070   89.9230 C.2   117  SER117      0.2314
    148  O         71.3280   16.9880   90.6060 O.2   117  SER117     -0.2863
    149  CB        73.3570   19.2190   89.3630 C.3   117  SER117      0.2116
    150  OG        73.9300   17.9300   89.2800 O.3   117  SER117     -0.2180
    151  N         71.5220   22.2920   80.6250 N.3   165  LYS165     -0.1245
    152  CA        71.7950   20.8640   80.7320 C.3   165  LYS165      0.1561
    153  C         71.5440   20.3110   82.1230 C.2   165  LYS165      0.2260
    154  O         71.4200   21.0530   83.0900 O.2   165  LYS165     -0.2867
    155  CB        73.2240   20.5410   80.2920 C.3   165  LYS165      0.0271
    156  CG        74.3120   20.8460   81.2940 C.3   165  LYS165      0.0035
    157  CD        75.6750   20.4960   80.6910 C.3   165  LYS165      0.0206
    158  CE        76.8130   20.6880   81.6770 C.3   165  LYS165      0.1093
    159  NZ        78.0970   20.2100   81.1040 N.3   165  LYS165     -0.1314
    160  N         73.1720   19.2460   84.3920 N.3   167  LYS167     -0.1231
    161  CA        74.0750   19.6270   85.4700 C.3   167  LYS167      0.1693
    162  C         73.8670   21.0560   85.9580 C.2   167  LYS167      0.2592
    163  O         74.1210   21.3680   87.1170 O.2   167  LYS167     -0.2718
    164  CB        75.5130   19.4500   85.0030 C.3   167  LYS167      0.0285
    165  CG        75.8070   18.0490   84.5110 C.3   167  LYS167      0.0035
    166  CD        77.2790   17.8910   84.1990 C.3   167  LYS167      0.0206
    167  CE        77.6490   16.4470   83.9350 C.3   167  LYS167      0.1093
    168  NZ        79.1180   16.3110   83.7650 N.3   167  LYS167     -0.1314
    169  N         73.3980   21.9240   85.0720 N.am  168  ASN168     -0.1974
    170  CA        73.1790   23.3110   85.4340 C.3   168  ASN168      0.1688
    171  C         71.7730   23.5600   85.9310 C.2   168  ASN168      0.2292
    172  O         71.3170   24.6970   86.0050 O.2   168  ASN168     -0.2864
    173  CB        73.4920   24.2040   84.2450 C.3   168  ASN168      0.1181
    174  CG        74.8930   23.9920   83.7350 C.2   168  ASN168      0.2629
    175  OD1       75.8220   23.8140   84.5230 O.2   168  ASN168     -0.2716
    176  ND2       75.0610   24.0100   82.4190 N.am  168  ASN168     -0.0877
    177  N         69.2910   22.8790   89.1640 N.3   170  LEU170     -0.1245
    178  CA        69.3110   22.4730   90.5670 C.3   170  LEU170      0.1561
    179  C         67.9070   22.1750   91.0030 C.2   170  LEU170      0.2260
    180  O         66.9680   22.8160   90.5410 O.2   170  LEU170     -0.2867
    181  CB        69.8600   23.5890   91.4550 C.3   170  LEU170      0.0270
    182  CG        71.1520   24.2950   91.0440 C.3   170  LEU170      0.0019
    183  CD1       71.2880   25.5250   91.9060 C.3   170  LEU170      0.0001
    184  CD2       72.3640   23.3810   91.1720 C.3   170  LEU170      0.0001
    185  N         70.3090   27.5780   86.4440 N.3   180  ALA180     -0.1231
    186  CA        71.4860   28.0840   87.1140 C.3   180  ALA180      0.1694
    187  C         72.6770   28.0740   86.1740 C.2   180  ALA180      0.2592
    188  O         72.6480   27.4270   85.1290 O.2   180  ALA180     -0.2718
    189  CB        71.7740   27.2390   88.3370 C.3   180  ALA180      0.0304
    190  N         73.7160   28.8160   86.5410 N.am  181  ASP181     -0.1974
    191  CA        74.9230   28.8450   85.7370 C.3   181  ASP181      0.1709
    192  C         74.7230   29.6680   84.4620 C.2   181  ASP181      0.2293
    193  O         74.9860   29.1910   83.3580 O.2   181  ASP181     -0.2864
    194  CB        75.2950   27.4010   85.3970 C.3   181  ASP181      0.1436
    195  CG        76.7520   27.2320   85.0940 C.2   181  ASP181      0.3671
    196  OD1       77.1840   27.7290   84.0270 O.co2 181  ASP181     -0.2456
    197  OD2       77.4550   26.6030   85.9300 O.co2 181  ASP181     -0.2456
@<TRIPOS>BOND
     1   155   152    1
     2   155   156    1
     3   151   152    1
     4   157   156    1
     5   157   158    1
     6   152   153    1
     7   159   158    1
     8   153   154    2
     9   176   174   am
    10   193   192    2
    11   174   173    1
    12   174   175    2
    13   168   167    1
    14   167   166    1
    15   196   195   ar
    16   166   165    1
    17   173   170    1
    18   160   161    1
    19   192   191    1
    20   165   164    1
    21    41    42    1
    22   164   161    1
    23   169   170    1
    24   169   162   am
    25   195   194    1
    26   195   197   ar
    27   188   187    2
    28   194   191    1
    29   170   171    1
    30     9    10    1
    31   161   162    1
    32    42    45    1
    33    42    43    1
    34   191   190    1
    35    10    13    1
    36    10    11    1
    37    46    45    1
    38    46    47    1
    39   171   172    2
    40   162   163    2
    41    13    14    1
    42   187   190   am
    43   187   186    1
    44   185   186    1
    45    43    44    2
    46    50    51    1
    47    47    49   ar
    48    47    48   ar
    49   186   189    1
    50    11    12    2
    51    14    15   ar
    52    14    16   ar
    53    15    17   ar
    54    58    56   ar
    55    58    60   ar
    56    51    52    1
    57    51    54    1
    58    56    55   ar
    59    40    39    1
    60    61    60    1
    61    60    59   ar
    62    52    53    2
    63    16    18   ar
    64    55    54    1
    65    55    57   ar
    66    17    19   ar
    67    59    57   ar
    68   177   178    1
    69   150   149    1
    70   149   146    1
    71    39    38    1
    72    18    19   ar
    73    88    86    1
    74    38    37    1
    75   147   146    1
    76   147   148    2
    77    62    63    1
    78   146   145    1
    79   180   179    2
    80   178   179    1
    81   178   181    1
    82    66    63    1
    83    66    67    1
    84    86    87    1
    85    86    85    1
    86    37    36    1
    87   182   184    1
    88   182   181    1
    89   182   183    1
    90    63    64    1
    91    65    64    2
    92    69    67    1
    93   145   143   am
    94    67    68    1
    95    76    78   ar
    96    76    75   ar
    97    85    82    1
    98    78    80   ar
    99    74    75    1
   100    74    71    1
   101    36    33    1
   102    75    77   ar
   103   144   143    2
   104    80    79   ar
   105   143   142    1
   106    77    79   ar
   107    25    24    1
   108    20    21    1
   109    35    34    2
   110    70    71    1
   111    82    81    1
   112    82    83    1
   113    71    72    1
   114    34    33    1
   115    33    32    1
   116    24    21    1
   117    24    26    1
   118   142   141    1
   119    21    22    1
   120    83    84    2
   121    83    89   am
   122   100   101    1
   123   100    97    1
   124    72    73    2
   125   129   131   ar
   126   129   127   ar
   127   131   130   ar
   128     4     3    2
   129    89    90    1
   130    22    23    2
   131     3     2    1
   132    97    96    1
   133    97    98    1
   134   127   126    1
   135   127   128   ar
   136    92    91    2
   137   130   128   ar
   138    96    91   am
   139    91    90    1
   140     8     6    1
   141   126   123    1
   142    90    93    1
   143   105   104    2
   144   102    98   am
   145   102   103    1
   146    31    28    1
   147   125   124    2
   148   109   107   ar
   149    98    99    2
   150     2     1    1
   151     2     5    1
   152    30    29    2
   153     6     5    1
   154   106   103    1
   155   106   107    1
   156    29    28    1
   157   104   103    1
   158   104   110   am
   159   123   122    1
   160   123   124    1
   161    93    95    1
   162    93    94    1
   163     5     7    1
   164   122   112   am
   165   124   132   am
   166   107   108   ar
   167    28    27    1
   168   135   134    2
   169   134   133    1
   170   110   111    1
   171   112   111    1
   172   112   113    2
   173   111   114    1
   174   132   133    1
   175   133   136    1
   176   139   138   ar
   177   116   118   ar
   178   116   115   ar
   179   118   120   ar
   180   114   115    1
   181   138   140   ar
   182   138   137    1
   183   115   117   ar
   184   136   137    1
   185   120   121    1
   186   120   119   ar
   187   117   119   ar
