@<TRIPOS>MOLECULE
tmp/3falB00.pdb
 254 243 0 0 0
SMALL
GASTEIGER

@<TRIPOS>ATOM
      1  N         60.2090   39.2430   12.4480 N.3    47  PHE47      -0.1241
      2  CA        60.5740   40.5110   13.0570 C.3    47  PHE47       0.1605
      3  C         59.4030   41.4850   13.0700 C.2    47  PHE47       0.2264
      4  O         59.2420   42.2670   14.0070 O.2    47  PHE47      -0.2867
      5  CB        61.7400   41.1490   12.3090 C.3    47  PHE47       0.0534
      6  CG        62.1530   42.4740   12.8710 C.ar   47  PHE47      -0.0203
      7  CD1       61.9050   43.6460   12.1770 C.ar   47  PHE47      -0.0042
      8  CD2       62.7820   42.5500   14.1050 C.ar   47  PHE47      -0.0042
      9  CE1       62.2860   44.8760   12.7010 C.ar   47  PHE47      -0.0003
     10  CE2       63.1680   43.7750   14.6270 C.ar   47  PHE47      -0.0003
     11  CZ        62.9180   44.9390   13.9290 C.ar   47  PHE47      -0.0000
     12  N         57.2660   40.3120   15.9270 N.3    50  PHE50      -0.1227
     13  CA        57.7550   40.6960   17.2540 C.3    50  PHE50       0.1736
     14  C         57.5460   42.1750   17.5440 C.2    50  PHE50       0.2596
     15  O         57.1410   42.5280   18.6570 O.2    50  PHE50      -0.2718
     16  CB        59.2270   40.3090   17.4920 C.3    50  PHE50       0.0547
     17  CG        59.4310   38.8540   17.7750 C.ar   50  PHE50      -0.0202
     18  CD1       58.7360   38.2320   18.7990 C.ar   50  PHE50      -0.0042
     19  CD2       60.3210   38.0980   17.0170 C.ar   50  PHE50      -0.0042
     20  CE1       58.9120   36.8800   19.0630 C.ar   50  PHE50      -0.0003
     21  CE2       60.5060   36.7430   17.2800 C.ar   50  PHE50      -0.0003
     22  CZ        59.8040   36.1360   18.3070 C.ar   50  PHE50      -0.0000
     23  N         57.8250   43.0320   16.5600 N.am   51  THR51      -0.1953
     24  CA        57.6170   44.4700   16.7410 C.3    51  THR51       0.1897
     25  C         56.1360   44.7870   16.9490 C.2    51  THR51       0.2313
     26  O         55.7930   45.7360   17.6410 O.2    51  THR51      -0.2863
     27  CB        58.1310   45.3280   15.5440 C.3    51  THR51       0.1794
     28  OG1       57.4970   44.9130   14.3220 O.3    51  THR51      -0.2208
     29  CG2       59.6610   45.2390   15.4070 C.3    51  THR51       0.0378
     30  N         53.9220   42.7480   18.4360 N.3    53  LEU53      -0.1231
     31  CA        53.7300   42.3330   19.8200 C.3    53  LEU53       0.1693
     32  C         54.1990   43.4060   20.7780 C.2    53  LEU53       0.2591
     33  O         53.4650   43.8140   21.6870 O.2    53  LEU53      -0.2718
     34  CB        54.5010   41.0500   20.1070 C.3    53  LEU53       0.0284
     35  CG        53.8010   39.7430   19.7640 C.3    53  LEU53       0.0019
     36  CD1       54.6880   38.5730   20.1540 C.3    53  LEU53       0.0001
     37  CD2       52.4530   39.6680   20.4720 C.3    53  LEU53       0.0001
     38  N         55.4260   43.8640   20.5560 N.am   54  ALA54      -0.1980
     39  CA        56.0610   44.8320   21.4390 C.3    54  ALA54       0.1597
     40  C         55.2490   46.1230   21.5170 C.2    54  ALA54       0.2287
     41  O         55.1300   46.7110   22.5800 O.2    54  ALA54      -0.2864
     42  CB        57.4990   45.1140   20.9780 C.3    54  ALA54       0.0319
     43  N         51.9680   46.3170   21.1830 N.3    56  VAL56      -0.1231
     44  CA        50.9040   45.9300   22.0990 C.3    56  VAL56       0.1692
     45  C         51.3490   46.0230   23.5680 C.2    56  VAL56       0.2592
     46  O         50.6210   46.5480   24.4030 O.2    56  VAL56      -0.2718
     47  CB        50.4090   44.5090   21.7900 C.3    56  VAL56       0.0266
     48  CG1       49.5090   43.9990   22.9090 C.3    56  VAL56       0.0020
     49  CG2       49.7160   44.4660   20.4210 C.3    56  VAL56       0.0020
     50  N         52.5530   45.5360   23.8770 N.am   57  SER57      -0.1952
     51  CA        53.0810   45.6010   25.2410 C.3    57  SER57       0.1924
     52  C         53.3000   47.0350   25.7490 C.2    57  SER57       0.2314
     53  O         53.0630   47.3380   26.9330 O.2    57  SER57      -0.2863
     54  CB        54.3810   44.7990   25.3530 C.3    57  SER57       0.2116
     55  OG        54.1570   43.4370   25.0380 O.3    57  SER57      -0.2180
     56  N         61.5760   49.0320   28.2960 N.3    88  ILE88      -0.1245
     57  CA        62.2920   47.7910   28.0600 C.3    88  ILE88       0.1561
     58  C         62.4950   46.9940   29.3540 C.2    88  ILE88       0.2260
     59  O         62.4630   45.7600   29.3560 O.2    88  ILE88      -0.2867
     60  CB        63.6550   48.0170   27.2900 C.3    88  ILE88       0.0252
     61  CG1       64.2070   46.6810   26.8060 C.3    88  ILE88       0.0019
     62  CG2       64.6740   48.7830   28.1420 C.3    88  ILE88       0.0019
     63  CD1       63.2840   45.9990   25.7850 C.3    88  ILE88       0.0001
     64  N         59.1670   45.2580   30.1670 N.3    91  MET91      -0.1230
     65  CA        58.9870   44.1650   29.2080 C.3    91  MET91       0.1702
     66  C         59.8380   42.9550   29.5270 C.2    91  MET91       0.2592
     67  O         59.4090   41.8200   29.3050 O.2    91  MET91      -0.2718
     68  CB        59.2550   44.6270   27.7770 C.3    91  MET91       0.0401
     69  CG        58.2520   45.6370   27.2800 C.3    91  MET91       0.0596
     70  SD        58.6240   46.2630   25.6250 S.3    91  MET91      -0.1393
     71  CE        58.5360   44.7510   24.6640 C.3    91  MET91       0.0692
     72  N         61.0410   43.1970   30.0450 N.am   92  LEU92      -0.1980
     73  CA        61.9110   42.1120   30.4870 C.3    92  LEU92       0.1596
     74  C         61.4230   41.4550   31.7950 C.2    92  LEU92       0.2287
     75  O         61.4640   40.2320   31.9280 O.2    92  LEU92      -0.2864
     76  CB        63.3730   42.5720   30.5650 C.3    92  LEU92       0.0297
     77  CG        63.9500   42.9070   29.1700 C.3    92  LEU92       0.0022
     78  CD1       65.2960   43.5910   29.2460 C.3    92  LEU92       0.0001
     79  CD2       64.0300   41.6760   28.2710 C.3    92  LEU92       0.0001
     80  N         58.2350   41.3190   32.5560 N.3    94  GLU94      -0.1231
     81  CA        57.1160   40.5450   32.0000 C.3    94  GLU94       0.1699
     82  C         57.6020   39.2720   31.3270 C.2    94  GLU94       0.2592
     83  O         56.9600   38.2260   31.4200 O.2    94  GLU94      -0.2718
     84  CB        56.3150   41.3660   30.9820 C.3    94  GLU94       0.0402
     85  CG        55.5060   42.5110   31.5740 C.3    94  GLU94       0.1161
     86  CD        54.4690   42.0590   32.5980 C.2    94  GLU94       0.3649
     87  OE1       54.2740   40.8360   32.7690 O.co2  94  GLU94      -0.2457
     88  OE2       53.8370   42.9360   33.2340 O.co2  94  GLU94      -0.2457
     89  N         58.7400   39.3650   30.6410 N.am   95  THR95      -0.1953
     90  CA        59.3330   38.1990   30.0040 C.3    95  THR95       0.1897
     91  C         59.6900   37.1400   31.0650 C.2    95  THR95       0.2313
     92  O         59.3850   35.9630   30.8990 O.2    95  THR95      -0.2863
     93  CB        60.5790   38.5980   29.1500 C.3    95  THR95       0.1794
     94  OG1       60.1790   39.5190   28.1330 O.3    95  THR95      -0.2208
     95  CG2       61.2080   37.3990   28.4930 C.3    95  THR95       0.0378
     96  N         56.8830   35.2940   32.4180 N.3    98  ARG98      -0.1245
     97  CA        56.2600   34.3560   31.4850 C.3    98  ARG98       0.1563
     98  C         57.1830   33.2540   30.9770 C.2    98  ARG98       0.2260
     99  O         56.8570   32.5400   30.0240 O.2    98  ARG98      -0.2867
    100  CB        55.6130   35.1220   30.3430 C.3    98  ARG98       0.0307
    101  CG        54.5260   36.0400   30.8600 C.3    98  ARG98       0.0489
    102  CD        53.8060   36.8000   29.7690 C.3    98  ARG98       0.2205
    103  NE        52.5300   37.3180   30.2640 N.pl3  98  ARG98      -0.0865
    104  CZ        52.4130   38.4500   30.9480 C.cat  98  ARG98       0.5346
    105  NH1       53.4950   39.1770   31.2090 N.pl3  98  ARG98       0.1354
    106  NH2       51.2230   38.8520   31.3750 N.pl3  98  ARG98       0.1354
    107  N         59.3440   31.4570   26.2770 N.3   106  ILE106     -0.1245
    108  CA        58.5480   32.5210   26.8410 C.3   106  ILE106      0.1561
    109  C         57.2080   32.5390   26.1380 C.2   106  ILE106      0.2260
    110  O         57.1350   32.5110   24.9110 O.2   106  ILE106     -0.2867
    111  CB        59.2190   33.8800   26.6490 C.3   106  ILE106      0.0252
    112  CG1       60.7110   33.7800   26.9880 C.3   106  ILE106      0.0019
    113  CG2       58.5140   34.9330   27.4900 C.3   106  ILE106      0.0019
    114  CD1       61.5060   34.8970   26.4350 C.3   106  ILE106      0.0001
    115  N         53.9130   34.6750   25.4980 N.3   108  PHE108     -0.1227
    116  CA        53.1950   35.9580   25.4900 C.3   108  PHE108      0.1736
    117  C         51.7110   35.7670   25.1030 C.2   108  PHE108      0.2595
    118  O         51.3570   34.8220   24.3900 O.2   108  PHE108     -0.2718
    119  CB        53.7970   36.9200   24.4490 C.3   108  PHE108      0.0547
    120  CG        55.2640   37.2460   24.6390 C.ar  108  PHE108     -0.0202
    121  CD1       55.7150   37.9030   25.7740 C.ar  108  PHE108     -0.0042
    122  CD2       56.1770   36.9610   23.6380 C.ar  108  PHE108     -0.0042
    123  CE1       57.0480   38.2290   25.9240 C.ar  108  PHE108     -0.0003
    124  CE2       57.5220   37.2930   23.7810 C.ar  108  PHE108     -0.0003
    125  CZ        57.9570   37.9230   24.9180 C.ar  108  PHE108     -0.0000
    126  N         50.8570   36.6950   25.5320 N.am  109  LEU109     -0.1980
    127  CA        49.4300   36.6890   25.1700 C.3   109  LEU109      0.1596
    128  C         48.7620   35.3070   25.1620 C.2   109  LEU109      0.2287
    129  O         48.0450   34.9610   24.2120 O.2   109  LEU109     -0.2864
    130  CB        49.1960   37.3740   23.8160 C.3   109  LEU109      0.0297
    131  CG        49.5700   38.8510   23.6920 C.3   109  LEU109      0.0022
    132  CD1       48.8800   39.4670   22.4840 C.3   109  LEU109      0.0001
    133  CD2       49.2030   39.6040   24.9640 C.3   109  LEU109      0.0001
    134  N         63.5790   33.5830   18.3550 N.3   119  PHE119     -0.1241
    135  CA        64.1700   34.9150   18.3680 C.3   119  PHE119      0.1605
    136  C         65.3540   35.0130   17.3900 C.2   119  PHE119      0.2264
    137  O         65.5010   36.0190   16.6840 O.2   119  PHE119     -0.2867
    138  CB        64.5370   35.3610   19.7990 C.3   119  PHE119      0.0534
    139  CG        63.3290   35.4950   20.7170 C.ar  119  PHE119     -0.0203
    140  CD1       62.5170   36.6190   20.6620 C.ar  119  PHE119     -0.0042
    141  CD2       62.9950   34.4810   21.6110 C.ar  119  PHE119     -0.0042
    142  CE1       61.3870   36.7340   21.4880 C.ar  119  PHE119     -0.0003
    143  CE2       61.8730   34.5900   22.4500 C.ar  119  PHE119     -0.0003
    144  CZ        61.0700   35.7170   22.3860 C.ar  119  PHE119     -0.0000
    145  N         67.5580   38.2470   15.6580 N.3   124  LEU124     -0.1245
    146  CA        68.1720   38.7190   16.8990 C.3   124  LEU124      0.1561
    147  C         69.5080   38.0020   17.1790 C.2   124  LEU124      0.2260
    148  O         69.6770   36.8210   16.8690 O.2   124  LEU124     -0.2867
    149  CB        67.2020   38.5610   18.0830 C.3   124  LEU124      0.0270
    150  CG        65.8600   39.3230   17.9910 C.3   124  LEU124      0.0019
    151  CD1       64.9170   38.9970   19.1430 C.3   124  LEU124      0.0001
    152  CD2       66.0810   40.8130   17.9290 C.3   124  LEU124      0.0001
    153  N         72.2950   39.2250   22.7230 N.3   128  PHE128     -0.1227
    154  CA        71.0370   39.7620   23.2270 C.3   128  PHE128      0.1736
    155  C         70.1350   38.6460   23.7930 C.2   128  PHE128      0.2595
    156  O         69.5980   38.7550   24.8930 O.2   128  PHE128     -0.2718
    157  CB        70.3130   40.5250   22.1070 C.3   128  PHE128      0.0547
    158  CG        68.9720   41.0810   22.5050 C.ar  128  PHE128     -0.0202
    159  CD1       68.8810   42.2370   23.2670 C.ar  128  PHE128     -0.0042
    160  CD2       67.7990   40.4510   22.1100 C.ar  128  PHE128     -0.0042
    161  CE1       67.6280   42.7590   23.6400 C.ar  128  PHE128     -0.0003
    162  CE2       66.5550   40.9680   22.4680 C.ar  128  PHE128     -0.0003
    163  CZ        66.4710   42.1260   23.2350 C.ar  128  PHE128     -0.0000
    164  N         69.9640   37.5750   23.0330 N.am  129  ILE129     -0.1980
    165  CA        69.0450   36.5090   23.4190 C.3   129  ILE129      0.1595
    166  C         69.4690   35.8210   24.7160 C.2   129  ILE129      0.2287
    167  O         68.6590   35.6530   25.6360 O.2   129  ILE129     -0.2864
    168  CB        68.9170   35.4690   22.2900 C.3   129  ILE129      0.0276
    169  CG1       68.1890   36.0950   21.0910 C.3   129  ILE129      0.0022
    170  CG2       68.2270   34.2120   22.7870 C.3   129  ILE129      0.0022
    171  CD1       68.4760   35.4200   19.7350 C.3   129  ILE129      0.0001
    172  N         69.0870   37.6770   28.2530 N.3   132  ILE132     -0.1231
    173  CA        67.6720   37.8140   28.6130 C.3   132  ILE132      0.1692
    174  C         67.0940   36.4930   29.0950 C.2   132  ILE132      0.2592
    175  O         66.3520   36.4460   30.0860 O.2   132  ILE132     -0.2718
    176  CB        66.8170   38.3510   27.4680 C.3   132  ILE132      0.0266
    177  CG1       67.1130   39.8300   27.2680 C.3   132  ILE132      0.0019
    178  CG2       65.3200   38.1760   27.7920 C.3   132  ILE132      0.0020
    179  CD1       66.6860   40.3360   25.9300 C.3   132  ILE132      0.0001
    180  N         67.4360   35.4190   28.3950 N.am  133  PHE133     -0.1976
    181  CA        66.9920   34.0980   28.8110 C.3   133  PHE133      0.1639
    182  C         67.6220   33.7110   30.1440 C.2   133  PHE133      0.2290
    183  O         66.9490   33.1850   31.0220 O.2   133  PHE133     -0.2864
    184  CB        67.2390   33.0550   27.7160 C.3   133  PHE133      0.0560
    185  CG        66.0680   32.8860   26.7930 C.ar  133  PHE133     -0.0200
    186  CD1       65.7710   33.8530   25.8440 C.ar  133  PHE133     -0.0042
    187  CD2       65.2390   31.7800   26.8950 C.ar  133  PHE133     -0.0042
    188  CE1       64.6750   33.7060   24.9980 C.ar  133  PHE133     -0.0003
    189  CE2       64.1410   31.6290   26.0540 C.ar  133  PHE133     -0.0003
    190  CZ        63.8630   32.5910   25.1020 C.ar  133  PHE133     -0.0000
    191  N         69.9630   45.7730   24.9760 N.3   214  HIS214     -0.1241
    192  CA        68.8390   45.9310   24.0560 C.3   214  HIS214      0.1621
    193  C         69.1120   47.0590   23.0720 C.2   214  HIS214      0.2264
    194  O         68.8630   46.9060   21.8860 O.2   214  HIS214     -0.2867
    195  CB        67.5240   46.1850   24.8230 C.3   214  HIS214      0.0745
    196  CG        66.3720   46.5730   23.9510 C.ar  214  HIS214      0.0817
    197  ND1       65.8840   47.8580   23.8950 N.ar  214  HIS214     -0.2268
    198  CD2       65.6310   45.8510   23.0710 C.ar  214  HIS214      0.1154
    199  CE1       64.8840   47.9120   23.0290 C.ar  214  HIS214      0.1986
    200  NE2       64.7120   46.7100   22.5190 N.ar  214  HIS214     -0.2212
    201  N         71.2600   45.7010   20.4790 N.3   217  GLN217     -0.1231
    202  CA        70.4950   44.8380   19.5940 C.3   217  GLN217      0.1698
    203  C         69.8000   45.6970   18.5390 C.2   217  GLN217      0.2592
    204  O         69.7220   45.3160   17.3770 O.2   217  GLN217     -0.2718
    205  CB        69.4500   44.0450   20.3980 C.3   217  GLN217      0.0381
    206  CG        68.5100   43.1370   19.5960 C.3   217  GLN217      0.0905
    207  CD        69.2410   42.2560   18.5930 C.2   217  GLN217      0.2608
    208  OE1       69.3710   41.0500   18.7910 O.2   217  GLN217     -0.2717
    209  NE2       69.7310   42.8620   17.5120 N.am  217  GLN217     -0.0878
    210  N         69.3000   46.8580   18.9580 N.am  218  VAL218     -0.1980
    211  CA        68.6020   47.7790   18.0630 C.3   218  VAL218      0.1595
    212  C         69.5190   48.3100   16.9470 C.2   218  VAL218      0.2287
    213  O         69.1540   48.2840   15.7660 O.2   218  VAL218     -0.2864
    214  CB        67.9540   48.9510   18.8500 C.3   218  VAL218      0.0276
    215  CG1       67.4830   50.0800   17.9020 C.3   218  VAL218      0.0022
    216  CG2       66.8020   48.4320   19.7350 C.3   218  VAL218      0.0022
    217  N         70.1880   45.3570   14.3630 N.3   221  LEU221     -0.1245
    218  CA        69.0250   45.2220   13.4970 C.3   221  LEU221      0.1561
    219  C         69.1070   46.2550   12.3750 C.2   221  LEU221      0.2260
    220  O         68.8190   45.9390   11.2200 O.2   221  LEU221     -0.2867
    221  CB        67.7240   45.3730   14.2920 C.3   221  LEU221      0.0270
    222  CG        67.4180   44.1220   15.1150 C.3   221  LEU221      0.0019
    223  CD1       66.2180   44.3310   16.0440 C.3   221  LEU221      0.0001
    224  CD2       67.2310   42.9130   14.1890 C.3   221  LEU221      0.0001
    225  N         62.8790   50.0290   13.5310 N.3   228  LEU228     -0.1245
    226  CA        61.6940   49.9560   14.3580 C.3   228  LEU228      0.1561
    227  C         60.5660   50.7880   13.7470 C.2   228  LEU228      0.2260
    228  O         60.8210   51.8310   13.1370 O.2   228  LEU228     -0.2867
    229  CB        62.0120   50.4640   15.7530 C.3   228  LEU228      0.0270
    230  CG        63.2280   49.7910   16.3800 C.3   228  LEU228      0.0019
    231  CD1       63.6330   50.5250   17.6400 C.3   228  LEU228      0.0001
    232  CD2       62.9280   48.3350   16.6550 C.3   228  LEU228      0.0001
    233  N         57.9290   52.4690   18.4270 N.3   232  LEU232     -0.1245
    234  CA        59.1110   51.8430   18.9930 C.3   232  LEU232      0.1561
    235  C         60.3420   52.7200   18.7760 C.2   232  LEU232      0.2260
    236  O         61.1570   52.8910   19.6800 O.2   232  LEU232     -0.2867
    237  CB        59.3350   50.4570   18.3780 C.3   232  LEU232      0.0270
    238  CG        58.2360   49.4170   18.6200 C.3   232  LEU232      0.0019
    239  CD1       58.7100   48.0430   18.2110 C.3   232  LEU232      0.0001
    240  CD2       57.7590   49.4060   20.0790 C.3   232  LEU232      0.0001
    241  N         62.9890   53.8980   21.4620 N.3   236  TRP236     -0.1241
    242  CA        64.2090   53.0920   21.5300 C.3   236  TRP236      0.1605
    243  C         65.3670   53.5050   20.6190 C.2   236  TRP236      0.2264
    244  O         66.5000   53.0870   20.8380 O.2   236  TRP236     -0.2867
    245  CB        63.8590   51.6190   21.2910 C.3   236  TRP236      0.0550
    246  CG        63.1420   51.0150   22.4480 C.ar  236  TRP236      0.0003
    247  CD1       63.2860   51.3560   23.7700 C.ar  236  TRP236      0.0946
    248  CD2       62.2030   49.9420   22.4140 C.ar  236  TRP236      0.0152
    249  NE1       62.4760   50.5740   24.5500 N.ar  236  TRP236     -0.2442
    250  CE2       61.8030   49.6910   23.7440 C.ar  236  TRP236      0.0810
    251  CE3       61.6610   49.1610   21.3910 C.ar  236  TRP236      0.0012
    252  CZ2       60.8860   48.6930   24.0750 C.ar  236  TRP236      0.0191
    253  CZ3       60.7440   48.1730   21.7190 C.ar  236  TRP236      0.0001
    254  CH2       60.3700   47.9450   23.0490 C.ar  236  TRP236      0.0015
@<TRIPOS>BOND
     1   220   219    2
     2     7     9   ar
     3     7     6   ar
     4     5     6    1
     5     5     2    1
     6   219   218    1
     7     1     2    1
     8     9    11   ar
     9     6     8   ar
    10     2     3    1
    11     3     4    2
    12   228   227    2
    13   218   221    1
    14   218   217    1
    15   225   226    1
    16   227   226    1
    17    11    10   ar
    18     8    10   ar
    19   224   222    1
    20   221   222    1
    21    28    27    1
    22   226   229    1
    23   222   223    1
    24    29    27    1
    25    27    24    1
    26   145   146    1
    27   229   230    1
    28   213   212    2
    29    12    13    1
    30   230   232    1
    31   230   231    1
    32    23    24    1
    33    23    14   am
    34   137   136    2
    35    24    25    1
    36   148   147    2
    37   146   147    1
    38   146   149    1
    39   212   211    1
    40    25    26    2
    41    19    21   ar
    42    19    17   ar
    43    13    16    1
    44    13    14    1
    45    21    22   ar
    46   204   203    2
    47   136   135    1
    48    16    17    1
    49   209   207   am
    50    14    15    2
    51    17    18   ar
    52   215   214    1
    53   152   150    1
    54   150   149    1
    55   150   151    1
    56   211   214    1
    57   211   210    1
    58   239   238    1
    59    22    20   ar
    60   134   135    1
    61   135   138    1
    62   237   238    1
    63   237   234    1
    64   233   234    1
    65    30    31    1
    66   203   210   am
    67   203   202    1
    68   207   208    2
    69   207   206    1
    70   238   240    1
    71   235   234    1
    72   235   236    2
    73    18    20   ar
    74   214   216    1
    75   202   205    1
    76   202   201    1
    77   206   205    1
    78   171   169    1
    79    35    34    1
    80    35    36    1
    81    35    37    1
    82   138   139    1
    83    31    34    1
    84    31    32    1
    85    49    47    1
    86    38    32   am
    87    38    39    1
    88   243   244    2
    89   243   242    1
    90   140   139   ar
    91   140   142   ar
    92   139   141   ar
    93    32    33    2
    94    42    39    1
    95   169   168    1
    96    43    44    1
    97   245   242    1
    98   245   246    1
    99   251   253   ar
   100   251   248   ar
   101    39    40    1
   102   241   242    1
   103   142   144   ar
   104    40    41    2
   105   141   143   ar
   106   253   254   ar
   107    47    44    1
   108    47    48    1
   109   194   193    2
   110    44    45    1
   111   157   158    1
   112   157   154    1
   113   160   162   ar
   114   160   158   ar
   115   168   170    1
   116   168   165    1
   117   144   143   ar
   118   248   246   ar
   119   248   250   ar
   120   246   247   ar
   121   162   163   ar
   122   132   131    1
   123   158   159   ar
   124   200   199   ar
   125   200   198   ar
   126   153   154    1
   127   199   197   ar
   128   164   165    1
   129   164   155   am
   130   254   252   ar
   131   198   196   ar
   132   193   192    1
   133   154   155    1
   134   163   161   ar
   135   159   161   ar
   136   165   166    1
   137    45    50   am
   138    45    46    2
   139   122   124   ar
   140   122   120   ar
   141   131   130    1
   142   131   133    1
   143   250   252   ar
   144   250   249   ar
   145   247   249   ar
   146   124   125   ar
   147   155   156    2
   148   130   127    1
   149    50    51    1
   150   197   196   ar
   151   196   195    1
   152   192   195    1
   153   192   191    1
   154   129   128    2
   155   118   117    2
   156   119   120    1
   157   119   116    1
   158   120   121   ar
   159    71    70    1
   160   166   167    2
   161   110   109    2
   162   125   123   ar
   163   188   190   ar
   164   188   186   ar
   165    55    54    1
   166   190   189   ar
   167   117   116    1
   168   117   126   am
   169   128   127    1
   170   127   126    1
   171    51    54    1
   172    51    52    1
   173   116   115    1
   174    70    69    1
   175    52    53    2
   176   121   123   ar
   177    63    61    1
   178   186   185   ar
   179   179   177    1
   180   189   187   ar
   181   109   108    1
   182   107   108    1
   183   114   112    1
   184   111   108    1
   185   111   112    1
   186   111   113    1
   187   185   187   ar
   188   185   184    1
   189    61    60    1
   190   177   176    1
   191    69    68    1
   192    60    57    1
   193    60    62    1
   194   176   178    1
   195   176   173    1
   196   184   181    1
   197    68    65    1
   198    57    56    1
   199    57    58    1
   200    94    93    1
   201   172   173    1
   202    79    77    1
   203   180   181    1
   204   180   174   am
   205    95    93    1
   206   173   174    1
   207   181   182    1
   208   174   175    2
   209    93    90    1
   210    77    78    1
   211    77    76    1
   212    65    66    1
   213    65    64    1
   214    67    66    2
   215    58    59    2
   216    66    72   am
   217   102   103    1
   218   102   101    1
   219    90    89    1
   220    90    91    1
   221    99    98    2
   222    72    73    1
   223   182   183    2
   224   103   104    2
   225   100   101    1
   226   100    97    1
   227    73    76    1
   228    73    74    1
   229    89    82   am
   230    92    91    2
   231   104   105    1
   232   104   106    1
   233    98    97    1
   234    84    85    1
   235    84    81    1
   236    82    83    2
   237    82    81    1
   238    97    96    1
   239    85    86    1
   240    74    75    2
   241    81    80    1
   242    86    87   ar
   243    86    88   ar
