@<TRIPOS>MOLECULE
tmp/3faxA00.pdb
 149 144 0 0 0
SMALL
GASTEIGER

@<TRIPOS>ATOM
      1  N         15.6020   56.3360   19.9880 N.3   380  PHE380     -0.1241
      2  CA        16.0260   54.9450   20.2610 C.3   380  PHE380      0.1605
      3  C         15.6060   54.4200   21.6440 C.2   380  PHE380      0.2264
      4  O         16.2850   53.5520   22.1970 O.2   380  PHE380     -0.2867
      5  CB        17.5600   54.7680   20.1130 C.3   380  PHE380      0.0534
      6  CG        18.1240   55.2550   18.7910 C.ar  380  PHE380     -0.0203
      7  CD1       17.9760   54.5020   17.6280 C.ar  380  PHE380     -0.0042
      8  CD2       18.8360   56.4500   18.7160 C.ar  380  PHE380     -0.0042
      9  CE1       18.5140   54.9500   16.4020 C.ar  380  PHE380     -0.0003
     10  CE2       19.3740   56.9050   17.4950 C.ar  380  PHE380     -0.0003
     11  CZ        19.2120   56.1540   16.3430 C.ar  380  PHE380     -0.0000
     12  N         25.7910   60.7150   13.9210 N.3   416  MET416     -0.1245
     13  CA        24.6700   61.6310   13.6840 C.3   416  MET416      0.1570
     14  C         25.0470   63.0290   14.1060 C.2   416  MET416      0.2261
     15  O         24.4250   63.6000   14.9850 O.2   416  MET416     -0.2867
     16  CB        23.4120   61.2060   14.4540 C.3   416  MET416      0.0387
     17  CG        22.8870   59.8190   14.1570 C.3   416  MET416      0.0595
     18  SD        22.1910   59.5750   12.5120 S.3   416  MET416     -0.1393
     19  CE        21.4430   57.9650   12.7670 C.3   416  MET416      0.0692
     20  N         29.0420   62.2170   10.7620 N.3   444  GLU444     -0.1245
     21  CA        27.8890   62.0530    9.8820 C.3   444  GLU444      0.1567
     22  C         27.0860   63.3520    9.8840 C.2   444  GLU444      0.2260
     23  O         26.4200   63.6520   10.8720 O.2   444  GLU444     -0.2867
     24  CB        26.9830   60.9360   10.3830 C.3   444  GLU444      0.0388
     25  CG        27.5480   59.5480   10.3690 C.3   444  GLU444      0.1160
     26  CD        26.4620   58.5120   10.6640 C.2   444  GLU444      0.3649
     27  OE1       25.9960   58.4240   11.8310 O.co2 444  GLU444     -0.2457
     28  OE2       26.0630   57.7980    9.7180 O.co2 444  GLU444     -0.2457
     29  N         24.3050   64.2380    8.3070 N.3   446  TRP446     -0.1227
     30  CA        22.9520   64.1160    7.7670 C.3   446  TRP446      0.1737
     31  C         22.0160   65.1870    8.3700 C.2   446  TRP446      0.2595
     32  O         22.0180   65.4190    9.5800 O.2   446  TRP446     -0.2718
     33  CB        22.3630   62.7320    8.0380 C.3   446  TRP446      0.0564
     34  CG        23.2970   61.5600    7.9350 C.ar  446  TRP446      0.0003
     35  CD1       23.4540   60.5770    8.8590 C.ar  446  TRP446      0.0946
     36  CD2       24.1810   61.2390    6.8550 C.ar  446  TRP446      0.0152
     37  NE1       24.3840   59.6640    8.4330 N.ar  446  TRP446     -0.2442
     38  CE2       24.8400   60.0420    7.1990 C.ar  446  TRP446      0.0810
     39  CE3       24.4740   61.8400    5.6280 C.ar  446  TRP446      0.0012
     40  CZ2       25.7800   59.4390    6.3680 C.ar  446  TRP446      0.0191
     41  CZ3       25.4020   61.2440    4.8030 C.ar  446  TRP446      0.0001
     42  CH2       26.0460   60.0510    5.1750 C.ar  446  TRP446      0.0015
     43  N         21.2090   65.8220    7.5290 N.am  447  ARG447     -0.1966
     44  CA        20.2810   66.8730    7.9850 C.3   447  ARG447      0.1729
     45  C         19.1320   66.2930    8.8070 C.2   447  ARG447      0.2616
     46  O         18.0170   66.1030    8.3060 O.2   447  ARG447     -0.2715
     47  CB        19.7250   67.6390    6.7950 C.3   447  ARG447      0.0348
     48  CG        20.7860   68.3380    5.9890 C.3   447  ARG447      0.0492
     49  CD        20.2180   68.9230    4.7240 C.3   447  ARG447      0.2205
     50  NE        21.2840   69.3810    3.8450 N.pl3 447  ARG447     -0.0865
     51  CZ        21.9470   68.6100    2.9850 C.cat 447  ARG447      0.5346
     52  NH1       21.6550   67.3200    2.8520 N.pl3 447  ARG447      0.1354
     53  NH2       22.9090   69.1420    2.2380 N.pl3 447  ARG447      0.1354
     54  N         19.4290   66.0250   10.0730 N.am  448  THR448     -0.1951
     55  CA        18.5270   65.3490   11.0000 C.3   448  THR448      0.1897
     56  C         18.1340   66.2100   12.2050 C.2   448  THR448      0.2313
     57  O         17.3370   65.7630   13.0400 O.2   448  THR448     -0.2863
     58  CB        19.2070   64.0780   11.5550 C.3   448  THR448      0.1794
     59  OG1       20.5600   64.3900   11.9190 O.3   448  THR448     -0.2208
     60  CG2       19.2120   62.9750   10.5110 C.3   448  THR448      0.0378
     61  N         27.6800   61.1790    1.1520 N.3   476  ASP476     -0.1239
     62  CA        26.7230   60.1960    0.6450 C.3   476  ASP476      0.1674
     63  C         26.5050   60.3350   -0.8690 C.2   476  ASP476      0.2266
     64  O         26.0440   59.3970   -1.5190 O.2   476  ASP476     -0.2867
     65  CB        25.3830   60.2480    1.4140 C.3   476  ASP476      0.1410
     66  CG        24.7720   61.6490    1.4890 C.2   476  ASP476      0.3668
     67  OD1       25.5170   62.6550    1.5100 O.co2 476  ASP476     -0.2456
     68  OD2       23.5320   61.7360    1.5570 O.co2 476  ASP476     -0.2456
     69  N         29.1770   58.1510   -2.4800 N.3   479  ARG479     -0.1231
     70  CA        28.6950   56.8180   -2.1290 C.3   479  ARG479      0.1694
     71  C         27.5430   56.3970   -3.0510 C.2   479  ARG479      0.2592
     72  O         27.6590   55.4110   -3.7850 O.2   479  ARG479     -0.2718
     73  CB        28.2430   56.7970   -0.6550 C.3   479  ARG479      0.0321
     74  CG        27.7080   55.4650   -0.1410 C.3   479  ARG479      0.0489
     75  CD        26.7890   55.6540    1.0640 C.3   479  ARG479      0.2205
     76  NE        25.5030   56.2740    0.7180 N.pl3 479  ARG479     -0.0865
     77  CZ        24.6460   56.8020    1.5960 C.cat 479  ARG479      0.5346
     78  NH1       24.9080   56.7950    2.8970 N.pl3 479  ARG479      0.1354
     79  NH2       23.5030   57.3360    1.1790 N.pl3 479  ARG479      0.1354
     80  N         26.4400   57.1470   -3.0150 N.am  480  ASN480     -0.1974
     81  CA        25.2720   56.8370   -3.8530 C.3   480  ASN480      0.1688
     82  C         25.6450   56.7170   -5.3210 C.2   480  ASN480      0.2292
     83  O         25.1790   55.8110   -6.0080 O.2   480  ASN480     -0.2864
     84  CB        24.1760   57.9040   -3.7100 C.3   480  ASN480      0.1181
     85  CG        23.5530   57.9370   -2.3130 C.2   480  ASN480      0.2629
     86  OD1       23.6930   56.9970   -1.5250 O.2   480  ASN480     -0.2716
     87  ND2       22.8690   59.0350   -2.0020 N.am  480  ASN480     -0.0877
     88  N         21.6330   54.0190    1.1430 N.3   486  PHE486     -0.1228
     89  CA        20.3650   54.2590    1.8470 C.3   486  PHE486      0.1721
     90  C         19.6990   55.5440    1.3460 C.2   486  PHE486      0.2437
     91  O         20.3640   56.5680    1.2290 O.2   486  PHE486     -0.2733
     92  CB        20.6240   54.3580    3.3560 C.3   486  PHE486      0.0547
     93  CG        19.3950   54.1960    4.2050 C.ar  486  PHE486     -0.0202
     94  CD1       19.0020   52.9390    4.6410 C.ar  486  PHE486     -0.0042
     95  CD2       18.6460   55.2970    4.5850 C.ar  486  PHE486     -0.0042
     96  CE1       17.8770   52.7820    5.4340 C.ar  486  PHE486     -0.0003
     97  CE2       17.5200   55.1480    5.3770 C.ar  486  PHE486     -0.0003
     98  CZ        17.1350   53.8880    5.8020 C.ar  486  PHE486     -0.0000
     99  N         18.3890   55.4990    1.0420 N.am  487  PRO487     -0.2729
    100  CA        17.4520   54.3830    1.2000 C.3   487  PRO487      0.1401
    101  C         17.3850   53.4350   -0.0040 C.2   487  PRO487      0.2269
    102  O         16.7940   52.3570    0.1050 O.2   487  PRO487     -0.2865
    103  CB        16.1020   55.0920    1.3740 C.3   487  PRO487      0.0296
    104  CG        16.2820   56.4790    0.7570 C.3   487  PRO487      0.0237
    105  CD        17.7340   56.6470    0.3870 C.3   487  PRO487      0.0939
    106  N         25.2180   67.5220   -3.3740 N.3   515  ASN515     -0.1240
    107  CA        24.1510   67.6390   -2.3690 C.3   515  ASN515      0.1653
    108  C         24.4760   68.5880   -1.2040 C.2   515  ASN515      0.2266
    109  O         23.6380   68.7980   -0.3350 O.2   515  ASN515     -0.2867
    110  CB        23.7340   66.2480   -1.8440 C.3   515  ASN515      0.1155
    111  CG        24.8590   65.5180   -1.1050 C.2   515  ASN515      0.2627
    112  OD1       26.0340   65.8630   -1.2190 O.2   515  ASN515     -0.2716
    113  ND2       24.4890   64.5000   -0.3420 N.am  515  ASN515     -0.0877
    114  N         33.6690   58.1190    0.8160 N.3   527  TYR527     -0.1241
    115  CA        33.4380   56.7150    1.1430 C.3   527  TYR527      0.1605
    116  C         32.3870   56.0220    0.2670 C.2   527  TYR527      0.2264
    117  O         31.5430   56.6690   -0.3650 O.2   527  TYR527     -0.2867
    118  CB        33.0880   56.5670    2.6310 C.3   527  TYR527      0.0534
    119  CG        31.6180   56.7280    3.0110 C.ar  527  TYR527     -0.0201
    120  CD1       30.8600   57.7950    2.5560 C.ar  527  TYR527     -0.0009
    121  CD2       31.0120   55.8260    3.8700 C.ar  527  TYR527     -0.0009
    122  CE1       29.5310   57.9420    2.9280 C.ar  527  TYR527      0.0417
    123  CE2       29.7010   55.9620    4.2450 C.ar  527  TYR527      0.0417
    124  CZ        28.9620   57.0210    3.7780 C.ar  527  TYR527      0.1957
    125  OH        27.6500   57.1360    4.1630 O.3   527  TYR527     -0.2866
    126  N         27.6760   50.7010    8.6240 N.3   532  ASP532     -0.1225
    127  CA        26.2380   50.7540    8.3140 C.3   532  ASP532      0.1805
    128  C         25.9590   50.1650    6.9460 C.2   532  ASP532      0.2597
    129  O         26.8160   50.2190    6.0610 O.2   532  ASP532     -0.2718
    130  CB        25.7160   52.2010    8.3260 C.3   532  ASP532      0.1424
    131  CG        25.3800   52.7100    9.7250 C.2   532  ASP532      0.3668
    132  OD1       25.2670   51.9000   10.6740 O.co2 532  ASP532     -0.2456
    133  OD2       25.2110   53.9440    9.8730 O.co2 532  ASP532     -0.2456
    134  N         24.7570   49.6170    6.7710 N.am  533  ASN533     -0.1974
    135  CA        24.2870   49.1720    5.4590 C.3   533  ASN533      0.1688
    136  C         25.0460   47.9390    4.9330 C.2   533  ASN533      0.2292
    137  O         25.8270   47.3380    5.6670 O.2   533  ASN533     -0.2864
    138  CB        24.3310   50.3490    4.4750 C.3   533  ASN533      0.1181
    139  CG        23.6020   51.5710    5.0090 C.2   533  ASN533      0.2629
    140  OD1       22.3930   51.5180    5.2570 O.2   533  ASN533     -0.2716
    141  ND2       24.3270   52.6730    5.1940 N.am  533  ASN533     -0.0877
    142  N         22.3880   45.6590    8.4210 N.3   619  ASP619     -0.1239
    143  CA        22.3870   46.3720    9.6920 C.3   619  ASP619      0.1674
    144  C         22.7920   45.3680   10.7660 C.2   619  ASP619      0.2266
    145  O         21.9450   44.7800   11.4340 O.2   619  ASP619     -0.2867
    146  CB        20.9940   46.9680    9.9540 C.3   619  ASP619      0.1410
    147  CG        20.9750   47.9650   11.1030 C.2   619  ASP619      0.3668
    148  OD1       22.0550   48.3410   11.6070 O.co2 619  ASP619     -0.2456
    149  OD2       19.8650   48.3820   11.4950 O.co2 619  ASP619     -0.2456
@<TRIPOS>BOND
     1    83    82    2
     2    82    81    1
     3    81    84    1
     4    81    80    1
     5    72    71    2
     6    84    85    1
     7   106   107    1
     8    71    80   am
     9    71    70    1
    10    69    70    1
    11   107   110    1
    12   107   108    1
    13    85    87   am
    14    85    86    2
    15    70    73    1
    16   110   111    1
    17    64    63    2
    18   112   111    2
    19   108   109    2
    20   111   113   am
    21    63    62    1
    22    73    74    1
    23   117   116    2
    24    74    75    1
    25   101   102    2
    26   101   100    1
    27   116   115    1
    28   105   104    1
    29   105    99    1
    30    62    61    1
    31    62    65    1
    32    76    75    1
    33    76    77    2
    34   104   103    1
    35   114   115    1
    36    99   100    1
    37    99    90   am
    38    88    89    1
    39   115   118    1
    40    79    77    1
    41   100   103    1
    42    91    90    2
    43    90    89    1
    44    65    66    1
    45    66    67   ar
    46    66    68   ar
    47    77    78    1
    48    89    92    1
    49    53    51    1
    50   120   122   ar
    51   120   119   ar
    52   118   119    1
    53    52    51    1
    54   122   124   ar
    55    51    50    2
    56   119   121   ar
    57    92    93    1
    58   124   125    1
    59   124   123   ar
    60    50    49    1
    61   121   123   ar
    62    93    95   ar
    63    93    94   ar
    64   138   139    1
    65   138   135    1
    66    95    97   ar
    67    94    96   ar
    68    49    48    1
    69    41    42   ar
    70    41    39   ar
    71   136   135    1
    72   136   137    2
    73   139   141   am
    74   139   140    2
    75    42    40   ar
    76    97    98   ar
    77    96    98   ar
    78   135   134    1
    79    39    36   ar
    80    48    47    1
    81   129   128    2
    82    40    38   ar
    83   134   128   am
    84    47    44    1
    85    36    38   ar
    86    36    34   ar
    87   128   127    1
    88    38    37   ar
    89    43    44    1
    90    43    31   am
    91    30    33    1
    92    30    29    1
    93    30    31    1
    94    34    33    1
    95    34    35   ar
    96    44    45    1
    97    46    45    2
    98   127   130    1
    99   127   126    1
   100   130   131    1
   101    31    32    2
   102   142   143    1
   103    37    35   ar
   104    45    54   am
   105   143   146    1
   106   143   144    1
   107    28    26   ar
   108   131   133   ar
   109   131   132   ar
   110    21    22    1
   111    21    24    1
   112    21    20    1
   113    22    23    2
   114   146   147    1
   115    54    55    1
   116    25    24    1
   117    25    26    1
   118    60    58    1
   119    26    27   ar
   120   144   145    2
   121    55    58    1
   122    55    56    1
   123   147   149   ar
   124   147   148   ar
   125    58    59    1
   126    56    57    2
   127    18    19    1
   128    18    17    1
   129    13    12    1
   130    13    14    1
   131    13    16    1
   132    14    15    2
   133    17    16    1
   134    11     9   ar
   135    11    10   ar
   136     9     7   ar
   137    10     8   ar
   138     7     6   ar
   139     8     6   ar
   140     6     5    1
   141     1     2    1
   142     5     2    1
   143     2     3    1
   144     3     4    2
