@<TRIPOS>MOLECULE
tmp/3fazB00.pdb
 135 130 0 0 0
SMALL
GASTEIGER

@<TRIPOS>ATOM
      1  N          1.4690   26.3420   41.7920 N.3    84  HIS84      -0.1241
      2  CA         0.4110   26.1810   40.8170 C.3    84  HIS84       0.1621
      3  C          1.0490   26.0260   39.4570 C.2    84  HIS84       0.2264
      4  O          2.0380   26.6880   39.1370 O.2    84  HIS84      -0.2867
      5  CB        -0.5260   27.3820   40.8260 C.3    84  HIS84       0.0745
      6  CG        -1.2350   27.5950   42.1280 C.ar   84  HIS84       0.0817
      7  ND1       -2.3900   26.9250   42.4620 N.ar   84  HIS84      -0.2268
      8  CD2       -0.9660   28.4240   43.1640 C.ar   84  HIS84       0.1154
      9  CE1       -2.7960   27.3220   43.6550 C.ar   84  HIS84       0.1986
     10  NE2       -1.9520   28.2330   44.1010 N.ar   84  HIS84      -0.2212
     11  N          0.0700   26.9550   36.6010 N.3    86  TYR86      -0.1241
     12  CA         0.0450   28.1410   35.7340 C.3    86  TYR86       0.1605
     13  C          1.2330   29.0530   35.9840 C.2    86  TYR86       0.2264
     14  O          1.5020   29.9540   35.1930 O.2    86  TYR86      -0.2867
     15  CB        -1.2470   28.9410   35.8720 C.3    86  TYR86       0.0534
     16  CG        -1.6070   29.3130   37.2880 C.ar   86  TYR86      -0.0201
     17  CD1       -0.9520   30.3420   37.9460 C.ar   86  TYR86      -0.0009
     18  CD2       -2.6130   28.6380   37.9620 C.ar   86  TYR86      -0.0009
     19  CE1       -1.2760   30.6840   39.2350 C.ar   86  TYR86       0.0417
     20  CE2       -2.9560   28.9740   39.2500 C.ar   86  TYR86       0.0417
     21  CZ        -2.2830   29.9990   39.8840 C.ar   86  TYR86       0.1957
     22  OH        -2.6150   30.3350   41.1720 O.3    86  TYR86      -0.2866
     23  N         -9.5010   25.3180   47.9300 N.3   113  ASN113     -0.1225
     24  CA        -9.1130   26.1840   46.8380 C.3   113  ASN113      0.1785
     25  C        -10.2720   27.1230   46.5760 C.2   113  ASN113      0.2597
     26  O        -11.3340   26.9870   47.1790 O.2   113  ASN113     -0.2718
     27  CB        -8.7590   25.3710   45.5880 C.3   113  ASN113      0.1169
     28  CG        -9.9300   24.5520   45.0730 C.2   113  ASN113      0.2627
     29  OD1      -11.0290   25.0730   44.8810 O.2   113  ASN113     -0.2716
     30  ND2       -9.6990   23.2660   44.8330 N.am  113  ASN113     -0.0877
     31  N        -10.0570   28.0850   45.6920 N.am  114  ALA114     -0.1966
     32  CA       -11.1220   28.9500   45.2300 C.3   114  ALA114      0.1728
     33  C        -11.4970   28.4730   43.8460 C.2   114  ALA114      0.2616
     34  O        -10.6330   28.0680   43.0800 O.2   114  ALA114     -0.2715
     35  CB       -10.6320   30.3880   45.1690 C.3   114  ALA114      0.0334
     36  N        -12.7740   28.5130   43.5100 N.am  115  ALA115     -0.1963
     37  CA       -13.1780   28.0930   42.1850 C.3   115  ALA115      0.1728
     38  C        -14.3390   28.9230   41.6510 C.2   115  ALA115      0.2616
     39  O        -15.0840   29.5390   42.4120 O.2   115  ALA115     -0.2715
     40  CB       -13.5370   26.5970   42.1840 C.3   115  ALA115      0.0334
     41  N        -14.4750   28.9450   40.3330 N.am  116  GLY116     -0.1955
     42  CA       -15.6680   29.4910   39.7260 C.3   116  GLY116      0.1869
     43  C        -16.7680   28.4660   39.8690 C.2   116  GLY116      0.2309
     44  O        -16.5460   27.2650   39.6650 O.2   116  GLY116     -0.2863
     45  N         -8.9110   33.2610   33.4850 N.3   198  TYR198     -0.1227
     46  CA       -10.2330   32.8060   33.8480 C.3   198  TYR198      0.1736
     47  C        -10.8990   32.2710   32.6100 C.2   198  TYR198      0.2595
     48  O        -10.4910   32.5760   31.4890 O.2   198  TYR198     -0.2718
     49  CB       -11.0550   33.9420   34.4190 C.3   198  TYR198      0.0548
     50  CG       -10.5900   34.3170   35.7840 C.ar  198  TYR198     -0.0200
     51  CD1      -10.0260   35.5570   36.0260 C.ar  198  TYR198     -0.0009
     52  CD2      -10.6950   33.4200   36.8370 C.ar  198  TYR198     -0.0009
     53  CE1       -9.5950   35.9040   37.2850 C.ar  198  TYR198      0.0417
     54  CE2      -10.2630   33.7610   38.1080 C.ar  198  TYR198      0.0417
     55  CZ        -9.7110   35.0060   38.3180 C.ar  198  TYR198      0.1957
     56  OH        -9.2770   35.3620   39.5710 O.3   198  TYR198     -0.2866
     57  N        -11.9400   31.4790   32.8180 N.am  199  GLU199     -0.1979
     58  CA       -12.5700   30.7780   31.7300 C.3   199  GLU199      0.1602
     59  C        -13.4790   31.7450   31.0040 C.2   199  GLU199      0.2287
     60  O        -14.1350   32.5700   31.6350 O.2   199  GLU199     -0.2864
     61  CB       -13.3550   29.5780   32.2570 C.3   199  GLU199      0.0415
     62  CG       -12.5190   28.5860   33.0590 C.3   199  GLU199      0.1163
     63  CD       -12.1100   29.1130   34.4290 C.2   199  GLU199      0.3649
     64  OE1      -12.8620   29.9210   35.0110 O.co2 199  GLU199     -0.2457
     65  OE2      -11.0230   28.7250   34.9130 O.co2 199  GLU199     -0.2457
     66  N        -14.8210   25.2140   38.6730 N.3   215  VAL215     -0.1231
     67  CA       -13.5870   25.1930   37.9270 C.3   215  VAL215      0.1692
     68  C        -12.5170   25.9720   38.6510 C.2   215  VAL215      0.2593
     69  O        -12.7580   27.0510   39.1990 O.2   215  VAL215     -0.2718
     70  CB       -13.7890   25.7350   36.4950 C.3   215  VAL215      0.0266
     71  CG1      -14.4830   27.1100   36.5170 C.3   215  VAL215      0.0020
     72  CG2      -12.4600   25.7800   35.7610 C.3   215  VAL215      0.0020
     73  N        -11.3130   25.4240   38.6530 N.am  216  GLY216     -0.1942
     74  CA       -10.1960   26.1290   39.2470 C.3   216  GLY216      0.2014
     75  C         -8.9280   25.7730   38.5140 C.2   216  GLY216      0.2639
     76  O         -8.9600   25.0210   37.5430 O.2   216  GLY216     -0.2714
     77  N         -7.8080   26.2840   38.9920 N.am  217  MET217     -0.1963
     78  CA        -6.5470   26.1060   38.2850 C.3   217  MET217      0.1736
     79  C         -5.5380   25.3500   39.1060 C.2   217  MET217      0.2617
     80  O         -4.3440   25.4060   38.8350 O.2   217  MET217     -0.2715
     81  CB        -5.9650   27.4650   37.9320 C.3   217  MET217      0.0427
     82  CG        -6.9330   28.3570   37.2020 C.3   217  MET217      0.0599
     83  SD        -6.2320   30.0060   37.0270 S.3   217  MET217     -0.1393
     84  CE        -7.6410   30.8380   36.3090 C.3   217  MET217      0.0692
     85  N         -6.0100   24.6490   40.1240 N.am  218  SER218     -0.1950
     86  CA        -5.0950   24.0250   41.0600 C.3   218  SER218      0.1924
     87  C         -5.6340   22.6950   41.5330 C.2   218  SER218      0.2314
     88  O         -6.5540   22.1340   40.9370 O.2   218  SER218     -0.2863
     89  CB        -4.9170   24.9340   42.2680 C.3   218  SER218      0.2116
     90  OG        -6.1400   25.0640   42.9640 O.3   218  SER218     -0.2180
     91  N        -15.7920   31.3780   44.8690 N.3   240  THR240     -0.1203
     92  CA       -15.4090   32.7590   45.0690 C.3   240  THR240      0.1994
     93  C        -16.0210   33.6150   43.9770 C.2   240  THR240      0.2617
     94  O        -15.9810   34.8420   44.0400 O.2   240  THR240     -0.2717
     95  CB       -13.8820   32.9040   45.0480 C.3   240  THR240      0.1784
     96  OG1      -13.3590   32.2950   43.8610 O.3   240  THR240     -0.2211
     97  CG2      -13.2880   32.2150   46.2420 C.3   240  THR240      0.0376
     98  N        -16.5850   32.9570   42.9700 N.am  241  ASN241     -0.1974
     99  CA       -17.3110   33.6600   41.9260 C.3   241  ASN241      0.1688
    100  C        -18.1910   32.7370   41.1190 C.2   241  ASN241      0.2292
    101  O        -17.9340   31.5310   41.0120 O.2   241  ASN241     -0.2864
    102  CB       -16.3670   34.4000   40.9940 C.3   241  ASN241      0.1181
    103  CG       -15.3410   33.4940   40.3900 C.2   241  ASN241      0.2629
    104  OD1      -14.3590   33.1490   41.0360 O.2   241  ASN241     -0.2716
    105  ND2      -15.5590   33.0950   39.1460 N.am  241  ASN241     -0.0877
    106  N        -19.3100   31.7170   37.5900 N.3   243  SER243     -0.1217
    107  CA       -18.8660   31.7710   36.2090 C.3   243  SER243      0.1889
    108  C        -19.9210   32.4070   35.3220 C.2   243  SER243      0.2288
    109  O        -21.1040   32.0700   35.3880 O.2   243  SER243     -0.2866
    110  CB       -18.5480   30.3690   35.6900 C.3   243  SER243      0.2089
    111  OG       -17.8050   29.6390   36.6440 O.3   243  SER243     -0.2183
    112  N        -14.8630   37.5290   36.0520 N.3   253  PRO253     -0.2116
    113  CA       -14.2670   36.8860   37.2220 C.3   253  PRO253      0.1372
    114  C        -13.0290   37.6940   37.5700 C.2   253  PRO253      0.2244
    115  O        -12.3970   38.2190   36.6570 O.2   253  PRO253     -0.2868
    116  CB       -13.8850   35.4930   36.7100 C.3   253  PRO253      0.0268
    117  CG       -13.9750   35.5710   35.2190 C.3   253  PRO253      0.0207
    118  CD       -15.0100   36.5950   34.9270 C.3   253  PRO253      0.0892
    119  N         -9.6650   38.1260   40.5320 N.3   255  HIS255     -0.1241
    120  CA        -8.9610   37.5910   41.6880 C.3   255  HIS255      0.1621
    121  C         -9.3500   38.3580   42.9510 C.2   255  HIS255      0.2264
    122  O         -9.2150   37.8450   44.0680 O.2   255  HIS255     -0.2867
    123  CB        -7.4490   37.6440   41.4570 C.3   255  HIS255      0.0745
    124  CG        -6.6560   36.8510   42.4460 C.ar  255  HIS255      0.0817
    125  ND1       -6.9560   35.5430   42.7640 N.ar  255  HIS255     -0.2268
    126  CD2       -5.5600   37.1730   43.1750 C.ar  255  HIS255      0.1154
    127  CE1       -6.0870   35.0960   43.6520 C.ar  255  HIS255      0.1986
    128  NE2       -5.2310   36.0670   43.9210 N.ar  255  HIS255     -0.2212
    129  N        -12.2520   36.8400   44.4990 N.3   258  VAL258     -0.1245
    130  CA       -11.7280   35.5750   44.9970 C.3   258  VAL258      0.1561
    131  C        -11.2000   35.7650   46.4160 C.2   258  VAL258      0.2260
    132  O        -11.5640   35.0310   47.3320 O.2   258  VAL258     -0.2867
    133  CB       -10.6030   35.0330   44.0880 C.3   258  VAL258      0.0252
    134  CG1       -9.9020   33.8470   44.7380 C.3   258  VAL258      0.0019
    135  CG2      -11.1560   34.6650   42.7140 C.3   258  VAL258      0.0019
@<TRIPOS>BOND
     1    59    60    2
     2    59    58    1
     3    48    47    2
     4    58    61    1
     5    58    57    1
     6    61    62    1
     7    47    57   am
     8    47    46    1
     9    62    63    1
    10    45    46    1
    11    46    49    1
    12    49    50    1
    13    63    65   ar
    14    63    64   ar
    15   118   117    1
    16   118   112    1
    17    14    13    2
    18   117   116    1
    19   108   109    2
    20   108   107    1
    21   110   107    1
    22   110   111    1
    23    12    15    1
    24    12    13    1
    25    12    11    1
    26    72    70    1
    27    50    51   ar
    28    50    52   ar
    29    15    16    1
    30    51    53   ar
    31   112   113    1
    32   107   106    1
    33    84    83    1
    34    70    71    1
    35    70    67    1
    36   115   114    2
    37   116   113    1
    38    52    54   ar
    39    83    82    1
    40    82    81    1
    41   113   114    1
    42    53    55   ar
    43    16    17   ar
    44    16    18   ar
    45    76    75    2
    46    67    68    1
    47    67    66    1
    48    81    78    1
    49    17    19   ar
    50    18    20   ar
    51    54    55   ar
    52    78    77    1
    53    78    79    1
    54    55    56    1
    55    75    77   am
    56    75    74    1
    57    68    73   am
    58    68    69    2
    59    73    74    1
    60    80    79    2
    61    79    85   am
    62     4     3    2
    63   105   103   am
    64    19    21   ar
    65    20    21   ar
    66     3     2    1
    67    44    43    2
    68    42    43    1
    69    42    41    1
    70    21    22    1
    71    85    86    1
    72    41    38   am
    73   103   102    1
    74   103   104    2
    75   119   120    1
    76     2     5    1
    77     2     1    1
    78     5     6    1
    79    88    87    2
    80   102    99    1
    81   101   100    2
    82    86    87    1
    83    86    89    1
    84   100    99    1
    85   123   120    1
    86   123   124    1
    87    38    37    1
    88    38    39    2
    89   120   121    1
    90    99    98    1
    91     6     7   ar
    92     6     8   ar
    93    40    37    1
    94    37    36    1
    95    89    90    1
    96   124   125   ar
    97   124   126   ar
    98     7     9   ar
    99   135   133    1
   100   125   127   ar
   101   121   122    2
   102    98    93   am
   103    34    33    2
   104     8    10   ar
   105   126   128   ar
   106    36    33   am
   107   127   128   ar
   108     9    10   ar
   109    33    32    1
   110    96    95    1
   111    93    94    2
   112    93    92    1
   113   133   134    1
   114   133   130    1
   115   129   130    1
   116    30    28   am
   117    91    92    1
   118    29    28    2
   119   130   131    1
   120    95    92    1
   121    95    97    1
   122    28    27    1
   123    35    32    1
   124    32    31    1
   125    27    24    1
   126    31    25   am
   127   131   132    2
   128    25    24    1
   129    25    26    2
   130    24    23    1
