@<TRIPOS>MOLECULE
tmp/3fb1C00.pdb
 122 116 0 0 0
SMALL
GASTEIGER

@<TRIPOS>ATOM
      1  N         20.3250   36.0800    8.7990 N.3    32  GLY32      -0.1210
      2  CA        20.2150   34.6340    8.8000 C.3    32  GLY32       0.1956
      3  C         20.5020   34.0170    7.4440 C.2    32  GLY32       0.2612
      4  O         20.7800   34.7290    6.4820 O.2    32  GLY32      -0.2717
      5  N         20.4390   32.6870    7.3800 N.am   33  SER33      -0.1952
      6  CA        20.8260   31.9260    6.1900 C.3    33  SER33       0.1924
      7  C         20.0720   32.3440    4.9290 C.2    33  SER33       0.2314
      8  O         18.8380   32.3150    4.8950 O.2    33  SER33      -0.2863
      9  CB        20.6570   30.4240    6.4310 C.3    33  SER33       0.2116
     10  OG        21.6920   29.9330    7.2650 O.3    33  SER33      -0.2180
     11  N         26.9070   35.0780   10.9560 N.3    84  ARG84      -0.1245
     12  CA        26.6740   34.8280   12.3650 C.3    84  ARG84       0.1563
     13  C         27.4120   33.5860   12.8440 C.2    84  ARG84       0.2260
     14  O         28.0630   32.8850   12.0660 O.2    84  ARG84      -0.2867
     15  CB        25.1790   34.7620   12.7010 C.3    84  ARG84       0.0307
     16  CG        24.3260   33.9680   11.7500 C.3    84  ARG84       0.0489
     17  CD        23.3610   33.0850   12.5270 C.3    84  ARG84       0.2205
     18  NE        22.5340   33.8180   13.4790 N.pl3  84  ARG84      -0.0865
     19  CZ        21.3090   34.2500   13.2040 C.cat  84  ARG84       0.5346
     20  NH1       20.7830   34.0350   12.0080 N.pl3  84  ARG84       0.1354
     21  NH2       20.6170   34.9090   14.1090 N.pl3  84  ARG84       0.1354
     22  N         27.0340   30.0930   14.7190 N.3    86  HIS86      -0.1241
     23  CA        26.0950   29.0730   15.1220 C.3    86  HIS86       0.1621
     24  C         26.7710   28.1380   16.0900 C.2    86  HIS86       0.2264
     25  O         27.8990   27.6940   15.8560 O.2    86  HIS86      -0.2867
     26  CB        25.6330   28.2950   13.9020 C.3    86  HIS86       0.0745
     27  CG        24.9270   29.1360   12.8880 C.ar   86  HIS86       0.0817
     28  ND1       25.5880   29.7720   11.8580 N.ar   86  HIS86      -0.2268
     29  CD2       23.6190   29.4520   12.7500 C.ar   86  HIS86       0.1154
     30  CE1       24.7140   30.4350   11.1240 C.ar   86  HIS86       0.1986
     31  NE2       23.5130   30.2580   11.6450 N.ar   86  HIS86      -0.2212
     32  N         26.2250   25.1120   16.6390 N.3    88  TYR88      -0.1241
     33  CA        26.4800   23.7620   16.1560 C.3    88  TYR88       0.1605
     34  C         27.8610   23.7190   15.5080 C.2    88  TYR88       0.2264
     35  O         28.4200   22.6530   15.2980 O.2    88  TYR88      -0.2867
     36  CB        25.3990   23.2890   15.1850 C.3    88  TYR88       0.0534
     37  CG        25.1890   24.2240   14.0180 C.ar   88  TYR88      -0.0201
     38  CD1       26.1420   24.3350   13.0180 C.ar   88  TYR88      -0.0009
     39  CD2       24.0330   24.9850   13.9120 C.ar   88  TYR88      -0.0009
     40  CE1       25.9630   25.1930   11.9480 C.ar   88  TYR88       0.0417
     41  CE2       23.8380   25.8440   12.8430 C.ar   88  TYR88       0.0417
     42  CZ        24.8090   25.9370   11.8610 C.ar   88  TYR88       0.1957
     43  OH        24.6380   26.7830   10.7980 O.3    88  TYR88      -0.2866
     44  N         16.4150   34.6790   10.8010 N.3   115  ASN115     -0.1225
     45  CA        16.9640   33.3530   10.6700 C.3   115  ASN115      0.1785
     46  C         16.1410   32.5540    9.6820 C.2   115  ASN115      0.2597
     47  O         15.0290   32.9440    9.3160 O.2   115  ASN115     -0.2718
     48  CB        17.0310   32.6500   12.0400 C.3   115  ASN115      0.1169
     49  CG        15.6600   32.4300   12.6500 C.2   115  ASN115      0.2627
     50  OD1       14.7640   31.8590   12.0140 O.2   115  ASN115     -0.2716
     51  ND2       15.4850   32.8820   13.8900 N.am  115  ASN115     -0.0877
     52  N         16.6980   31.4300    9.2600 N.am  116  ALA116     -0.1979
     53  CA        15.9860   30.4930    8.4300 C.3   116  ALA116      0.1597
     54  C         15.4530   29.4650    9.3910 C.2   116  ALA116      0.2287
     55  O         16.2040   28.9340   10.1980 O.2   116  ALA116     -0.2864
     56  CB        16.9390   29.8480    7.4240 C.3   116  ALA116      0.0319
     57  N          9.7160   30.4530   18.5800 N.3   192  TYR192     -0.1241
     58  CA        10.8570   29.8260   17.9480 C.3   192  TYR192      0.1605
     59  C         11.5270   28.9400   18.9660 C.2   192  TYR192      0.2264
     60  O         11.8250   29.3640   20.0870 O.2   192  TYR192     -0.2867
     61  CB        11.8320   30.9100   17.4950 C.3   192  TYR192      0.0534
     62  CG        13.1480   30.4440   16.9190 C.ar  192  TYR192     -0.0201
     63  CD1       14.2070   30.0740   17.7470 C.ar  192  TYR192     -0.0009
     64  CD2       13.3530   30.4250   15.5380 C.ar  192  TYR192     -0.0009
     65  CE1       15.4290   29.6830   17.2100 C.ar  192  TYR192      0.0417
     66  CE2       14.5630   30.0390   14.9960 C.ar  192  TYR192      0.0417
     67  CZ        15.5960   29.6620   15.8300 C.ar  192  TYR192      0.1957
     68  OH        16.8010   29.2720   15.2830 O.3   192  TYR192     -0.2866
     69  N         18.8650   18.5990   10.9320 N.3   200  TYR200     -0.1241
     70  CA        17.4580   18.9240   10.8880 C.3   200  TYR200      0.1605
     71  C         16.6940   18.0290   11.8610 C.2   200  TYR200      0.2264
     72  O         17.1790   16.9710   12.2780 O.2   200  TYR200     -0.2867
     73  CB        16.9140   18.8100    9.4600 C.3   200  TYR200      0.0534
     74  CG        17.4570   19.9150    8.5970 C.ar  200  TYR200     -0.0201
     75  CD1       18.3290   19.6480    7.5450 C.ar  200  TYR200     -0.0009
     76  CD2       17.1460   21.2410    8.8740 C.ar  200  TYR200     -0.0009
     77  CE1       18.8320   20.6670    6.7650 C.ar  200  TYR200      0.0417
     78  CE2       17.6500   22.2650    8.1020 C.ar  200  TYR200      0.0417
     79  CZ        18.4940   21.9740    7.0500 C.ar  200  TYR200      0.1957
     80  OH        18.9870   23.0060    6.2850 O.3   200  TYR200     -0.2866
     81  N         14.8030   26.3870   14.5840 N.3   218  GLY218     -0.1210
     82  CA        16.0710   26.6420   13.9310 C.3   218  GLY218      0.1956
     83  C         17.2000   26.5010   14.9240 C.2   218  GLY218      0.2612
     84  O         16.9960   26.0580   16.0630 O.2   218  GLY218     -0.2717
     85  N         18.3930   26.8960   14.5000 N.am  219  MET219     -0.1965
     86  CA        19.5930   26.5630   15.2340 C.3   219  MET219      0.1736
     87  C         20.3900   27.7760   15.6160 C.2   219  MET219      0.2617
     88  O         21.5850   27.6820   15.8680 O.2   219  MET219     -0.2715
     89  CB        20.4620   25.6450   14.3940 C.3   219  MET219      0.0427
     90  CG        19.6900   24.4520   13.8150 C.3   219  MET219      0.0599
     91  SD        20.6810   23.6630   12.5400 S.3   219  MET219     -0.1393
     92  CE        19.5200   22.4810   11.8580 C.3   219  MET219      0.0692
     93  N         19.7310   28.9210   15.6610 N.am  220  SER220     -0.1950
     94  CA        20.4540   30.1400   15.9170 C.3   220  SER220      0.1924
     95  C         19.5940   31.0680   16.7560 C.2   220  SER220      0.2314
     96  O         18.5860   30.6560   17.3230 O.2   220  SER220     -0.2863
     97  CB        20.7740   30.8140   14.5850 C.3   220  SER220      0.2116
     98  OG        19.5830   31.3920   14.0650 O.3   220  SER220     -0.2180
     99  N         11.7950   28.4720    5.9340 N.3   242  THR242     -0.1218
    100  CA        12.5540   28.0410    4.7750 C.3   242  THR242      0.1862
    101  C         12.3170   26.5790    4.4750 C.2   242  THR242      0.2287
    102  O         12.8360   26.0420    3.5070 O.2   242  THR242     -0.2866
    103  CB        14.0300   28.3090    4.9590 C.3   242  THR242      0.1770
    104  OG1       14.4670   27.7170    6.1880 O.3   242  THR242     -0.2211
    105  CG2       14.2610   29.8170    5.0040 C.3   242  THR242      0.0375
    106  N         19.6530   22.1680    3.2030 N.3   257  HIS257     -0.1241
    107  CA        20.0240   23.5690    3.3520 C.3   257  HIS257      0.1621
    108  C         19.9500   24.3210    2.0210 C.2   257  HIS257      0.2264
    109  O         19.7840   25.5400    1.9990 O.2   257  HIS257     -0.2867
    110  CB        21.4120   23.7050    3.9630 C.3   257  HIS257      0.0745
    111  CG        21.7690   25.1110    4.3150 C.ar  257  HIS257      0.0817
    112  ND1       21.0120   25.8760    5.1760 N.ar  257  HIS257     -0.2268
    113  CD2       22.8010   25.8950    3.9220 C.ar  257  HIS257      0.1154
    114  CE1       21.5650   27.0690    5.3050 C.ar  257  HIS257      0.1986
    115  NE2       22.6510   27.1070    4.5540 N.ar  257  HIS257     -0.2212
    116  N         16.5880   25.6820    1.6790 N.3   260  VAL260     -0.1245
    117  CA        16.5620   26.7470    2.6620 C.3   260  VAL260      0.1561
    118  C         17.1490   27.9920    2.0230 C.2   260  VAL260      0.2260
    119  O         16.5600   29.0710    2.0820 O.2   260  VAL260     -0.2867
    120  CB        17.3710   26.3770    3.9210 C.3   260  VAL260      0.0252
    121  CG1       17.6080   27.6120    4.7850 C.3   260  VAL260      0.0019
    122  CG2       16.6500   25.2890    4.6990 C.3   260  VAL260      0.0019
@<TRIPOS>BOND
     1   116   117    1
     2   109   108    2
     3   108   107    1
     4   118   119    2
     5   118   117    1
     6   117   120    1
     7   106   107    1
     8   107   110    1
     9   102   101    2
    10   120   122    1
    11   120   121    1
    12   113   111   ar
    13   113   115   ar
    14   110   111    1
    15   111   112   ar
    16   101   100    1
    17   115   114   ar
    18   100   103    1
    19   100    99    1
    20     8     7    2
    21     7     6    1
    22   103   105    1
    23   103   104    1
    24   112   114   ar
    25     6     9    1
    26     6     5    1
    27    80    79    1
    28     9    10    1
    29     4     3    2
    30    77    79   ar
    31    77    75   ar
    32    79    78   ar
    33     5     3   am
    34    56    53    1
    35     3     2    1
    36    75    74   ar
    37    78    76   ar
    38    53    52    1
    39    53    54    1
    40    74    76   ar
    41    74    73    1
    42     1     2    1
    43    52    46   am
    44    47    46    2
    45    54    55    2
    46    73    70    1
    47    46    45    1
    48    45    44    1
    49    45    48    1
    50    43    42    1
    51    70    69    1
    52    70    71    1
    53    11    12    1
    54    30    31   ar
    55    30    28   ar
    56    31    29   ar
    57    16    17    1
    58    16    15    1
    59    92    91    1
    60    28    27   ar
    61    71    72    2
    62    42    40   ar
    63    42    41   ar
    64    40    38   ar
    65    20    19    1
    66    50    49    2
    67    48    49    1
    68    14    13    2
    69    12    15    1
    70    12    13    1
    71    17    18    1
    72    91    90    1
    73    49    51   am
    74    29    27   ar
    75    41    39   ar
    76    27    26    1
    77    38    37   ar
    78    19    18    2
    79    19    21    1
    80    90    89    1
    81    26    23    1
    82    39    37   ar
    83    82    81    1
    84    82    83    1
    85    37    36    1
    86    98    97    1
    87    89    86    1
    88    85    83   am
    89    85    86    1
    90    97    94    1
    91    22    23    1
    92    83    84    2
    93    66    64   ar
    94    66    67   ar
    95    23    24    1
    96    36    33    1
    97    86    87    1
    98    68    67    1
    99    35    34    2
   100    34    33    1
   101    64    62   ar
   102    87    93   am
   103    87    88    2
   104    93    94    1
   105    67    65   ar
   106    25    24    2
   107    94    95    1
   108    33    32    1
   109    95    96    2
   110    62    61    1
   111    62    63   ar
   112    65    63   ar
   113    61    58    1
   114    58    57    1
   115    58    59    1
   116    59    60    2
