@<TRIPOS>MOLECULE
tmp/3fbaA00.pdb
 78 76 0 0 0
SMALL
GASTEIGER

@<TRIPOS>ATOM
      1  N         99.5950   51.2220  131.7530 N.3   102  ALA102     -0.1231
      2  CA       100.9630   50.8730  131.4220 C.3   102  ALA102      0.1694
      3  C        101.2440   49.4850  131.9520 C.2   102  ALA102      0.2592
      4  O        100.7980   49.1340  133.0520 O.2   102  ALA102     -0.2718
      5  CB       101.9190   51.8640  132.0350 C.3   102  ALA102      0.0304
      6  N        101.9660   48.6930  131.1610 N.am  103  GLN103     -0.1966
      7  CA       102.3930   47.3640  131.5910 C.3   103  GLN103      0.1733
      8  C        103.4390   47.4960  132.6860 C.2   103  GLN103      0.2616
      9  O        103.4040   46.7700  133.6740 O.2   103  GLN103     -0.2715
     10  CB       102.9450   46.5640  130.4130 C.3   103  GLN103      0.0408
     11  CG       103.0830   45.0820  130.6800 C.3   103  GLN103      0.0908
     12  CD       101.7770   44.4130  131.0900 C.2   103  GLN103      0.2608
     13  OE1      100.6910   44.7860  130.6460 O.2   103  GLN103     -0.2717
     14  NE2      101.8860   43.4070  131.9360 N.am  103  GLN103     -0.0878
     15  N        104.3560   48.4450  132.4890 N.am  104  ALA104     -0.1964
     16  CA       105.4190   48.7980  133.4320 C.3   104  ALA104      0.1713
     17  C        105.9320   50.1900  133.0390 C.2   104  ALA104      0.2458
     18  O        105.7490   50.5970  131.8960 O.2   104  ALA104     -0.2730
     19  CB       106.5400   47.7770  133.3790 C.3   104  ALA104      0.0333
     20  N        106.5850   50.9230  133.9670 N.am  105  PRO105     -0.2716
     21  CA       106.9820   50.5880  135.3370 C.3   105  PRO105      0.1536
     22  C        105.8020   50.5250  136.2970 C.2   105  PRO105      0.2598
     23  O        104.6820   50.8490  135.9200 O.2   105  PRO105     -0.2715
     24  CB       107.8880   51.7470  135.7130 C.3   105  PRO105      0.0310
     25  CG       107.3610   52.8880  134.9150 C.3   105  PRO105      0.0237
     26  CD       106.9900   52.2980  133.6140 C.3   105  PRO105      0.0939
     27  N        106.0610   50.1040  137.5270 N.am  106  LYS106     -0.1964
     28  CA       105.0220   49.9490  138.5300 C.3   106  LYS106      0.1728
     29  C        104.6260   51.3380  139.0990 C.2   106  LYS106      0.2616
     30  O        105.4560   52.0540  139.6590 O.2   106  LYS106     -0.2715
     31  CB       105.5480   48.9730  139.5950 C.3   106  LYS106      0.0311
     32  CG       104.6170   48.6500  140.7630 C.3   106  LYS106      0.0038
     33  CD       103.5030   47.6720  140.3880 C.3   106  LYS106      0.0206
     34  CE       102.6040   47.3890  141.5860 C.3   106  LYS106      0.1093
     35  NZ       101.6600   46.2790  141.2520 N.3   106  LYS106     -0.1314
     36  N        103.3630   51.7230  138.9450 N.am  107  MET107     -0.1963
     37  CA       102.9190   53.0780  139.2940 C.3   107  MET107      0.1736
     38  C        102.6040   53.3520  140.7700 C.2   107  MET107      0.2616
     39  O        102.8950   54.4460  141.2610 O.2   107  MET107     -0.2715
     40  CB       101.7210   53.5200  138.4410 C.3   107  MET107      0.0427
     41  CG       101.9920   53.6760  136.9580 C.3   107  MET107      0.0599
     42  SD       103.4140   54.7120  136.5630 S.3   107  MET107     -0.1393
     43  CE       103.6090   54.3920  134.8190 C.3   107  MET107      0.0692
     44  N        102.0140   52.3960  141.4870 N.am  108  LEU108     -0.1977
     45  CA       101.4220   52.7640  142.7830 C.3   108  LEU108      0.1596
     46  C        102.3350   53.2090  143.9540 C.2   108  LEU108      0.2287
     47  O        101.8760   53.9420  144.8370 O.2   108  LEU108     -0.2864
     48  CB       100.2640   51.8460  143.2270 C.3   108  LEU108      0.0297
     49  CG       100.3310   50.3460  143.4660 C.3   108  LEU108      0.0022
     50  CD1      101.2160   49.9770  144.6980 C.3   108  LEU108      0.0001
     51  CD2       98.8930   49.8410  143.6380 C.3   108  LEU108      0.0001
     52  N        102.0090   56.9980  143.3880 N.3   111  ILE111     -0.1245
     53  CA       100.7400   57.7130  143.3460 C.3   111  ILE111      0.1561
     54  C        100.5680   58.8070  144.4190 C.2   111  ILE111      0.2260
     55  O        100.1040   59.9020  144.0900 O.2   111  ILE111     -0.2867
     56  CB        99.5380   56.7570  143.2500 C.3   111  ILE111      0.0252
     57  CG1       99.4600   56.2320  141.8150 C.3   111  ILE111      0.0019
     58  CG2       98.2440   57.4640  143.6440 C.3   111  ILE111      0.0019
     59  CD1       98.6000   55.0160  141.6300 C.3   111  ILE111      0.0001
     60  N         96.2830   53.1420  138.4780 N.3   133  ALA133     -0.1231
     61  CA        96.9910   52.5500  137.3520 C.3   133  ALA133      0.1694
     62  C         96.4760   51.1540  137.0870 C.2   133  ALA133      0.2593
     63  O         95.9520   50.5010  137.9800 O.2   133  ALA133     -0.2718
     64  CB        98.4790   52.5250  137.6110 C.3   133  ALA133      0.0304
     65  N         96.6140   50.7150  135.8460 N.am  134  THR134     -0.1939
     66  CA        96.2020   49.3840  135.4300 C.3   134  THR134      0.2028
     67  C         97.0920   48.9260  134.2570 C.2   134  THR134      0.2642
     68  O         97.6620   49.7690  133.5480 O.2   134  THR134     -0.2714
     69  CB        94.6770   49.3430  135.0800 C.3   134  THR134      0.1808
     70  OG1       94.2830   48.0010  134.7830 O.3   134  THR134     -0.2208
     71  CG2       94.3380   50.2360  133.9000 C.3   134  THR134      0.0379
     72  N         97.2500   47.6100  134.0850 N.am  135  THR135     -0.1950
     73  CA        97.9500   47.0720  132.9190 C.3   135  THR135      0.1897
     74  C         96.8890   46.5470  131.9880 C.2   135  THR135      0.2313
     75  O         95.7340   46.4300  132.3840 O.2   135  THR135     -0.2863
     76  CB        98.8760   45.8780  133.2510 C.3   135  THR135      0.1794
     77  OG1       98.0820   44.7540  133.6320 O.3   135  THR135     -0.2208
     78  CG2       99.8430   46.2020  134.3600 C.3   135  THR135      0.0378
@<TRIPOS>BOND
     1    10    11    1
     2    10     7    1
     3    13    12    2
     4    11    12    1
     5    12    14   am
     6     6     7    1
     7     6     3   am
     8     2     1    1
     9     2     3    1
    10     2     5    1
    11     7     8    1
    12    18    17    2
    13     3     4    2
    14    74    75    2
    15    74    73    1
    16    15     8   am
    17    15    16    1
    18     8     9    2
    19    73    76    1
    20    73    72    1
    21    17    16    1
    22    17    20   am
    23    76    77    1
    24    76    78    1
    25    19    16    1
    26    68    67    2
    27    26    20    1
    28    26    25    1
    29    71    69    1
    30    20    21    1
    31    72    67   am
    32    67    66    1
    33    70    69    1
    34    43    42    1
    35    25    24    1
    36    69    66    1
    37    21    24    1
    38    21    22    1
    39    66    65    1
    40    65    62   am
    41    23    22    2
    42    22    27   am
    43    42    41    1
    44    41    40    1
    45    62    61    1
    46    62    63    2
    47    61    64    1
    48    61    60    1
    49    27    28    1
    50    40    37    1
    51    28    29    1
    52    28    31    1
    53    36    29   am
    54    36    37    1
    55    29    30    2
    56    37    38    1
    57    31    32    1
    58    33    32    1
    59    33    34    1
    60    38    39    2
    61    38    44   am
    62    35    34    1
    63    44    45    1
    64    59    57    1
    65    57    56    1
    66    45    48    1
    67    45    46    1
    68    48    49    1
    69    56    53    1
    70    56    58    1
    71    53    52    1
    72    53    54    1
    73    49    51    1
    74    49    50    1
    75    46    47    2
    76    55    54    2
