@<TRIPOS>MOLECULE
tmp/3fbbD00.pdb
 120 112 0 0 0
SMALL
GASTEIGER

@<TRIPOS>ATOM
      1  N         81.6340   32.3890   60.1500 N.3    10  LYS10      -0.1245
      2  CA        81.3170   30.9730   60.0790 C.3    10  LYS10       0.1561
      3  C         81.6730   30.3890   58.7170 C.2    10  LYS10       0.2260
      4  O         81.9210   31.1340   57.7590 O.2    10  LYS10      -0.2867
      5  CB        79.8410   30.7530   60.4010 C.3    10  LYS10       0.0271
      6  CG        79.4230   31.2500   61.7890 C.3    10  LYS10       0.0035
      7  CD        77.9410   30.9160   62.0340 C.3    10  LYS10       0.0206
      8  CE        77.4600   31.4800   63.3560 C.3    10  LYS10       0.1093
      9  NZ        76.0610   31.1150   63.6810 N.3    10  LYS10      -0.1314
     10  N         79.6930   27.1360   72.0730 N.3    51  TYR51      -0.1241
     11  CA        78.2510   26.9470   72.0870 C.3    51  TYR51       0.1605
     12  C         77.7530   26.0610   73.2410 C.2    51  TYR51       0.2264
     13  O         76.6930   25.4340   73.1500 O.2    51  TYR51      -0.2867
     14  CB        77.7850   26.3880   70.7460 C.3    51  TYR51       0.0534
     15  CG        77.6920   27.4290   69.6490 C.ar   51  TYR51      -0.0201
     16  CD1       78.4440   27.3100   68.4900 C.ar   51  TYR51      -0.0009
     17  CD2       76.8500   28.5260   69.7730 C.ar   51  TYR51      -0.0009
     18  CE1       78.3620   28.2490   67.4880 C.ar   51  TYR51       0.0417
     19  CE2       76.7640   29.4830   68.7620 C.ar   51  TYR51       0.0417
     20  CZ        77.5280   29.3380   67.6310 C.ar   51  TYR51       0.1957
     21  OH        77.4600   30.2650   66.6200 O.3    51  TYR51      -0.2866
     22  N         74.2290   25.6720   74.4770 N.3    54  HIS54      -0.1241
     23  CA        73.2580   25.1470   73.5270 C.3    54  HIS54       0.1621
     24  C         73.2490   23.6180   73.4760 C.2    54  HIS54       0.2264
     25  O         72.4760   23.0260   72.7210 O.2    54  HIS54      -0.2867
     26  CB        73.5520   25.6830   72.1140 C.3    54  HIS54       0.0745
     27  CG        73.5080   27.1810   72.0010 C.ar   54  HIS54       0.0817
     28  ND1       72.4190   27.8570   71.4940 N.ar   54  HIS54      -0.2268
     29  CD2       74.4270   28.1250   72.3170 C.ar   54  HIS54       0.1154
     30  CE1       72.6660   29.1560   71.5090 C.ar   54  HIS54       0.1986
     31  NE2       73.8710   29.3450   72.0110 N.ar   54  HIS54      -0.2212
     32  N         69.5970   21.0310   67.5110 N.3    59  TYR59      -0.1241
     33  CA        70.5330   21.4430   66.4710 C.3    59  TYR59       0.1605
     34  C         72.0020   21.3730   66.9040 C.2    59  TYR59       0.2264
     35  O         72.9000   21.3960   66.0620 O.2    59  TYR59      -0.2867
     36  CB        70.1940   22.8700   66.0080 C.3    59  TYR59       0.0534
     37  CG        70.2260   23.9030   67.1260 C.ar   59  TYR59      -0.0201
     38  CD1       71.4220   24.5070   67.5080 C.ar   59  TYR59      -0.0009
     39  CD2       69.0660   24.2650   67.8050 C.ar   59  TYR59      -0.0009
     40  CE1       71.4660   25.4500   68.5230 C.ar   59  TYR59       0.0417
     41  CE2       69.1010   25.2050   68.8270 C.ar   59  TYR59       0.0417
     42  CZ        70.3060   25.7960   69.1840 C.ar   59  TYR59       0.1957
     43  OH        70.3530   26.7290   70.2040 O.3    59  TYR59      -0.2866
     44  N         75.0870   21.8850   64.4430 N.3    63  LEU63      -0.1245
     45  CA        75.7830   23.1580   64.5680 C.3    63  LEU63       0.1561
     46  C         77.3080   22.9520   64.6450 C.2    63  LEU63       0.2260
     47  O         78.0710   23.5890   63.9120 O.2    63  LEU63      -0.2867
     48  CB        75.2570   23.9160   65.7900 C.3    63  LEU63       0.0270
     49  CG        75.9960   25.1740   66.2220 C.3    63  LEU63       0.0019
     50  CD1       76.2320   26.0800   65.0290 C.3    63  LEU63       0.0001
     51  CD2       75.2180   25.8860   67.3180 C.3    63  LEU63       0.0001
     52  N         75.9420   43.3830   67.4810 N.3    87  ARG87      -0.1245
     53  CA        74.7680   42.5220   67.5350 C.3    87  ARG87       0.1563
     54  C         73.6650   43.0350   66.6100 C.2    87  ARG87       0.2260
     55  O         73.0610   42.2670   65.8510 O.2    87  ARG87      -0.2867
     56  CB        74.2360   42.4400   68.9720 C.3    87  ARG87       0.0307
     57  CG        74.6110   41.1640   69.7150 C.3    87  ARG87       0.0489
     58  CD        73.4440   40.1860   69.7030 C.3    87  ARG87       0.2205
     59  NE        73.8660   38.8670   69.2430 N.pl3  87  ARG87      -0.0865
     60  CZ        73.1500   37.7550   69.3790 C.cat  87  ARG87       0.5346
     61  NH1       71.9600   37.7800   69.9760 N.pl3  87  ARG87       0.1354
     62  NH2       73.6390   36.6110   68.9210 N.pl3  87  ARG87       0.1354
     63  N         74.7110   42.4430   63.0690 N.3    90  GLN90      -0.1245
     64  CA        74.4240   41.0550   62.7330 C.3    90  GLN90       0.1566
     65  C         72.9480   40.8500   62.3870 C.2    90  GLN90       0.2260
     66  O         72.6310   40.2020   61.3980 O.2    90  GLN90      -0.2867
     67  CB        74.8410   40.1380   63.8840 C.3    90  GLN90       0.0367
     68  CG        74.4750   38.6690   63.7030 C.3    90  GLN90       0.0905
     69  CD        74.6840   37.8730   64.9740 C.2    90  GLN90       0.2608
     70  OE1       73.8610   37.9100   65.8990 O.2    90  GLN90      -0.2717
     71  NE2       75.7870   37.1480   65.0300 N.am   90  GLN90      -0.0878
     72  N         72.8790   39.4440   58.5200 N.3   100  ARG100     -0.1245
     73  CA        72.0410   38.2720   58.2790 C.3   100  ARG100      0.1563
     74  C         70.8310   38.6730   57.4250 C.2   100  ARG100      0.2260
     75  O         70.3730   37.9040   56.5880 O.2   100  ARG100     -0.2867
     76  CB        71.5870   37.6260   59.5910 C.3   100  ARG100      0.0307
     77  CG        72.6420   36.7970   60.2860 C.3   100  ARG100      0.0489
     78  CD        72.1360   36.2840   61.6370 C.3   100  ARG100      0.2205
     79  NE        73.1700   35.5350   62.3390 N.pl3 100  ARG100     -0.0865
     80  CZ        73.0800   35.1190   63.5990 C.cat 100  ARG100      0.5346
     81  NH1       71.9980   35.3590   64.3270 N.pl3 100  ARG100      0.1354
     82  NH2       74.0930   34.4680   64.1380 N.pl3 100  ARG100      0.1354
     83  N         68.3920   29.1990   59.2380 N.3   107  ILE107     -0.1231
     84  CA        68.3440   29.3110   60.6910 C.3   107  ILE107      0.1692
     85  C         69.6300   28.7920   61.3300 C.2   107  ILE107      0.2592
     86  O         69.8860   29.0240   62.5110 O.2   107  ILE107     -0.2718
     87  CB        67.1340   28.5450   61.2680 C.3   107  ILE107      0.0266
     88  CG1       66.9270   28.9090   62.7310 C.3   107  ILE107      0.0019
     89  CG2       67.3060   27.0250   61.0840 C.3   107  ILE107      0.0020
     90  CD1       65.7540   28.2060   63.3560 C.3   107  ILE107      0.0001
     91  N         70.4420   28.1060   60.5320 N.am  108  GLY108     -0.1957
     92  CA        71.7010   27.5540   60.9940 C.3   108  GLY108      0.1869
     93  C         72.9030   28.1510   60.2870 C.2   108  GLY108      0.2309
     94  O         73.9170   28.4650   60.9200 O.2   108  GLY108     -0.2863
     95  N         74.1260   31.1730   59.0450 N.3   110  ASN110     -0.1240
     96  CA        73.8550   32.6060   59.1200 C.3   110  ASN110      0.1653
     97  C         75.1050   33.5100   59.2310 C.2   110  ASN110      0.2266
     98  O         75.0370   34.6080   59.7790 O.2   110  ASN110     -0.2867
     99  CB        72.8590   32.9060   60.2450 C.3   110  ASN110      0.1155
    100  CG        73.2860   32.3150   61.5820 C.2   110  ASN110      0.2627
    101  OD1       74.4490   32.0060   61.7890 O.2   110  ASN110     -0.2716
    102  ND2       72.3370   32.1720   62.5000 N.am  110  ASN110     -0.0877
    103  N         78.7850   34.9660   64.0750 N.3   113  HIS113     -0.1241
    104  CA        78.3730   35.0320   65.4690 C.3   113  HIS113      0.1621
    105  C         78.9110   36.2940   66.1330 C.2   113  HIS113      0.2264
    106  O         80.0530   36.6970   65.9030 O.2   113  HIS113     -0.2867
    107  CB        78.8720   33.8150   66.2490 C.3   113  HIS113      0.0745
    108  CG        78.9130   34.0430   67.7280 C.ar  113  HIS113      0.0817
    109  ND1       77.9290   33.5890   68.5790 N.ar  113  HIS113     -0.2268
    110  CD2       79.8010   34.7140   68.5030 C.ar  113  HIS113      0.1154
    111  CE1       78.2170   33.9520   69.8180 C.ar  113  HIS113      0.1986
    112  NE2       79.3470   34.6350   69.7980 N.ar  113  HIS113     -0.2212
    113  N         76.4740   38.3020   72.7810 N.3   116  ASP116     -0.1239
    114  CA        75.2620   39.0550   73.0910 C.3   116  ASP116      0.1674
    115  C         75.2600   39.7280   74.4600 C.2   116  ASP116      0.2266
    116  O         74.2720   40.3490   74.8380 O.2   116  ASP116     -0.2867
    117  CB        73.9970   38.2110   72.8920 C.3   116  ASP116      0.1410
    118  CG        73.9150   37.0260   73.8410 C.2   116  ASP116      0.3668
    119  OD1       74.7130   36.9520   74.8080 O.co2 116  ASP116     -0.2456
    120  OD2       73.0410   36.1590   73.6090 O.co2 116  ASP116     -0.2456
@<TRIPOS>BOND
     1    75    74    2
     2    74    73    1
     3     4     3    2
     4    73    72    1
     5    73    76    1
     6     3     2    1
     7    95    96    1
     8    96    97    1
     9    96    99    1
    10    97    98    2
    11    83    84    1
    12    76    77    1
    13     2     1    1
    14     2     5    1
    15    99   100    1
    16    77    78    1
    17    93    94    2
    18    93    92    1
    19     5     6    1
    20    91    92    1
    21    91    85   am
    22    84    87    1
    23    84    85    1
    24    89    87    1
    25    87    88    1
    26    85    86    2
    27    66    65    2
    28   100   101    2
    29   100   102   am
    30    78    79    1
    31     6     7    1
    32     7     8    1
    33    79    80    2
    34    65    64    1
    35    88    90    1
    36    64    63    1
    37    64    67    1
    38     8     9    1
    39    80    82    1
    40    80    81    1
    41    68    67    1
    42    68    69    1
    43    47    46    2
    44   103   104    1
    45    44    45    1
    46    45    46    1
    47    45    48    1
    48    69    71   am
    49    69    70    2
    50    50    49    1
    51   104   105    1
    52   104   107    1
    53    48    49    1
    54    55    54    2
    55   106   105    2
    56    36    33    1
    57    36    37    1
    58    35    34    2
    59    49    51    1
    60   107   108    1
    61    33    34    1
    62    33    32    1
    63    54    53    1
    64    21    20    1
    65    37    38   ar
    66    37    39   ar
    67    52    53    1
    68    18    20   ar
    69    18    16   ar
    70    38    40   ar
    71    53    56    1
    72    20    19   ar
    73   108   110   ar
    74   108   109   ar
    75    39    41   ar
    76    16    15   ar
    77   110   112   ar
    78    40    42   ar
    79   109   111   ar
    80    19    17   ar
    81    41    42   ar
    82    62    60    1
    83    56    57    1
    84    42    43    1
    85    59    60    2
    86    59    58    1
    87    60    61    1
    88    15    17   ar
    89    15    14    1
    90    58    57    1
    91   112   111   ar
    92    14    11    1
    93    28    30   ar
    94    28    27   ar
    95    30    31   ar
    96    27    26    1
    97    27    29   ar
    98    31    29   ar
    99    10    11    1
   100    11    12    1
   101    26    23    1
   102    25    24    2
   103   113   114    1
   104   117   114    1
   105   117   118    1
   106   114   115    1
   107    13    12    2
   108    24    23    1
   109    23    22    1
   110   120   118   ar
   111   118   119   ar
   112   115   116    2
