@<TRIPOS>MOLECULE
tmp/3fbeF00.pdb
 131 124 0 0 0
SMALL
GASTEIGER

@<TRIPOS>ATOM
      1  N         59.8990   45.9790   37.1590 N.3    10  LYS10      -0.1245
      2  CA        59.0450   46.9410   36.4720 C.3    10  LYS10       0.1561
      3  C         59.7940   47.8930   35.5250 C.2    10  LYS10       0.2260
      4  O         61.0130   48.0340   35.6030 O.2    10  LYS10      -0.2867
      5  CB        58.1830   47.7020   37.4890 C.3    10  LYS10       0.0271
      6  CG        57.3060   46.7850   38.3390 C.3    10  LYS10       0.0035
      7  CD        56.5360   47.5690   39.3830 C.3    10  LYS10       0.0206
      8  CE        55.5290   46.6920   40.0830 C.3    10  LYS10       0.1093
      9  NZ        55.0100   47.3580   41.2990 N.3    10  LYS10      -0.1314
     10  N         47.1100   42.2030   37.4510 N.3    51  TYR51      -0.1241
     11  CA        46.5970   43.1780   38.4060 C.3    51  TYR51       0.1605
     12  C         45.0670   43.1720   38.4810 C.2    51  TYR51       0.2264
     13  O         44.4530   44.1860   38.8230 O.2    51  TYR51      -0.2867
     14  CB        47.1210   44.5810   38.0820 C.3    51  TYR51       0.0534
     15  CG        48.5520   44.8100   38.5190 C.ar   51  TYR51      -0.0201
     16  CD1       49.5740   44.9460   37.5890 C.ar   51  TYR51      -0.0009
     17  CD2       48.8790   44.8830   39.8670 C.ar   51  TYR51      -0.0009
     18  CE1       50.8760   45.1500   37.9890 C.ar   51  TYR51       0.0417
     19  CE2       50.1760   45.0880   40.2740 C.ar   51  TYR51       0.0417
     20  CZ        51.1710   45.2210   39.3320 C.ar   51  TYR51       0.1957
     21  OH        52.4660   45.4260   39.7420 O.3    51  TYR51      -0.2866
     22  N         42.6950   45.0890   40.8790 N.3    54  HIS54      -0.1241
     23  CA        42.6520   46.5470   40.8530 C.3    54  HIS54       0.1621
     24  C         41.7650   47.0720   39.7370 C.2    54  HIS54       0.2264
     25  O         41.6550   48.2840   39.5520 O.2    54  HIS54      -0.2867
     26  CB        44.0600   47.1200   40.6960 C.3    54  HIS54       0.0745
     27  CG        45.0120   46.6710   41.7560 C.ar   54  HIS54       0.0817
     28  ND1       45.3720   47.4720   42.8190 N.ar   54  HIS54      -0.2268
     29  CD2       45.6700   45.5010   41.9260 C.ar   54  HIS54       0.1154
     30  CE1       46.2130   46.8140   43.5960 C.ar   54  HIS54       0.1986
     31  NE2       46.4110   45.6150   43.0760 N.ar   54  HIS54      -0.2212
     32  N         42.8530   54.1880   39.3700 N.3    59  TYR59      -0.1241
     33  CA        44.2070   54.2140   38.8400 C.3    59  TYR59       0.1605
     34  C         44.5490   53.0050   37.9730 C.2    59  TYR59       0.2264
     35  O         45.6160   52.9580   37.3620 O.2    59  TYR59      -0.2867
     36  CB        45.1960   54.2950   39.9930 C.3    59  TYR59       0.0534
     37  CG        45.1110   53.1110   40.9190 C.ar   59  TYR59      -0.0201
     38  CD1       45.7340   51.9160   40.5990 C.ar   59  TYR59      -0.0009
     39  CD2       44.3980   53.1820   42.1070 C.ar   59  TYR59      -0.0009
     40  CE1       45.6570   50.8250   41.4370 C.ar   59  TYR59       0.0417
     41  CE2       44.3190   52.0960   42.9560 C.ar   59  TYR59       0.0417
     42  CZ        44.9510   50.9210   42.6140 C.ar   59  TYR59       0.1957
     43  OH        44.8780   49.8380   43.4540 O.3    59  TYR59      -0.2866
     44  N         45.9830   53.7220   34.5350 N.3    62  ASP62      -0.1225
     45  CA        47.3080   54.3210   34.6090 C.3    62  ASP62       0.1805
     46  C         48.3680   53.2650   34.9150 C.2    62  ASP62       0.2597
     47  O         49.3930   53.1670   34.2310 O.2    62  ASP62      -0.2718
     48  CB        47.3300   55.3970   35.6870 C.3    62  ASP62       0.1424
     49  CG        46.6630   56.6850   35.2440 C.2    62  ASP62       0.3668
     50  OD1       46.2540   56.7930   34.0650 O.co2  62  ASP62      -0.2456
     51  OD2       46.5550   57.6030   36.0820 O.co2  62  ASP62      -0.2456
     52  N         48.1070   52.4900   35.9630 N.am   63  LEU63      -0.1979
     53  CA        48.9520   51.3730   36.3510 C.3    63  LEU63       0.1596
     54  C         49.2780   50.4830   35.1590 C.2    63  LEU63       0.2287
     55  O         50.4480   50.2050   34.8870 O.2    63  LEU63      -0.2864
     56  CB        48.2570   50.5620   37.4430 C.3    63  LEU63       0.0297
     57  CG        48.8060   49.1710   37.7610 C.3    63  LEU63       0.0022
     58  CD1       50.1850   49.2560   38.4170 C.3    63  LEU63       0.0001
     59  CD2       47.8150   48.4270   38.6560 C.3    63  LEU63       0.0001
     60  N         51.6430   52.1720   32.7690 N.3    66  PHE66      -0.1241
     61  CA        53.0020   52.2040   33.3000 C.3    66  PHE66       0.1605
     62  C         53.7170   50.8690   33.0720 C.2    66  PHE66       0.2264
     63  O         54.8460   50.8370   32.5730 O.2    66  PHE66      -0.2867
     64  CB        52.9860   52.5630   34.7950 C.3    66  PHE66       0.0534
     65  CG        54.2730   52.2540   35.5040 C.ar   66  PHE66      -0.0203
     66  CD1       54.3180   51.3080   36.5150 C.ar   66  PHE66      -0.0042
     67  CD2       55.4460   52.8960   35.1400 C.ar   66  PHE66      -0.0042
     68  CE1       55.5090   51.0180   37.1590 C.ar   66  PHE66      -0.0003
     69  CE2       56.6360   52.6120   35.7760 C.ar   66  PHE66      -0.0003
     70  CZ        56.6680   51.6710   36.7910 C.ar   66  PHE66      -0.0000
     71  N         59.0470   38.9620   49.5130 N.3    87  ARG87      -0.1245
     72  CA        58.1100   40.0170   49.8830 C.3    87  ARG87       0.1563
     73  C         58.7550   41.0240   50.8200 C.2    87  ARG87       0.2260
     74  O         58.5640   42.2320   50.6840 O.2    87  ARG87      -0.2867
     75  CB        56.8950   39.4300   50.5860 C.3    87  ARG87       0.0307
     76  CG        55.6230   39.6000   49.8320 C.3    87  ARG87       0.0489
     77  CD        55.0840   40.9930   50.0280 C.3    87  ARG87       0.2205
     78  NE        54.4930   41.4750   48.7880 N.pl3  87  ARG87      -0.0865
     79  CZ        53.6200   42.4730   48.7090 C.cat  87  ARG87       0.5346
     80  NH1       53.2160   43.0950   49.8110 N.pl3  87  ARG87       0.1354
     81  NH2       53.1440   42.8340   47.5220 N.pl3  87  ARG87       0.1354
     82  N         61.4810   43.1350   49.1980 N.3    90  GLN90      -0.1245
     83  CA        60.8520   44.1980   48.4220 C.3    90  GLN90       0.1566
     84  C         60.4850   45.3800   49.3160 C.2    90  GLN90       0.2260
     85  O         60.7150   46.5430   48.9680 O.2    90  GLN90      -0.2867
     86  CB        59.6000   43.6690   47.7170 C.3    90  GLN90       0.0367
     87  CG        58.6450   44.7640   47.2510 C.3    90  GLN90       0.0905
     88  CD        57.2570   44.2480   46.9060 C.2    90  GLN90       0.2608
     89  OE1       57.0160   43.7550   45.8030 O.2    90  GLN90      -0.2717
     90  NE2       56.3310   44.3780   47.8490 N.am   90  GLN90      -0.0878
     91  N         62.5140   48.6260   47.8370 N.3   100  ARG100     -0.1245
     92  CA        61.7060   49.8240   47.6870 C.3   100  ARG100      0.1563
     93  C         62.1610   50.9260   48.6420 C.2   100  ARG100      0.2260
     94  O         62.0570   52.1150   48.3320 O.2   100  ARG100     -0.2867
     95  CB        60.2230   49.5120   47.8740 C.3   100  ARG100      0.0307
     96  CG        59.6260   48.7590   46.6980 C.3   100  ARG100      0.0489
     97  CD        58.1160   48.6180   46.8330 C.3   100  ARG100      0.2205
     98  NE        57.5510   47.7940   45.7690 N.pl3 100  ARG100     -0.0865
     99  CZ        56.2810   47.3930   45.7460 C.cat 100  ARG100      0.5346
    100  NH1       55.4530   47.7440   46.7290 N.pl3 100  ARG100      0.1354
    101  NH2       55.8300   46.6380   44.7480 N.pl3 100  ARG100      0.1354
    102  N         54.6350   55.6150   45.0440 N.3   107  ILE107     -0.1231
    103  CA        53.7520   54.4680   45.2670 C.3   107  ILE107      0.1692
    104  C         53.4040   53.7350   43.9760 C.2   107  ILE107      0.2592
    105  O         52.9240   52.6050   44.0110 O.2   107  ILE107     -0.2718
    106  CB        52.4380   54.8430   46.0040 C.3   107  ILE107      0.0266
    107  CG1       51.5610   55.7640   45.1420 C.3   107  ILE107      0.0019
    108  CG2       52.7290   55.4170   47.3940 C.3   107  ILE107      0.0020
    109  CD1       52.2550   57.0040   44.5950 C.3   107  ILE107      0.0001
    110  N         53.6450   54.3770   42.8400 N.am  108  GLY108     -0.1957
    111  CA        53.3740   53.7650   41.5520 C.3   108  GLY108      0.1869
    112  C         54.6220   53.1590   40.9350 C.2   108  GLY108      0.2309
    113  O         54.6850   51.9540   40.6750 O.2   108  GLY108     -0.2863
    114  N         57.6470   51.7330   41.5290 N.3   110  ASN110     -0.1240
    115  CA        58.3480   51.1560   42.6540 C.3   110  ASN110      0.1653
    116  C         59.1080   49.8960   42.3000 C.2   110  ASN110      0.2266
    117  O         59.2490   49.0030   43.1310 O.2   110  ASN110     -0.2867
    118  CB        57.4030   50.9260   43.8350 C.3   110  ASN110      0.1155
    119  CG        56.1950   50.0690   43.4730 C.2   110  ASN110      0.2627
    120  OD1       56.1600   49.4170   42.4280 O.2   110  ASN110     -0.2716
    121  ND2       55.2010   50.0620   44.3540 N.am  110  ASN110     -0.0877
    122  N         57.6200   43.8450   41.6670 N.3   113  HIS113     -0.1241
    123  CA        56.4870   43.1600   42.2610 C.3   113  HIS113      0.1621
    124  C         56.9170   41.7880   42.7760 C.2   113  HIS113      0.2264
    125  O         57.6580   41.0650   42.1090 O.2   113  HIS113     -0.2867
    126  CB        55.3200   43.0300   41.2750 C.3   113  HIS113      0.0745
    127  CG        54.2180   42.1380   41.7730 C.ar  113  HIS113      0.0817
    128  ND1       53.1690   42.6050   42.5330 N.ar  113  HIS113     -0.2268
    129  CD2       54.0250   40.8050   41.6320 C.ar  113  HIS113      0.1154
    130  CE1       52.3650   41.5970   42.8340 C.ar  113  HIS113      0.1986
    131  NE2       52.8620   40.4960   42.3010 N.ar  113  HIS113     -0.2212
@<TRIPOS>BOND
     1    63    62    2
     2    60    61    1
     3    62    61    1
     4    61    64    1
     5    50    49   ar
     6    47    46    2
     7    44    45    1
     8    45    46    1
     9    45    48    1
    10    64    65    1
    11    55    54    2
    12    46    52   am
    13    67    65   ar
    14    67    69   ar
    15    54    53    1
    16    49    48    1
    17    49    51   ar
    18    65    66   ar
    19     3     4    2
    20     3     2    1
    21    69    70   ar
    22    52    53    1
    23    53    56    1
    24     2     1    1
    25     2     5    1
    26    66    68   ar
    27    70    68   ar
    28    35    34    2
    29    56    57    1
    30    10    11    1
    31     5     6    1
    32    16    18   ar
    33    16    15   ar
    34    57    58    1
    35    57    59    1
    36    34    33    1
    37    18    20   ar
    38    14    11    1
    39    14    15    1
    40     6     7    1
    41    11    12    1
    42    12    13    2
    43    15    17   ar
    44    33    32    1
    45    33    36    1
    46    20    21    1
    47    20    19   ar
    48     7     8    1
    49    25    24    2
    50    24    23    1
    51    17    19   ar
    52    36    37    1
    53     8     9    1
    54    38    37   ar
    55    38    40   ar
    56   113   112    2
    57    26    23    1
    58    26    27    1
    59    23    22    1
    60    37    39   ar
    61   112   111    1
    62   126   127    1
    63   126   123    1
    64    40    42   ar
    65   114   115    1
    66   111   110    1
    67   129   127   ar
    68   129   131   ar
    69   122   123    1
    70    27    29   ar
    71    27    28   ar
    72   127   128   ar
    73    29    31   ar
    74    39    41   ar
    75   125   124    2
    76   123   124    1
    77   116   115    1
    78   116   117    2
    79   131   130   ar
    80   120   119    2
    81   128   130   ar
    82    42    41   ar
    83    42    43    1
    84   115   118    1
    85    28    30   ar
    86   110   104   am
    87    31    30   ar
    88   119   118    1
    89   119   121   am
    90   104   105    2
    91   104   103    1
    92   109   107    1
    93   101    99    1
    94   102   103    1
    95   107   106    1
    96   103   106    1
    97    99    98    2
    98    99   100    1
    99    98    97    1
   100    89    88    2
   101   106   108    1
   102    96    97    1
   103    96    95    1
   104    88    87    1
   105    88    90   am
   106    87    86    1
   107    81    79    1
   108    92    91    1
   109    92    95    1
   110    92    93    1
   111    86    83    1
   112    94    93    2
   113    83    82    1
   114    83    84    1
   115    79    78    2
   116    79    80    1
   117    78    77    1
   118    85    84    2
   119    71    72    1
   120    76    77    1
   121    76    75    1
   122    72    75    1
   123    72    73    1
   124    74    73    2
