@<TRIPOS>MOLECULE
tmp/3fbpA00.pdb
 134 129 0 0 0
SMALL
GASTEIGER

@<TRIPOS>ATOM
      1  N         42.6900   89.1910   20.4580 N.3   102  ASP102     -0.1225
      2  CA        41.5930   89.4690   21.4010 C.3   102  ASP102      0.1805
      3  C         40.5940   88.3230   21.2880 C.2   102  ASP102      0.2598
      4  O         40.2510   87.8720   20.1810 O.2   102  ASP102     -0.2718
      5  CB        40.9560   90.8330   21.0250 C.3   102  ASP102      0.1424
      6  CG        39.5350   91.1040   21.5240 C.2   102  ASP102      0.3668
      7  OD1       39.3560   91.1800   22.7400 O.co2 102  ASP102     -0.2456
      8  OD2       38.5870   91.1950   20.7070 O.co2 102  ASP102     -0.2456
      9  N         40.1590   87.7380   22.3990 N.am  103  GLY103     -0.1942
     10  CA        39.2580   86.6000   22.3250 C.3   103  GLY103      0.2014
     11  C         40.0220   85.3010   22.5180 C.2   103  GLY103      0.2640
     12  O         39.4450   84.3500   23.0530 O.2   103  GLY103     -0.2714
     13  N         41.3210   85.2900   22.1380 N.am  104  SER104     -0.1935
     14  CA        42.2650   84.1740   22.1760 C.3   104  SER104      0.2055
     15  C         41.8100   82.9310   22.8780 C.2   104  SER104      0.2643
     16  O         41.4280   81.9600   22.2290 O.2   104  SER104     -0.2714
     17  CB        43.6400   84.5890   22.8090 C.3   104  SER104      0.2130
     18  OG        43.7440   85.2990   24.0460 O.3   104  SER104     -0.2179
     19  N         41.7330   82.9340   24.1940 N.am  105  SER105     -0.1949
     20  CA        41.3210   81.7270   24.8730 C.3   105  SER105      0.1924
     21  C         39.8270   81.7860   25.2490 C.2   105  SER105      0.2314
     22  O         39.3220   82.2080   26.2980 O.2   105  SER105     -0.2863
     23  CB        42.3340   81.5750   26.0360 C.3   105  SER105      0.2116
     24  OG        43.6350   81.3070   25.4820 O.3   105  SER105     -0.2180
     25  N         26.8440   92.5320   27.8500 N.3   193  ASN193     -0.1240
     26  CA        26.7640   91.2330   28.5380 C.3   193  ASN193      0.1653
     27  C         25.6160   91.3880   29.5170 C.2   193  ASN193      0.2266
     28  O         25.8610   91.8920   30.6200 O.2   193  ASN193     -0.2867
     29  CB        28.0440   90.9580   29.3130 C.3   193  ASN193      0.1155
     30  CG        28.0720   89.6690   30.1060 C.2   193  ASN193      0.2627
     31  OD1       27.0950   88.9370   30.3270 O.2   193  ASN193     -0.2716
     32  ND2       29.2770   89.3440   30.5140 N.am  193  ASN193     -0.0877
     33  N         25.5980   89.6100   35.0150 N.3   196  TYR196     -0.1241
     34  CA        26.2720   90.4820   36.0050 C.3   196  TYR196      0.1605
     35  C         26.1310   91.9950   35.9810 C.2   196  TYR196      0.2264
     36  O         25.8430   92.6460   36.9860 O.2   196  TYR196     -0.2867
     37  CB        27.8520   90.2170   36.0870 C.3   196  TYR196      0.0534
     38  CG        28.9560   90.5420   35.0230 C.ar  196  TYR196     -0.0201
     39  CD1       28.8530   91.4610   33.9760 C.ar  196  TYR196     -0.0009
     40  CD2       30.1510   89.8410   35.1380 C.ar  196  TYR196     -0.0009
     41  CE1       29.8720   91.6500   33.0720 C.ar  196  TYR196      0.0417
     42  CE2       31.1860   90.0220   34.2410 C.ar  196  TYR196      0.0417
     43  CZ        31.0320   90.9220   33.2120 C.ar  196  TYR196      0.1957
     44  OH        32.0510   91.1050   32.3090 O.3   196  TYR196     -0.2866
     45  N         25.2590   89.5210   21.6620 N.3   225  TYR225     -0.1241
     46  CA        26.5250   89.7850   22.3290 C.3   225  TYR225      0.1605
     47  C         27.3550   88.5440   22.1540 C.2   225  TYR225      0.2264
     48  O         27.0160   87.4970   22.7090 O.2   225  TYR225     -0.2867
     49  CB        26.2590   90.0410   23.7590 C.3   225  TYR225      0.0534
     50  CG        27.4640   90.3450   24.6200 C.ar  225  TYR225     -0.0201
     51  CD1       27.9690   91.6360   24.7030 C.ar  225  TYR225     -0.0009
     52  CD2       28.0030   89.3280   25.3810 C.ar  225  TYR225     -0.0009
     53  CE1       29.0350   91.9130   25.5470 C.ar  225  TYR225      0.0417
     54  CE2       29.0540   89.6120   26.2290 C.ar  225  TYR225      0.0417
     55  CZ        29.5600   90.8910   26.2970 C.ar  225  TYR225      0.1957
     56  OH        30.5900   91.1110   27.1670 O.3   225  TYR225     -0.2866
     57  N         30.8500   88.2620   22.6290 N.3   227  GLY227     -0.1210
     58  CA        31.9020   88.1220   23.6120 C.3   227  GLY227      0.1956
     59  C         33.3200   88.1970   23.0240 C.2   227  GLY227      0.2613
     60  O         34.2270   87.5410   23.5360 O.2   227  GLY227     -0.2717
     61  N         33.5190   88.9710   21.9550 N.am  228  SER228     -0.1938
     62  CA        34.8210   89.2390   21.3720 C.3   228  SER228      0.2055
     63  C         34.6380   90.6610   20.9360 C.2   228  SER228      0.2642
     64  O         33.7260   90.9490   20.1380 O.2   228  SER228     -0.2714
     65  CB        35.1700   88.4920   20.0880 C.3   228  SER228      0.2130
     66  OG        35.1470   87.0990   20.2810 O.3   228  SER228     -0.2179
     67  N         35.5150   91.5550   21.3820 N.am  229  MET229     -0.1976
     68  CA        35.2900   92.9330   21.0370 C.3   229  MET229      0.1605
     69  C         35.2860   93.0720   19.5210 C.2   229  MET229      0.2287
     70  O         34.3650   93.6870   18.9780 O.2   229  MET229     -0.2864
     71  CB        36.3680   93.7760   21.6730 C.3   229  MET229      0.0413
     72  CG        36.2080   95.1770   21.1530 C.3   229  MET229      0.0598
     73  SD        37.3990   96.2910   21.8810 S.3   229  MET229     -0.1393
     74  CE        36.2680   97.6450   22.0040 C.3   229  MET229      0.0692
     75  N         27.0880   99.2360   21.1990 N.3   243  PHE243     -0.1241
     76  CA        27.9050   98.2670   21.8820 C.3   243  PHE243      0.1605
     77  C         28.2940   98.9500   23.1850 C.2   243  PHE243      0.2264
     78  O         28.6210  100.1420   23.1560 O.2   243  PHE243     -0.2867
     79  CB        29.1010   97.9780   20.9400 C.3   243  PHE243      0.0534
     80  CG        30.1520   97.0540   21.5490 C.ar  243  PHE243     -0.0203
     81  CD1       29.9560   95.6830   21.5410 C.ar  243  PHE243     -0.0042
     82  CD2       31.1650   97.5920   22.3300 C.ar  243  PHE243     -0.0042
     83  CE1       30.6630   94.8940   22.4330 C.ar  243  PHE243     -0.0003
     84  CE2       31.8480   96.8070   23.2320 C.ar  243  PHE243     -0.0003
     85  CZ        31.5820   95.4620   23.2900 C.ar  243  PHE243     -0.0000
     86  N         30.4900   98.3130   27.1860 N.3   245  TYR245     -0.1241
     87  CA        31.0860   97.4700   28.2030 C.3   245  TYR245      0.1605
     88  C         31.6310   98.4930   29.1910 C.2   245  TYR245      0.2264
     89  O         32.7300   99.0560   29.0470 O.2   245  TYR245     -0.2867
     90  CB        32.2320   96.5970   27.6360 C.3   245  TYR245      0.0534
     91  CG        32.8320   95.5750   28.6180 C.ar  245  TYR245     -0.0201
     92  CD1       33.2010   95.9440   29.8970 C.ar  245  TYR245     -0.0009
     93  CD2       32.9460   94.2360   28.2570 C.ar  245  TYR245     -0.0009
     94  CE1       33.5760   95.0060   30.8210 C.ar  245  TYR245      0.0417
     95  CE2       33.3160   93.2770   29.1850 C.ar  245  TYR245      0.0417
     96  CZ        33.6000   93.6880   30.4690 C.ar  245  TYR245      0.1957
     97  OH        33.9060   92.7920   31.4610 O.3   245  TYR245     -0.2866
     98  N         37.5730   96.6010   31.3430 N.3   255  LYS255     -0.1231
     99  CA        38.2210   95.3320   31.2610 C.3   255  LYS255      0.1693
    100  C         39.0140   95.6390   30.0170 C.2   255  LYS255      0.2592
    101  O         40.2060   95.3690   30.0140 O.2   255  LYS255     -0.2718
    102  CB        37.2040   94.2400   31.0050 C.3   255  LYS255      0.0285
    103  CG        37.7390   92.8450   31.1660 C.3   255  LYS255      0.0035
    104  CD        36.6400   91.8480   30.8320 C.3   255  LYS255      0.0206
    105  CE        37.2530   90.5240   30.3980 C.3   255  LYS255      0.1093
    106  NZ        36.3250   89.6270   29.7260 N.3   255  LYS255     -0.1314
    107  N         38.4220   96.3230   29.0070 N.am  256  LEU256     -0.1966
    108  CA        39.0930   96.5960   27.7310 C.3   256  LEU256      0.1728
    109  C         40.1220   97.7030   27.8630 C.2   256  LEU256      0.2616
    110  O         39.8510   98.7460   28.4760 O.2   256  LEU256     -0.2715
    111  CB        38.0710   96.9640   26.6580 C.3   256  LEU256      0.0311
    112  CG        36.6450   96.4970   26.8020 C.3   256  LEU256      0.0022
    113  CD1       35.8710   97.6320   27.4710 C.3   256  LEU256      0.0001
    114  CD2       36.0350   96.1870   25.4610 C.3   256  LEU256      0.0001
    115  N         41.3100   97.4610   27.2960 N.am  257  ARG257     -0.1977
    116  CA        42.4190   98.3620   27.4930 C.3   257  ARG257      0.1597
    117  C         42.3250   99.3770   26.4090 C.2   257  ARG257      0.2287
    118  O         41.9190   99.2050   25.2570 O.2   257  ARG257     -0.2864
    119  CB        43.7050   97.5700   27.4650 C.3   257  ARG257      0.0334
    120  CG        43.7110   96.5350   28.6450 C.3   257  ARG257      0.0492
    121  CD        43.6260   94.9520   28.4270 C.3   257  ARG257      0.2205
    122  NE        42.5300   94.3110   27.6430 N.pl3 257  ARG257     -0.0865
    123  CZ        42.0670   93.0410   27.8360 C.cat 257  ARG257      0.5346
    124  NH1       42.7900   92.1630   28.5360 N.pl3 257  ARG257      0.1354
    125  NH2       40.9890   92.5380   27.1820 N.pl3 257  ARG257      0.1354
    126  N         42.5290   98.4530   22.6480 N.3   261  GLU261     -0.1245
    127  CA        41.2300   97.9530   22.2480 C.3   261  GLU261      0.1567
    128  C         40.4020   99.1660   22.0070 C.2   261  GLU261      0.2260
    129  O         39.9540   99.4280   20.8900 O.2   261  GLU261     -0.2867
    130  CB        40.5180   97.1390   23.3260 C.3   261  GLU261      0.0388
    131  CG        40.7980   95.6490   23.2760 C.3   261  GLU261      0.1160
    132  CD        41.4020   95.0960   24.5360 C.2   261  GLU261      0.3649
    133  OE1       42.3000   95.7180   25.0850 O.co2 261  GLU261     -0.2457
    134  OE2       40.9300   94.1000   25.0400 O.co2 261  GLU261     -0.2457
@<TRIPOS>BOND
     1    70    69    2
     2    69    68    1
     3    65    66    1
     4    65    62    1
     5    64    63    2
     6     4     3    2
     7     1     2    1
     8     8     6   ar
     9   129   128    2
    10    63    62    1
    11    63    67   am
    12    79    80    1
    13    79    76    1
    14     5     2    1
    15     5     6    1
    16    68    67    1
    17    68    71    1
    18    72    71    1
    19    72    73    1
    20    75    76    1
    21     3     2    1
    22     3     9   am
    23    62    61    1
    24     6     7   ar
    25    81    80   ar
    26    81    83   ar
    27    80    82   ar
    28    45    46    1
    29    73    74    1
    30    76    77    1
    31    61    59   am
    32   128   127    1
    33    13    14    1
    34    13    11   am
    35    47    46    1
    36    47    48    2
    37    14    17    1
    38    14    15    1
    39    16    15    2
    40   127   126    1
    41   127   130    1
    42    10     9    1
    43    10    11    1
    44    46    49    1
    45    82    84   ar
    46    83    85   ar
    47    11    12    2
    48    57    58    1
    49    17    18    1
    50    15    19   am
    51    59    60    2
    52    59    58    1
    53    78    77    2
    54    84    85   ar
    55   131   130    1
    56   131   132    1
    57    49    50    1
    58    19    20    1
    59   132   134   ar
    60   132   133   ar
    61    50    51   ar
    62    50    52   ar
    63    51    53   ar
    64    20    21    1
    65    20    23    1
    66    21    22    2
    67   118   117    2
    68    52    54   ar
    69   114   112    1
    70    24    23    1
    71    53    55   ar
    72    54    55   ar
    73    55    56    1
    74   117   116    1
    75   111   112    1
    76   111   108    1
    77   112   113    1
    78   125   123    1
    79    86    87    1
    80   115   116    1
    81   115   109   am
    82   119   116    1
    83   119   120    1
    84    90    87    1
    85    90    91    1
    86   122   123    2
    87   122   121    1
    88   108   109    1
    89   108   107    1
    90   123   124    1
    91    25    26    1
    92   109   110    2
    93    87    88    1
    94    93    91   ar
    95    93    95   ar
    96   121   120    1
    97    26    29    1
    98    26    27    1
    99    91    92   ar
   100   107   100   am
   101    89    88    2
   102    95    96   ar
   103    29    30    1
   104    27    28    2
   105   106   105    1
   106    92    94   ar
   107   101   100    2
   108   100    99    1
   109    30    31    2
   110    30    32   am
   111   105   104    1
   112    96    94   ar
   113    96    97    1
   114   104   103    1
   115   102   103    1
   116   102    99    1
   117    99    98    1
   118    44    43    1
   119    41    43   ar
   120    41    39   ar
   121    43    42   ar
   122    39    38   ar
   123    42    40   ar
   124    33    34    1
   125    38    40   ar
   126    38    37    1
   127    35    34    1
   128    35    36    2
   129    34    37    1
