@<TRIPOS>MOLECULE
tmp/3fbrA00.pdb
 230 216 0 0 0
SMALL
GASTEIGER

@<TRIPOS>ATOM
      1  N          8.6240   20.7350   70.0030 N.3    66  ASP66      -0.1239
      2  CA         8.1510   19.6410   70.7970 C.3    66  ASP66       0.1674
      3  C          6.9090   20.0010   71.5470 C.2    66  ASP66       0.2266
      4  O          6.5380   19.3290   72.5040 O.2    66  ASP66      -0.2867
      5  CB         9.2450   19.1610   71.7460 C.3    66  ASP66       0.1410
      6  CG        10.2550   18.2810   71.0430 C.2    66  ASP66       0.3668
      7  OD1       11.0830   18.7880   70.2650 O.co2  66  ASP66      -0.2456
      8  OD2       10.1840   17.0620   71.2380 O.co2  66  ASP66      -0.2456
      9  N         17.7770   23.8490   63.0910 N.3    97  VAL97      -0.1245
     10  CA        18.9060   23.3940   63.9070 C.3    97  VAL97       0.1561
     11  C         19.7910   22.4830   63.0540 C.2    97  VAL97       0.2260
     12  O         19.3380   21.4520   62.5610 O.2    97  VAL97      -0.2867
     13  CB        18.4030   22.5950   65.1370 C.3    97  VAL97       0.0252
     14  CG1       19.5760   22.1150   65.9660 C.3    97  VAL97       0.0019
     15  CG2       17.4600   23.4520   65.9740 C.3    97  VAL97       0.0019
     16  N         12.9630   25.4870   65.2650 N.3   150  VAL150     -0.1231
     17  CA        13.8440   25.0950   66.3490 C.3   150  VAL150      0.1692
     18  C         13.1380   24.0010   67.1090 C.2   150  VAL150      0.2592
     19  O         11.9170   24.0220   67.2230 O.2   150  VAL150     -0.2718
     20  CB        14.0850   26.2390   67.3580 C.3   150  VAL150      0.0266
     21  CG1       15.3230   25.9220   68.1770 C.3   150  VAL150      0.0020
     22  CG2       14.2110   27.5770   66.6440 C.3   150  VAL150      0.0020
     23  N         13.9050   23.0620   67.6490 N.am  151  ALA151     -0.1966
     24  CA        13.3410   21.9640   68.4280 C.3   151  ALA151      0.1728
     25  C         12.8230   22.4300   69.7950 C.2   151  ALA151      0.2617
     26  O         12.3430   23.5520   69.9400 O.2   151  ALA151     -0.2715
     27  CB        14.3900   20.8760   68.6050 C.3   151  ALA151      0.0334
     28  N         12.9000   21.5530   70.7900 N.am  152  GLY152     -0.1940
     29  CA        12.4500   21.9120   72.1260 C.3   152  GLY152      0.2014
     30  C         10.9570   22.1440   72.3080 C.2   152  GLY152      0.2639
     31  O         10.1810   21.9920   71.3660 O.2   152  GLY152     -0.2714
     32  N         10.5600   22.5250   73.5230 N.am  153  ALA153     -0.1963
     33  CA         9.1530   22.7620   73.8540 C.3   153  ALA153      0.1728
     34  C          8.9030   24.1570   74.4530 C.2   153  ALA153      0.2616
     35  O          7.7480   24.6180   74.5450 O.2   153  ALA153     -0.2715
     36  CB         8.6790   21.7040   74.8240 C.3   153  ALA153      0.0334
     37  N          9.9900   24.8210   74.8530 N.am  154  GLN154     -0.1977
     38  CA         9.9420   26.1640   75.4540 C.3   154  GLN154      0.1601
     39  C          9.6640   27.2720   74.4300 C.2   154  GLN154      0.2287
     40  O         10.1710   27.2240   73.3160 O.2   154  GLN154     -0.2864
     41  CB        11.2750   26.4450   76.1680 C.3   154  GLN154      0.0394
     42  CG        11.3630   27.7980   76.8650 C.3   154  GLN154      0.0908
     43  CD        12.6840   27.9950   77.5940 C.2   154  GLN154      0.2608
     44  OE1       13.5380   27.1040   77.6500 O.2   154  GLN154     -0.2717
     45  NE2       12.8480   29.1670   78.1670 N.am  154  GLN154     -0.0878
     46  N         10.4060   29.8770   72.3890 N.3   156  LYS156     -0.1245
     47  CA        11.6470   30.5390   72.0160 C.3   156  LYS156      0.1561
     48  C         11.5830   31.1410   70.6160 C.2   156  LYS156      0.2260
     49  O         10.5260   31.1900   70.0020 O.2   156  LYS156     -0.2867
     50  CB        12.8050   29.5390   72.1070 C.3   156  LYS156      0.0271
     51  CG        12.8680   28.5850   70.9400 C.3   156  LYS156      0.0035
     52  CD        13.6600   27.3440   71.2740 C.3   156  LYS156      0.0206
     53  CE        12.8710   26.4180   72.1740 C.3   156  LYS156      0.1093
     54  NZ        11.6930   25.8220   71.4840 N.3   156  LYS156     -0.1314
     55  N         19.3610   31.9510   69.8100 N.3   178  ILE178     -0.1245
     56  CA        18.1270   31.2800   70.1900 C.3   178  ILE178      0.1561
     57  C         17.5830   31.8860   71.4640 C.2   178  ILE178      0.2260
     58  O         17.8750   31.4380   72.5780 O.2   178  ILE178     -0.2867
     59  CB        18.3320   29.7900   70.3950 C.3   178  ILE178      0.0252
     60  CG1       18.5260   29.1250   69.0330 C.3   178  ILE178      0.0019
     61  CG2       17.1420   29.2100   71.1310 C.3   178  ILE178      0.0019
     62  CD1       19.0300   27.7130   69.1200 C.3   178  ILE178      0.0001
     63  N         15.1380   32.2610   74.0520 N.3   180  LYS180     -0.1245
     64  CA        14.1070   31.4850   74.7040 C.3   180  LYS180      0.1561
     65  C         13.4050   32.3700   75.7260 C.2   180  LYS180      0.2260
     66  O         14.0650   33.1600   76.3950 O.2   180  LYS180     -0.2867
     67  CB        14.7410   30.2770   75.4000 C.3   180  LYS180      0.0271
     68  CG        15.4910   29.3250   74.4790 C.3   180  LYS180      0.0035
     69  CD        16.6860   28.6830   75.1700 C.3   180  LYS180      0.0206
     70  CE        16.3190   27.8130   76.3550 C.3   180  LYS180      0.1093
     71  NZ        17.5300   27.0450   76.7670 N.3   180  LYS180     -0.1314
     72  N          6.6710   23.8270   79.5990 N.3   185  GLU185     -0.1245
     73  CA         6.8360   22.6670   80.4960 C.3   185  GLU185      0.1567
     74  C          8.2770   22.1300   80.6560 C.2   185  GLU185      0.2260
     75  O          9.1750   22.4100   79.8510 O.2   185  GLU185     -0.2867
     76  CB         5.9550   21.5060   80.0410 C.3   185  GLU185      0.0388
     77  CG         5.1420   21.7410   78.7900 C.3   185  GLU185      0.1160
     78  CD         4.3800   20.4920   78.3800 C.2   185  GLU185      0.3649
     79  OE1        3.3650   20.1630   79.0510 O.co2 185  GLU185     -0.2457
     80  OE2        4.8070   19.8280   77.4020 O.co2 185  GLU185     -0.2457
     81  N         18.3110   29.3760   84.1110 N.3   202  GLU202     -0.1245
     82  CA        19.1370   28.8550   83.0500 C.3   202  GLU202      0.1567
     83  C         20.4760   29.5760   83.0200 C.2   202  GLU202      0.2260
     84  O         21.5070   28.9230   83.0490 O.2   202  GLU202     -0.2867
     85  CB        18.4160   28.9750   81.7070 C.3   202  GLU202      0.0388
     86  CG        19.3370   28.7540   80.5230 C.3   202  GLU202      0.1160
     87  CD        18.9130   27.6150   79.6210 C.2   202  GLU202      0.3649
     88  OE1       17.7380   27.6090   79.1850 O.co2 202  GLU202     -0.2457
     89  OE2       19.7720   26.7430   79.3390 O.co2 202  GLU202     -0.2457
     90  N         27.4260   26.6500   75.8600 N.3   217  PRO217     -0.2116
     91  CA        27.2930   27.7600   74.9110 C.3   217  PRO217      0.1372
     92  C         27.4250   29.1650   75.4990 C.2   217  PRO217      0.2244
     93  O         27.2320   29.3690   76.6970 O.2   217  PRO217     -0.2868
     94  CB        25.9120   27.5160   74.3040 C.3   217  PRO217      0.0268
     95  CG        25.1610   26.9450   75.4500 C.3   217  PRO217      0.0207
     96  CD        26.1440   25.9400   76.0030 C.3   217  PRO217      0.0892
     97  N         21.1660   32.6490   73.4740 N.3   232  VAL232     -0.1231
     98  CA        22.3480   31.7920   73.4760 C.3   232  VAL232      0.1692
     99  C         22.9960   31.7380   72.0960 C.2   232  VAL232      0.2592
    100  O         22.3020   31.5290   71.1000 O.2   232  VAL232     -0.2718
    101  CB        21.9550   30.3810   73.8790 C.3   232  VAL232      0.0266
    102  CG1       23.1860   29.5690   74.2120 C.3   232  VAL232      0.0020
    103  CG2       20.9950   30.4490   75.0370 C.3   232  VAL232      0.0020
    104  N         24.3180   31.9220   72.0390 N.am  233  GLU233     -0.1966
    105  CA        25.0740   31.9080   70.7740 C.3   233  GLU233      0.1733
    106  C         25.1650   30.5320   70.1090 C.2   233  GLU233      0.2616
    107  O         26.0900   29.7620   70.3580 O.2   233  GLU233     -0.2715
    108  CB        26.4950   32.4750   70.9990 C.3   233  GLU233      0.0429
    109  CG        27.3880   32.5730   69.7340 C.3   233  GLU233      0.1163
    110  CD        28.6900   33.3890   69.9340 C.2   233  GLU233      0.3649
    111  OE1       28.6870   34.6310   69.7430 O.co2 233  GLU233     -0.2457
    112  OE2       29.7260   32.7840   70.2900 O.co2 233  GLU233     -0.2457
    113  N         24.1960   30.2440   69.2510 N.am  234  ARG234     -0.1963
    114  CA        24.1370   28.9910   68.5240 C.3   234  ARG234      0.1729
    115  C         25.5170   28.4530   68.2550 C.2   234  ARG234      0.2616
    116  O         26.3700   29.1750   67.7520 O.2   234  ARG234     -0.2715
    117  CB        23.4330   29.2240   67.2010 C.3   234  ARG234      0.0348
    118  CG        22.0940   29.9070   67.3680 C.3   234  ARG234      0.0492
    119  CD        21.2880   29.8290   66.1000 C.3   234  ARG234      0.2205
    120  NE        21.2100   28.4570   65.6150 N.pl3 234  ARG234     -0.0865
    121  CZ        20.1430   27.9390   65.0320 C.cat 234  ARG234      0.5346
    122  NH1       20.1650   26.6790   64.6220 N.pl3 234  ARG234      0.1354
    123  NH2       19.0670   28.6850   64.8620 N.pl3 234  ARG234      0.1354
    124  N         25.7560   27.1930   68.5860 N.am  235  PHE235     -0.1960
    125  CA        27.0720   26.6420   68.3300 C.3   235  PHE235      0.1771
    126  C         27.0920   25.8420   67.0360 C.2   235  PHE235      0.2619
    127  O         28.0220   25.0740   66.7980 O.2   235  PHE235     -0.2715
    128  CB        27.5530   25.8020   69.5260 C.3   235  PHE235      0.0574
    129  CG        26.6080   24.7150   69.9300 C.ar  235  PHE235     -0.0200
    130  CD1       26.4480   23.5840   69.1440 C.ar  235  PHE235     -0.0042
    131  CD2       25.8820   24.8180   71.1050 C.ar  235  PHE235     -0.0042
    132  CE1       25.5770   22.5680   69.5220 C.ar  235  PHE235     -0.0003
    133  CE2       25.0050   23.8070   71.4950 C.ar  235  PHE235     -0.0003
    134  CZ        24.8580   22.6840   70.6970 C.ar  235  PHE235     -0.0000
    135  N         26.0730   26.0490   66.2000 N.am  236  ASP236     -0.1971
    136  CA        25.9710   25.3660   64.9080 C.3   236  ASP236      0.1709
    137  C         25.8750   26.4060   63.7940 C.2   236  ASP236      0.2293
    138  O         25.2620   26.1870   62.7430 O.2   236  ASP236     -0.2864
    139  CB        24.7430   24.4440   64.8820 C.3   236  ASP236      0.1436
    140  CG        23.4270   25.1960   64.9880 C.2   236  ASP236      0.3671
    141  OD1       23.4360   26.3710   65.4020 O.co2 236  ASP236     -0.2456
    142  OD2       22.3790   24.5960   64.6700 O.co2 236  ASP236     -0.2456
    143  N         24.5410   19.2860   62.2630 N.3   251  GLN251     -0.1245
    144  CA        24.3870   18.7830   63.6150 C.3   251  GLN251      0.1566
    145  C         23.0520   18.0590   63.7890 C.2   251  GLN251      0.2260
    146  O         22.0930   18.2880   63.0460 O.2   251  GLN251     -0.2867
    147  CB        24.4680   19.9700   64.5750 C.3   251  GLN251      0.0367
    148  CG        24.2870   19.6350   66.0350 C.3   251  GLN251      0.0905
    149  CD        23.8080   20.8410   66.8190 C.2   251  GLN251      0.2608
    150  OE1       24.4670   21.8770   66.8380 O.2   251  GLN251     -0.2717
    151  NE2       22.6560   20.7120   67.4700 N.am  251  GLN251     -0.0878
    152  N         20.8680   15.6240   67.1940 N.3   253  ASP253     -0.1239
    153  CA        20.8710   15.1960   68.5980 C.3   253  ASP253      0.1674
    154  C         20.9060   13.6850   68.7940 C.2   253  ASP253      0.2266
    155  O         21.1320   12.9370   67.8510 O.2   253  ASP253     -0.2867
    156  CB        19.6570   15.7890   69.3100 C.3   253  ASP253      0.1410
    157  CG        18.3610   15.2680   68.7620 C.2   253  ASP253      0.3668
    158  OD1       17.3650   16.0170   68.8030 O.co2 253  ASP253     -0.2456
    159  OD2       18.3190   14.1090   68.2830 O.co2 253  ASP253     -0.2456
    160  N         11.9010    9.5840   73.7260 N.3   265  LYS265     -0.1245
    161  CA        13.0680   10.3890   74.0620 C.3   265  LYS265      0.1561
    162  C         13.4920   10.2150   75.5030 C.2   265  LYS265      0.2260
    163  O         14.6410   10.4590   75.8370 O.2   265  LYS265     -0.2867
    164  CB        12.8270   11.8800   73.7590 C.3   265  LYS265      0.0271
    165  CG        11.8510   12.6150   74.6810 C.3   265  LYS265      0.0035
    166  CD        11.4440   13.9790   74.0850 C.3   265  LYS265      0.0206
    167  CE        10.1450   14.4910   74.7280 C.3   265  LYS265      0.1093
    168  NZ         9.4740   15.6530   74.0520 N.3   265  LYS265     -0.1314
    169  N         15.6210   17.3090   83.5660 N.3   308  GLN308     -0.1245
    170  CA        15.2100   17.2690   82.1600 C.3   308  GLN308      0.1566
    171  C         16.4540   17.3040   81.2820 C.2   308  GLN308      0.2260
    172  O         16.7210   18.2990   80.6050 O.2   308  GLN308     -0.2867
    173  CB        14.2760   18.4290   81.7760 C.3   308  GLN308      0.0367
    174  CG        13.7720   18.2920   80.3090 C.3   308  GLN308      0.0905
    175  CD        12.6900   19.3120   79.8730 C.2   308  GLN308      0.2608
    176  OE1       12.9240   20.5290   79.8830 O.2   308  GLN308     -0.2717
    177  NE2       11.5170   18.8030   79.4520 N.am  308  GLN308     -0.0878
    178  N         17.1490   14.7370   79.0560 N.3   310  HIS310     -0.1241
    179  CA        16.8770   13.6020   78.1940 C.3   310  HIS310      0.1621
    180  C         17.7450   13.4390   76.9690 C.2   310  HIS310      0.2264
    181  O         18.6980   14.1830   76.7300 O.2   310  HIS310     -0.2867
    182  CB        15.4140   13.6160   77.7750 C.3   310  HIS310      0.0745
    183  CG        14.9680   14.9210   77.2350 C.ar  310  HIS310      0.0817
    184  ND1       15.4430   15.4320   76.0500 N.ar  310  HIS310     -0.2268
    185  CD2       14.1110   15.8370   77.7320 C.ar  310  HIS310      0.1154
    186  CE1       14.8900   16.6120   75.8390 C.ar  310  HIS310      0.1986
    187  NE2       14.0770   16.8830   76.8450 N.ar  310  HIS310     -0.2212
    188  N         16.9730   14.0300   73.9230 N.3   312  LYS312     -0.1231
    189  CA        16.9420   15.0800   72.9150 C.3   312  LYS312      0.1693
    190  C         17.7770   16.2880   73.2660 C.2   312  LYS312      0.2592
    191  O         17.8370   17.2520   72.5020 O.2   312  LYS312     -0.2718
    192  CB        15.5120   15.5140   72.5570 C.3   312  LYS312      0.0285
    193  CG        14.9700   14.7810   71.3280 C.3   312  LYS312      0.0035
    194  CD        13.6170   15.3170   70.8560 C.3   312  LYS312      0.0206
    195  CE        13.7230   16.6120   70.0290 C.3   312  LYS312      0.1093
    196  NZ        13.9630   16.4120   68.5590 N.3   312  LYS312     -0.1314
    197  N         18.4420   16.2370   74.4150 N.am  313  ASN313     -0.1974
    198  CA        19.2910   17.3480   74.8330 C.3   313  ASN313      0.1688
    199  C         20.7850   17.0710   74.6970 C.2   313  ASN313      0.2292
    200  O         21.5770   17.6140   75.4500 O.2   313  ASN313     -0.2864
    201  CB        18.9820   17.7550   76.2740 C.3   313  ASN313      0.1181
    202  CG        17.9310   18.8110   76.3540 C.2   313  ASN313      0.2629
    203  OD1       18.1730   19.9720   76.0570 O.2   313  ASN313     -0.2716
    204  ND2       16.7440   18.4150   76.7370 N.am  313  ASN313     -0.0877
    205  N         23.7950   16.3420   71.4250 N.3   315  SER315     -0.1217
    206  CA        23.9990   16.2500   69.9830 C.3   315  SER315      0.1889
    207  C         25.3870   15.8170   69.5740 C.2   315  SER315      0.2288
    208  O         26.2180   15.4530   70.4020 O.2   315  SER315     -0.2866
    209  CB        23.7090   17.6050   69.3300 C.3   315  SER315      0.2089
    210  OG        22.4930   18.1780   69.8120 O.3   315  SER315     -0.2183
    211  N         24.1410   22.1750   75.7340 N.3   330  TYR330     -0.1227
    212  CA        23.1060   23.1860   75.7460 C.3   330  TYR330      0.1736
    213  C         21.9910   22.8580   76.7340 C.2   330  TYR330      0.2595
    214  O         22.0220   21.8290   77.3970 O.2   330  TYR330     -0.2718
    215  CB        22.5350   23.3500   74.3350 C.3   330  TYR330      0.0548
    216  CG        21.9810   22.0710   73.7460 C.ar  330  TYR330     -0.0200
    217  CD1       20.7570   21.5670   74.1500 C.ar  330  TYR330     -0.0009
    218  CD2       22.7130   21.3400   72.8170 C.ar  330  TYR330     -0.0009
    219  CE1       20.2810   20.3670   73.6490 C.ar  330  TYR330      0.0417
    220  CE2       22.2420   20.1380   72.3110 C.ar  330  TYR330      0.0417
    221  CZ        21.0280   19.6580   72.7300 C.ar  330  TYR330      0.1957
    222  OH        20.5540   18.4780   72.2120 O.3   330  TYR330     -0.2866
    223  N         21.0160   23.7570   76.8330 N.am  331  ASP331     -0.1974
    224  CA        19.8610   23.5970   77.7130 C.3   331  ASP331      0.1709
    225  C         20.1720   23.1160   79.1470 C.2   331  ASP331      0.2293
    226  O         20.1580   21.9110   79.4200 O.2   331  ASP331     -0.2864
    227  CB        18.8720   22.6400   77.0640 C.3   331  ASP331      0.1436
    228  CG        17.5190   22.7230   77.6870 C.2   331  ASP331      0.3671
    229  OD1       17.4560   23.1640   78.8510 O.co2 331  ASP331     -0.2456
    230  OD2       16.5170   22.3540   77.0430 O.co2 331  ASP331     -0.2456
@<TRIPOS>BOND
     1   143   144    1
     2    12    11    2
     3   138   137    2
     4   146   145    2
     5    11    10    1
     6     9    10    1
     7   144   145    1
     8   144   147    1
     9   137   136    1
    10    10    13    1
    11   147   148    1
    12   122   121    1
    13   142   140   ar
    14   123   121    1
    15   139   136    1
    16   139   140    1
    17   136   135    1
    18   140   141   ar
    19   121   120    2
    20    13    14    1
    21    13    15    1
    22    16    17    1
    23   120   119    1
    24   148   149    1
    25   119   118    1
    26   135   126   am
    27    17    18    1
    28    17    20    1
    29    22    20    1
    30   127   126    2
    31   149   150    2
    32   149   151   am
    33   126   125    1
    34    18    19    2
    35    18    23   am
    36   152   153    1
    37   117   118    1
    38   117   114    1
    39    20    21    1
    40    23    24    1
    41   116   115    2
    42   155   154    2
    43   115   114    1
    44   115   124   am
    45   159   157   ar
    46   125   124    1
    47   125   128    1
    48    24    27    1
    49    24    25    1
    50   114   113    1
    51   196   195    1
    52   153   154    1
    53   153   156    1
    54   157   158   ar
    55   157   156    1
    56    60    62    1
    57    60    59    1
    58   130   132   ar
    59   130   129   ar
    60   113   106   am
    61   209   210    1
    62   209   206    1
    63   132   134   ar
    64   128   129    1
    65   207   206    1
    66   207   208    2
    67   109   110    1
    68   109   108    1
    69   111   110   ar
    70    25    26    2
    71    25    28   am
    72    55    56    1
    73   129   131   ar
    74   110   112   ar
    75   206   205    1
    76    49    48    2
    77     1     2    1
    78   195   194    1
    79   106   107    2
    80   106   105    1
    81    56    59    1
    82    56    57    1
    83     7     6   ar
    84    59    61    1
    85    48    47    1
    86   134   133   ar
    87   105   108    1
    88   105   104    1
    89    28    29    1
    90     2     3    1
    91     2     5    1
    92   194   193    1
    93    51    52    1
    94    51    50    1
    95     6     8   ar
    96     6     5    1
    97   100    99    2
    98   131   133   ar
    99    52    53    1
   100   193   192    1
   101    31    30    2
   102    57    58    2
   103    54    53    1
   104     3     4    2
   105    47    50    1
   106    47    46    1
   107   104    99   am
   108    99    98    1
   109    29    30    1
   110   222   221    1
   111    30    32   am
   112   220   221   ar
   113   220   218   ar
   114   191   190    2
   115   192   189    1
   116   221   219   ar
   117   218   216   ar
   118   189   190    1
   119   189   188    1
   120   190   197   am
   121    40    39    2
   122    97    98    1
   123    98   101    1
   124    32    33    1
   125   219   217   ar
   126   160   161    1
   127   216   217   ar
   128   216   215    1
   129   164   161    1
   130   164   165    1
   131    33    34    1
   132    33    36    1
   133   101   102    1
   134   101   103    1
   135    63    64    1
   136   168   167    1
   137   161   162    1
   138   166   165    1
   139   166   167    1
   140    94    91    1
   141    94    95    1
   142   215   212    1
   143   197   198    1
   144    39    38    1
   145    34    35    2
   146    34    37   am
   147    68    69    1
   148    68    67    1
   149   199   198    1
   150   199   200    2
   151    64    67    1
   152    64    65    1
   153   198   201    1
   154    37    38    1
   155    91    92    1
   156    91    90    1
   157    69    70    1
   158    95    96    1
   159    38    41    1
   160    92    93    2
   161   162   163    2
   162    65    66    2
   163   211   212    1
   164   212   213    1
   165   186   184   ar
   166   186   187   ar
   167    90    96    1
   168   184   183   ar
   169   203   202    2
   170    41    42    1
   171   201   202    1
   172   202   204   am
   173    70    71    1
   174   181   180    2
   175   213   223   am
   176   213   214    2
   177   223   224    1
   178   187   185   ar
   179    42    43    1
   180   180   179    1
   181   230   228   ar
   182   227   228    1
   183   227   224    1
   184   183   185   ar
   185   183   182    1
   186    80    78   ar
   187    43    44    2
   188    43    45   am
   189   228   229   ar
   190   224   225    1
   191   182   179    1
   192   179   178    1
   193    78    77    1
   194    78    79   ar
   195    77    76    1
   196   225   226    2
   197    88    87   ar
   198    89    87   ar
   199   177   175   am
   200    72    73    1
   201    87    86    1
   202    75    74    2
   203   175   176    2
   204   175   174    1
   205    76    73    1
   206   174   173    1
   207    73    74    1
   208    86    85    1
   209   172   171    2
   210   171   170    1
   211    85    82    1
   212   173   170    1
   213   170   169    1
   214    83    84    2
   215    83    82    1
   216    82    81    1
