@<TRIPOS>MOLECULE
tmp/3fbuA00.pdb
 214 213 0 0 0
SMALL
GASTEIGER

@<TRIPOS>ATOM
      1  N         39.3940   63.1120   19.6340 N.3    29  ASP29      -0.1225
      2  CA        38.6210   62.2170   20.4700 C.3    29  ASP29       0.1805
      3  C         37.1550   62.2320   20.0450 C.2    29  ASP29       0.2597
      4  O         36.5370   61.1750   19.9500 O.2    29  ASP29      -0.2718
      5  CB        38.7460   62.5830   21.9450 C.3    29  ASP29       0.1424
      6  CG        40.1320   62.2600   22.5070 C.2    29  ASP29       0.3668
      7  OD1       40.7760   61.2960   21.9980 O.co2  29  ASP29      -0.2456
      8  OD2       40.5710   62.9680   23.4510 O.co2  29  ASP29      -0.2456
      9  N         36.6130   63.4160   19.7500 N.am   30  VAL30      -0.1980
     10  CA        35.2240   63.5160   19.2830 C.3    30  VAL30       0.1595
     11  C         34.9930   62.7480   17.9820 C.2    30  VAL30       0.2287
     12  O         33.9860   62.0680   17.8420 O.2    30  VAL30      -0.2864
     13  CB        34.7770   64.9850   19.0880 C.3    30  VAL30       0.0276
     14  CG1       33.3840   65.0500   18.4020 C.3    30  VAL30       0.0022
     15  CG2       34.7860   65.7080   20.4260 C.3    30  VAL30       0.0022
     16  N         35.1790   57.9330   15.8970 N.3    33  TYR33      -0.1227
     17  CA        34.3000   56.9950   15.1930 C.3    33  TYR33       0.1736
     18  C         33.6130   57.5730   14.0040 C.2    33  TYR33       0.2595
     19  O         32.7820   56.9570   13.4240 O.2    33  TYR33      -0.2718
     20  CB        33.2650   56.3990   16.1280 C.3    33  TYR33       0.0548
     21  CG        33.8380   55.6320   17.2410 C.ar   33  TYR33      -0.0200
     22  CD1       34.3750   54.3820   17.0360 C.ar   33  TYR33      -0.0009
     23  CD2       33.8660   56.1450   18.5070 C.ar   33  TYR33      -0.0009
     24  CE1       34.9050   53.6780   18.0620 C.ar   33  TYR33       0.0417
     25  CE2       34.3850   55.4450   19.5200 C.ar   33  TYR33       0.0417
     26  CZ        34.9150   54.2260   19.2900 C.ar   33  TYR33       0.1957
     27  OH        35.4360   53.5480   20.3050 O.3    33  TYR33      -0.2866
     28  N         33.9410   58.7890   13.6580 N.am   34  ILE34      -0.1980
     29  CA        33.3320   59.4240   12.5380 C.3    34  ILE34       0.1595
     30  C         34.2330   59.0810   11.3590 C.2    34  ILE34       0.2287
     31  O         35.4200   59.1910   11.4520 O.2    34  ILE34      -0.2864
     32  CB        33.2980   60.9400   12.6750 C.3    34  ILE34       0.0276
     33  CG1       32.5660   61.4280   13.9230 C.3    34  ILE34       0.0022
     34  CG2       32.7200   61.5620   11.4870 C.3    34  ILE34       0.0022
     35  CD1       31.4050   60.7370   14.3040 C.3    34  ILE34       0.0001
     36  N         21.7210   60.2610   14.2470 N.3    85  GLY85      -0.1210
     37  CA        23.0150   60.2700   14.8690 C.3    85  GLY85       0.1956
     38  C         23.2260   61.5920   15.5690 C.2    85  GLY85       0.2612
     39  O         22.3290   62.4480   15.5840 O.2    85  GLY85      -0.2717
     40  N         24.4350   61.7870   16.0890 N.am   86  TRP86      -0.1962
     41  CA        24.6890   62.8970   17.0080 C.3    86  TRP86       0.1771
     42  C         26.1800   63.0850   17.1660 C.2    86  TRP86       0.2619
     43  O         26.9000   62.1120   17.2520 O.2    86  TRP86      -0.2715
     44  CB        24.0660   62.5820   18.3810 C.3    86  TRP86       0.0590
     45  CG        24.0240   61.1210   18.6980 C.ar   86  TRP86       0.0006
     46  CD1       25.0570   60.3170   19.0830 C.ar   86  TRP86       0.0946
     47  CD2       22.8780   60.2820   18.6160 C.ar   86  TRP86       0.0152
     48  NE1       24.6150   59.0150   19.2580 N.ar   86  TRP86      -0.2442
     49  CE2       23.2790   58.9690   18.9810 C.ar   86  TRP86       0.0810
     50  CE3       21.5480   60.5060   18.2640 C.ar   86  TRP86       0.0012
     51  CZ2       22.4020   57.9010   18.9760 C.ar   86  TRP86       0.0191
     52  CZ3       20.6850   59.4500   18.2700 C.ar   86  TRP86       0.0001
     53  CH2       21.1010   58.1690   18.6350 C.ar   86  TRP86       0.0015
     54  N         26.6290   64.3420   17.2240 N.am   87  VAL87      -0.1963
     55  CA        28.0150   64.6850   17.5300 C.3    87  VAL87       0.1727
     56  C         27.9660   65.9460   18.4050 C.2    87  VAL87       0.2616
     57  O         27.3680   66.9550   18.0050 O.2    87  VAL87      -0.2715
     58  CB        28.8460   64.9890   16.2630 C.3    87  VAL87       0.0290
     59  CG1       30.3290   65.2440   16.6350 C.3    87  VAL87       0.0023
     60  CG2       28.6770   63.8400   15.1560 C.3    87  VAL87       0.0023
     61  N         28.5750   65.8570   19.5880 N.am   88  PHE88      -0.1974
     62  CA        28.4530   66.8990   20.6040 C.3    88  PHE88       0.1639
     63  C         29.8270   67.3450   21.0770 C.2    88  PHE88       0.2290
     64  O         30.8360   66.6610   20.8730 O.2    88  PHE88      -0.2864
     65  CB        27.5880   66.4230   21.7880 C.3    88  PHE88       0.0560
     66  CG        26.1190   66.5760   21.5460 C.ar   88  PHE88      -0.0200
     67  CD1       25.4770   65.7810   20.6150 C.ar   88  PHE88      -0.0042
     68  CD2       25.3850   67.5020   22.2270 C.ar   88  PHE88      -0.0042
     69  CE1       24.1570   65.9390   20.3660 C.ar   88  PHE88      -0.0003
     70  CE2       24.0580   67.6470   21.9910 C.ar   88  PHE88      -0.0003
     71  CZ        23.4340   66.8630   21.0600 C.ar   88  PHE88      -0.0000
     72  N         30.1230   69.5890   27.0370 N.3    92  TYR92      -0.1227
     73  CA        28.7290   69.4300   27.4410 C.3    92  TYR92       0.1736
     74  C         28.2560   67.9770   27.5440 C.2    92  TYR92       0.2595
     75  O         27.0690   67.7210   27.6650 O.2    92  TYR92      -0.2718
     76  CB        27.8380   70.2410   26.4890 C.3    92  TYR92       0.0548
     77  CG        28.2440   71.6960   26.4770 C.ar   92  TYR92      -0.0200
     78  CD1       27.7620   72.5770   27.4430 C.ar   92  TYR92      -0.0009
     79  CD2       29.1500   72.1780   25.5390 C.ar   92  TYR92      -0.0009
     80  CE1       28.1490   73.9060   27.4550 C.ar   92  TYR92       0.0417
     81  CE2       29.5550   73.5170   25.5570 C.ar   92  TYR92       0.0417
     82  CZ        29.0460   74.3650   26.5160 C.ar   92  TYR92       0.1957
     83  OH        29.4250   75.6860   26.5400 O.3    92  TYR92      -0.2866
     84  N         29.1930   67.0390   27.5440 N.am   93  PHE93      -0.1962
     85  CA        28.8670   65.6200   27.6800 C.3    93  PHE93       0.1771
     86  C         28.2540   65.2720   29.0400 C.2    93  PHE93       0.2619
     87  O         28.4780   65.9620   30.0600 O.2    93  PHE93      -0.2715
     88  CB        30.1270   64.7440   27.5230 C.3    93  PHE93       0.0574
     89  CG        30.6480   64.6200   26.1160 C.ar   93  PHE93      -0.0200
     90  CD1       29.9620   65.1370   25.0230 C.ar   93  PHE93      -0.0042
     91  CD2       31.8320   63.9310   25.8840 C.ar   93  PHE93      -0.0042
     92  CE1       30.4670   64.9790   23.7380 C.ar   93  PHE93      -0.0003
     93  CE2       32.3350   63.7770   24.5940 C.ar   93  PHE93      -0.0003
     94  CZ        31.6410   64.3170   23.5170 C.ar   93  PHE93      -0.0000
     95  N         27.4970   64.1800   29.0350 N.am   94  ASN94      -0.1972
     96  CA        27.0140   63.5440   30.2400 C.3    94  ASN94       0.1688
     97  C         26.0930   64.4290   31.0610 C.2    94  ASN94       0.2292
     98  O         26.0300   64.3110   32.2870 O.2    94  ASN94      -0.2864
     99  CB        28.2090   63.0470   31.0660 C.3    94  ASN94       0.1181
    100  CG        29.0510   62.0540   30.2980 C.2    94  ASN94       0.2629
    101  OD1       28.5170   61.1280   29.6970 O.2    94  ASN94      -0.2716
    102  ND2       30.3520   62.2510   30.2870 N.am   94  ASN94      -0.0877
    103  N         22.9070   64.7540   29.4340 N.3    96  GLY96      -0.1210
    104  CA        21.6380   64.3540   28.8470 C.3    96  GLY96       0.1956
    105  C         21.2160   65.1260   27.6200 C.2    96  GLY96       0.2612
    106  O         20.0970   64.9540   27.1340 O.2    96  GLY96      -0.2717
    107  N         22.1030   65.9520   27.0930 N.am   97  TYR97      -0.1962
    108  CA        21.7450   66.7780   25.9480 C.3    97  TYR97       0.1771
    109  C         21.5000   65.9480   24.6860 C.2    97  TYR97       0.2619
    110  O         20.5330   66.2060   23.9790 O.2    97  TYR97      -0.2715
    111  CB        22.8040   67.8370   25.6810 C.3    97  TYR97       0.0574
    112  CG        22.8920   68.9080   26.7730 C.ar   97  TYR97      -0.0198
    113  CD1       21.7590   69.3870   27.4100 C.ar   97  TYR97      -0.0009
    114  CD2       24.1100   69.4500   27.1190 C.ar   97  TYR97      -0.0009
    115  CE1       21.8510   70.3840   28.3870 C.ar   97  TYR97       0.0417
    116  CE2       24.2140   70.4420   28.0700 C.ar   97  TYR97       0.0417
    117  CZ        23.0820   70.8980   28.7090 C.ar   97  TYR97       0.1957
    118  OH        23.1910   71.8700   29.6780 O.3    97  TYR97      -0.2866
    119  N         22.3980   65.0110   24.3900 N.am   98  ALA98      -0.1963
    120  CA        22.2390   64.2000   23.1600 C.3    98  ALA98       0.1728
    121  C         20.9330   63.4400   23.2470 C.2    98  ALA98       0.2616
    122  O         20.1640   63.4150   22.2910 O.2    98  ALA98      -0.2715
    123  CB        23.4090   63.2680   22.9170 C.3    98  ALA98       0.0334
    124  N         20.6640   62.8180   24.3950 N.am   99  SER99      -0.1950
    125  CA        19.4380   62.0200   24.5080 C.3    99  SER99       0.1924
    126  C         18.1890   62.8830   24.4220 C.2    99  SER99       0.2314
    127  O         17.2160   62.4970   23.7710 O.2    99  SER99      -0.2863
    128  CB        19.4220   61.1950   25.8000 C.3    99  SER99       0.2116
    129  OG        20.6190   60.4160   25.8870 O.3    99  SER99      -0.2180
    130  N         23.3590   53.4780   13.8970 N.3   121  THR121     -0.1203
    131  CA        24.4320   52.5080   13.9960 C.3   121  THR121      0.1994
    132  C         25.5770   53.0810   14.8080 C.2   121  THR121      0.2618
    133  O         25.7270   54.3190   14.9120 O.2   121  THR121     -0.2717
    134  CB        25.0130   52.1050   12.6210 C.3   121  THR121      0.1784
    135  OG1       25.5590   53.2470   11.9730 O.3   121  THR121     -0.2211
    136  CG2       23.9400   51.5010   11.7490 C.3   121  THR121      0.0376
    137  N         26.3490   52.1900   15.3940 N.am  122  CYS122     -0.1955
    138  CA        27.6100   52.6010   16.0030 C.3   122  CYS122      0.1843
    139  C         28.5230   51.4180   16.2690 C.2   122  CYS122      0.2625
    140  O         28.1150   50.2670   16.2070 O.2   122  CYS122     -0.2714
    141  CB        27.3800   53.3690   17.2910 C.3   122  CYS122      0.0997
    142  SG        26.8420   52.3470   18.6190 S.3   122  CYS122     -0.0797
    143  N         29.7800   51.7230   16.5600 N.am  123  GLN123     -0.1977
    144  CA        30.7320   50.7000   16.9820 C.3   123  GLN123      0.1601
    145  C         30.4190   50.2560   18.4090 C.2   123  GLN123      0.2287
    146  O         30.0710   51.0920   19.2480 O.2   123  GLN123     -0.2864
    147  CB        32.1590   51.2440   16.9090 C.3   123  GLN123      0.0394
    148  CG        32.7840   51.1120   15.5360 C.3   123  GLN123      0.0908
    149  CD        32.0300   51.8820   14.4880 C.2   123  GLN123      0.2608
    150  OE1       32.0310   53.1130   14.4960 O.2   123  GLN123     -0.2717
    151  NE2       31.3700   51.1630   13.5630 N.am  123  GLN123     -0.0878
    152  N         31.7810   52.1800   21.2540 N.3   126  ASN126     -0.1225
    153  CA        31.3080   53.5390   21.4480 C.3   126  ASN126      0.1785
    154  C         30.1520   53.5770   22.4330 C.2   126  ASN126      0.2598
    155  O         28.9970   53.8340   22.0670 O.2   126  ASN126     -0.2718
    156  CB        30.9310   54.1860   20.0900 C.3   126  ASN126      0.1169
    157  CG        30.7880   55.7110   20.1850 C.2   126  ASN126      0.2627
    158  OD1       30.8250   56.2780   21.2750 O.2   126  ASN126     -0.2716
    159  ND2       30.6040   56.3650   19.0460 N.am  126  ASN126     -0.0877
    160  N         30.4890   53.3370   23.7000 N.am  127  THR127     -0.1939
    161  CA        29.4910   53.1140   24.7320 C.3   127  THR127      0.2013
    162  C         28.4870   54.2510   24.8800 C.2   127  THR127      0.2489
    163  O         27.2980   53.9940   24.9600 O.2   127  THR127     -0.2729
    164  CB        30.1380   52.8370   26.1120 C.3   127  THR127      0.1807
    165  OG1       31.2660   51.9850   25.9440 O.3   127  THR127     -0.2208
    166  CG2       29.1210   52.1850   27.0100 C.3   127  THR127      0.0379
    167  N         28.9500   55.5080   24.9130 N.am  128  PRO128     -0.2640
    168  CA        27.9410   56.5500   25.0990 C.3   128  PRO128      0.1762
    169  C         26.9450   56.6500   23.9530 C.2   128  PRO128      0.2642
    170  O         25.7990   57.0260   24.1760 O.2   128  PRO128     -0.2712
    171  CB        28.7490   57.8450   25.1840 C.2   128  PRO128     -0.0003
    172  CG        30.0970   57.5130   25.0130 C.2   128  PRO128     -0.0071
    173  CD        30.3050   56.0740   24.8160 C.3   128  PRO128      0.1204
    174  N         27.3870   56.3020   22.7400 N.am  129  SER129     -0.1947
    175  CA        26.4980   56.3730   21.5790 C.3   129  SER129      0.1924
    176  C         25.3740   55.3510   21.6880 C.2   129  SER129      0.2314
    177  O         24.1970   55.7050   21.5550 O.2   129  SER129     -0.2863
    178  CB        27.2630   56.1950   20.2700 C.3   129  SER129      0.2116
    179  OG        26.4280   56.6120   19.1890 O.3   129  SER129     -0.2180
    180  N         24.3570   53.9600   24.3580 N.3   131  ARG131     -0.1231
    181  CA        23.5410   54.3250   25.5000 C.3   131  ARG131      0.1694
    182  C         22.4940   55.3710   25.1580 C.2   131  ARG131      0.2592
    183  O         21.3670   55.2710   25.6140 O.2   131  ARG131     -0.2718
    184  CB        24.3940   54.7190   26.7040 C.3   131  ARG131      0.0321
    185  CG        24.9380   53.5030   27.4530 C.3   131  ARG131      0.0489
    186  CD        23.8020   52.7010   28.1240 C.3   131  ARG131      0.2205
    187  NE        23.0100   53.5190   29.0430 N.pl3 131  ARG131     -0.0865
    188  CZ        21.6970   53.4200   29.2720 C.cat 131  ARG131      0.5346
    189  NH1       20.9330   52.5770   28.6010 N.pl3 131  ARG131      0.1354
    190  NH2       21.1220   54.2230   30.1590 N.pl3 131  ARG131      0.1354
    191  N         22.8260   56.3500   24.3280 N.am  132  VAL132     -0.1966
    192  CA        21.7940   57.2710   23.8550 C.3   132  VAL132      0.1727
    193  C         20.6830   56.4940   23.1290 C.2   132  VAL132      0.2616
    194  O         19.4880   56.7090   23.3570 O.2   132  VAL132     -0.2715
    195  CB        22.3690   58.3340   22.9510 C.3   132  VAL132      0.0290
    196  CG1       21.2240   59.1740   22.3490 C.3   132  VAL132      0.0023
    197  CG2       23.3530   59.2010   23.7080 C.3   132  VAL132      0.0023
    198  N         21.0820   55.5650   22.2640 N.am  133  MET133     -0.1977
    199  CA        20.1030   54.7950   21.4900 C.3   133  MET133      0.1605
    200  C         19.1240   54.0760   22.4150 C.2   133  MET133      0.2287
    201  O         17.9030   54.1280   22.2130 O.2   133  MET133     -0.2864
    202  CB        20.8070   53.7880   20.5620 C.3   133  MET133      0.0413
    203  CG        21.6810   54.4490   19.4700 C.3   133  MET133      0.0598
    204  SD        22.7090   53.2900   18.4990 S.3   133  MET133     -0.1393
    205  CE        23.7620   54.5370   17.8080 C.3   133  MET133      0.0692
    206  N         18.4700   54.7420   25.6640 N.3   135  LYS135     -0.1245
    207  CA        17.7350   55.7110   26.4890 C.3   135  LYS135      0.1561
    208  C         16.5220   56.2800   25.7680 C.2   135  LYS135      0.2260
    209  O         15.4750   56.5750   26.3910 O.2   135  LYS135     -0.2867
    210  CB        18.6620   56.8650   26.9000 C.3   135  LYS135      0.0271
    211  CG        19.7710   56.4690   27.8770 C.3   135  LYS135      0.0035
    212  CD        20.9000   57.4920   27.9140 C.3   135  LYS135      0.0206
    213  CE        20.5080   58.8310   28.5940 C.3   135  LYS135      0.1093
    214  NZ        19.6790   58.6570   29.8030 N.3   135  LYS135     -0.1314
@<TRIPOS>BOND
     1    30    31    2
     2    30    29    1
     3    34    32    1
     4   136   134    1
     5   135   134    1
     6    29    32    1
     7    29    28    1
     8   134   131    1
     9    32    33    1
    10    19    18    2
    11   151   149   am
    12    28    18   am
    13   130   131    1
    14    33    35    1
    15   131   132    1
    16    18    17    1
    17    36    37    1
    18   149   150    2
    19   149   148    1
    20   132   133    2
    21   132   137   am
    22    37    38    1
    23    60    58    1
    24    17    16    1
    25    17    20    1
    26   137   138    1
    27   148   147    1
    28    38    39    2
    29    38    40   am
    30   138   139    1
    31   138   141    1
    32    40    41    1
    33    20    21    1
    34   140   139    2
    35    58    59    1
    36    58    55    1
    37   139   143   am
    38   143   144    1
    39   147   144    1
    40   144   145    1
    41    41    42    1
    42    41    44    1
    43    22    21   ar
    44    22    24   ar
    45    42    54   am
    46    42    43    2
    47    54    55    1
    48    21    23   ar
    49   141   142    1
    50    55    56    1
    51   205   204    1
    52    12    11    2
    53    11    10    1
    54    57    56    2
    55    24    26   ar
    56    50    52   ar
    57    50    47   ar
    58    52    53   ar
    59    44    45    1
    60    14    13    1
    61    56    61   am
    62   145   146    2
    63   204   203    1
    64    23    25   ar
    65    47    45   ar
    66    47    49   ar
    67    53    51   ar
    68    45    46   ar
    69    51    49   ar
    70    49    48   ar
    71   159   157   am
    72    46    48   ar
    73    13    10    1
    74    13    15    1
    75   179   178    1
    76    10     9    1
    77    26    25   ar
    78    26    27    1
    79   203   202    1
    80    61    62    1
    81     1     2    1
    82     9     3   am
    83     4     3    2
    84     3     2    1
    85   156   157    1
    86   156   153    1
    87   157   158    2
    88   178   175    1
    89    69    67   ar
    90    69    71   ar
    91     2     5    1
    92   202   199    1
    93    62    63    1
    94    62    65    1
    95    67    66   ar
    96    64    63    2
    97    71    70   ar
    98   152   153    1
    99   153   154    1
   100   199   198    1
   101   199   200    1
   102    66    65    1
   103    66    68   ar
   104   177   176    2
   105   175   176    1
   106   175   174    1
   107     5     6    1
   108    70    68   ar
   109     7     6   ar
   110   155   154    2
   111   201   200    2
   112   198   193   am
   113   122   121    2
   114   196   195    1
   115   154   160   am
   116     6     8   ar
   117   174   169   am
   118   123   120    1
   119   195   197    1
   120   195   192    1
   121   193   194    2
   122   193   192    1
   123   120   121    1
   124   120   119    1
   125   121   124   am
   126    94    92   ar
   127    94    93   ar
   128   160   161    1
   129    92    90   ar
   130   127   126    2
   131   192   191    1
   132   169   170    2
   133   169   168    1
   134   110   109    2
   135   191   182   am
   136   180   181    1
   137   119   109   am
   138   124   125    1
   139   126   125    1
   140   125   128    1
   141    93    91   ar
   142   109   108    1
   143   161   162    1
   144   161   164    1
   145   173   167    1
   146   173   172    1
   147   162   167   am
   148   162   163    2
   149   167   168    1
   150   172   171    2
   151    90    89   ar
   152   168   171    1
   153   182   181    1
   154   182   183    2
   155   181   184    1
   156    79    81   ar
   157    79    77   ar
   158    81    82   ar
   159   206   207    1
   160   111   108    1
   161   111   112    1
   162   208   209    2
   163   208   207    1
   164   128   129    1
   165    91    89   ar
   166   165   164    1
   167   108   107    1
   168   164   166    1
   169    89    88    1
   170    77    76    1
   171    77    78   ar
   172   207   210    1
   173    76    73    1
   174    82    83    1
   175    82    80   ar
   176   184   185    1
   177   112   114   ar
   178   112   113   ar
   179   210   211    1
   180    72    73    1
   181   107   105   am
   182   114   116   ar
   183   106   105    2
   184   113   115   ar
   185    73    74    1
   186    78    80   ar
   187   185   186    1
   188    88    85    1
   189    84    74   am
   190    84    85    1
   191    74    75    2
   192   105   104    1
   193    85    86    1
   194   211   212    1
   195   212   213    1
   196   116   117   ar
   197   186   187    1
   198   115   117   ar
   199   213   214    1
   200   189   188    1
   201   117   118    1
   202   104   103    1
   203    95    86   am
   204    95    96    1
   205    86    87    2
   206   187   188    2
   207   188   190    1
   208   101   100    2
   209    96    97    1
   210    96    99    1
   211   102   100   am
   212   100    99    1
   213    97    98    2
