@<TRIPOS>MOLECULE
tmp/3fbxA00.pdb
 90 86 0 0 0
SMALL
GASTEIGER

@<TRIPOS>ATOM
      1  N          8.7230   43.7520   61.4340 N.3     9  LEU9       -0.1245
      2  CA         8.4150   42.3470   61.5980 C.3     9  LEU9        0.1561
      3  C          7.9810   42.0790   63.0510 C.2     9  LEU9        0.2260
      4  O          8.7620   42.2440   63.9810 O.2     9  LEU9       -0.2867
      5  CB         9.6190   41.4790   61.2030 C.3     9  LEU9        0.0270
      6  CG         9.4940   39.9700   61.3790 C.3     9  LEU9        0.0019
      7  CD1        8.3520   39.3940   60.5220 C.3     9  LEU9        0.0001
      8  CD2       10.8260   39.2980   61.0750 C.3     9  LEU9        0.0001
      9  N          4.3140   35.7750   62.6610 N.3    14  GLY14      -0.1225
     10  CA         5.3520   36.7950   62.5220 C.3    14  GLY14       0.1811
     11  C          5.0520   37.4670   61.1910 C.2    14  GLY14       0.2280
     12  O          5.4620   36.9940   60.1270 O.2    14  GLY14      -0.2866
     13  N          4.6610   40.9070   58.6380 N.3    16  LEU16      -0.1245
     14  CA         5.2150   42.1920   58.2490 C.3    16  LEU16       0.1561
     15  C          4.1080   43.2240   58.2660 C.2    16  LEU16       0.2260
     16  O          3.0350   42.9690   57.7270 O.2    16  LEU16      -0.2867
     17  CB         5.8200   42.1000   56.8450 C.3    16  LEU16       0.0270
     18  CG         7.0790   41.2470   56.7090 C.3    16  LEU16       0.0019
     19  CD1        7.3800   40.9820   55.2460 C.3    16  LEU16       0.0001
     20  CD2        8.2510   41.9200   57.4000 C.3    16  LEU16       0.0001
     21  N         18.5390   42.0910   60.3510 N.3    52  TYR52      -0.1227
     22  CA        17.7710   41.1130   59.5810 C.3    52  TYR52       0.1736
     23  C         18.6090   40.6060   58.3990 C.2    52  TYR52       0.2595
     24  O         19.5530   41.2870   57.9590 O.2    52  TYR52      -0.2718
     25  CB        16.4690   41.7420   59.0830 C.3    52  TYR52       0.0548
     26  CG        15.5540   42.1590   60.2100 C.ar   52  TYR52      -0.0200
     27  CD1       14.7160   41.2310   60.8140 C.ar   52  TYR52      -0.0009
     28  CD2       15.5490   43.4770   60.6930 C.ar   52  TYR52      -0.0009
     29  CE1       13.8830   41.5930   61.8690 C.ar   52  TYR52       0.0417
     30  CE2       14.7140   43.8600   61.7480 C.ar   52  TYR52       0.0417
     31  CZ        13.8730   42.9120   62.3240 C.ar   52  TYR52       0.1957
     32  OH        13.0260   43.2510   63.3650 O.3    52  TYR52      -0.2866
     33  N         18.2800   39.4210   57.8830 N.am   53  ASN53      -0.1974
     34  CA        19.0200   38.8850   56.7280 C.3    53  ASN53       0.1688
     35  C         18.7720   39.7590   55.4830 C.2    53  ASN53       0.2292
     36  O         17.7820   40.4900   55.4230 O.2    53  ASN53      -0.2864
     37  CB        18.7530   37.3790   56.5000 C.3    53  ASN53       0.1181
     38  CG        17.3060   37.0730   56.0970 C.2    53  ASN53       0.2629
     39  OD1       16.7690   37.6650   55.1620 O.2    53  ASN53      -0.2716
     40  ND2       16.6800   36.1190   56.7900 N.am   53  ASN53      -0.0877
     41  N         17.8940   39.1930   52.3930 N.3    55  SER55      -0.1202
     42  CA        16.6890   38.8500   51.6330 C.3    55  SER55       0.2020
     43  C         15.4520   39.5840   52.1680 C.2    55  SER55       0.2618
     44  O         14.6940   40.1880   51.3990 O.2    55  SER55      -0.2717
     45  CB        16.4380   37.3420   51.6770 C.3    55  SER55       0.2103
     46  OG        17.4810   36.6270   51.0390 O.3    55  SER55      -0.2182
     47  N         15.2440   39.5210   53.4890 N.am   56  LEU56      -0.1979
     48  CA        14.1540   40.2740   54.1020 C.3    56  LEU56       0.1596
     49  C         14.3750   41.7920   53.9390 C.2    56  LEU56       0.2287
     50  O         13.4350   42.5120   53.6300 O.2    56  LEU56      -0.2864
     51  CB        13.9420   39.8620   55.5750 C.3    56  LEU56       0.0297
     52  CG        12.7000   40.4500   56.2790 C.3    56  LEU56       0.0022
     53  CD1       11.3990   39.8650   55.7350 C.3    56  LEU56       0.0001
     54  CD2       12.7600   40.2810   57.8130 C.3    56  LEU56       0.0001
     55  N         18.7920   37.6040   43.1140 N.3   126  ARG126     -0.1245
     56  CA        17.6310   37.3770   43.9810 C.3   126  ARG126      0.1563
     57  C         17.2530   38.5670   44.8610 C.2   126  ARG126      0.2260
     58  O         16.0770   38.8570   45.0100 O.2   126  ARG126     -0.2867
     59  CB        17.8320   36.1500   44.8840 C.3   126  ARG126      0.0307
     60  CG        16.5070   35.6950   45.4650 C.3   126  ARG126      0.0489
     61  CD        16.5830   34.3020   46.0530 C.3   126  ARG126      0.2205
     62  NE        15.2650   33.8680   46.5210 N.pl3 126  ARG126     -0.0865
     63  CZ        14.8540   33.9930   47.7780 C.cat 126  ARG126      0.5346
     64  NH1       15.6600   34.5340   48.6840 N.pl3 126  ARG126      0.1354
     65  NH2       13.6410   33.5780   48.1240 N.pl3 126  ARG126      0.1354
     66  N          6.2060   37.6250   52.0370 N.3   145  PHE145     -0.1228
     67  CA         7.6320   37.3780   51.8990 C.3   145  PHE145      0.1721
     68  C          7.9280   35.9480   51.4220 C.2   145  PHE145      0.2437
     69  O          7.5460   34.9810   52.0850 O.2   145  PHE145     -0.2733
     70  CB         8.3770   37.6970   53.2130 C.3   145  PHE145      0.0547
     71  CG         9.8550   37.4600   53.1390 C.ar  145  PHE145     -0.0202
     72  CD1       10.6590   38.2340   52.2910 C.ar  145  PHE145     -0.0042
     73  CD2       10.4510   36.4620   53.9030 C.ar  145  PHE145     -0.0042
     74  CE1       12.0200   38.0150   52.1970 C.ar  145  PHE145     -0.0003
     75  CE2       11.8410   36.2350   53.8200 C.ar  145  PHE145     -0.0003
     76  CZ        12.6220   37.0110   52.9600 C.ar  145  PHE145     -0.0000
     77  N          8.5960   35.8050   50.2540 N.am  146  PRO146     -0.2718
     78  CA         8.9630   34.4590   49.7950 C.3   146  PRO146      0.1535
     79  C         10.3100   33.9510   50.3390 C.2   146  PRO146      0.2599
     80  O         11.3310   34.6550   50.2700 O.2   146  PRO146     -0.2715
     81  CB         9.0250   34.6250   48.2780 C.3   146  PRO146      0.0310
     82  CG         9.4240   36.0590   48.0810 C.3   146  PRO146      0.0237
     83  CD         9.0140   36.8420   49.2930 C.3   146  PRO146      0.0939
     84  N         10.3100   32.7330   50.8640 N.am  147  THR147     -0.1951
     85  CA        11.5320   32.0990   51.3690 C.3   147  THR147      0.1897
     86  C         12.1590   31.1800   50.3270 C.2   147  THR147      0.2313
     87  O         13.3310   30.8060   50.4440 O.2   147  THR147     -0.2863
     88  CB        11.2780   31.3190   52.6640 C.3   147  THR147      0.1794
     89  OG1       10.3860   30.2220   52.3900 O.3   147  THR147     -0.2208
     90  CG2       10.6480   32.2350   53.7170 C.3   147  THR147      0.0378
@<TRIPOS>BOND
     1    55    56    1
     2    56    57    1
     3    56    59    1
     4    57    58    2
     5    59    60    1
     6    60    61    1
     7    61    62    1
     8    62    63    2
     9    63    65    1
    10    63    64    1
    11    82    81    1
    12    82    83    1
    13    81    78    1
    14    83    77    1
    15    78    77    1
    16    78    79    1
    17    77    68   am
    18    80    79    2
    19    86    87    2
    20    86    85    1
    21    79    84   am
    22    84    85    1
    23    46    45    1
    24    85    88    1
    25    44    43    2
    26    68    67    1
    27    68    69    2
    28    42    45    1
    29    42    43    1
    30    42    41    1
    31    67    66    1
    32    67    70    1
    33    43    47   am
    34    74    72   ar
    35    74    76   ar
    36    72    71   ar
    37    89    88    1
    38    88    90    1
    39    76    75   ar
    40    71    70    1
    41    71    73   ar
    42    47    48    1
    43    50    49    2
    44    75    73   ar
    45    49    48    1
    46    48    51    1
    47    39    38    2
    48    19    18    1
    49    36    35    2
    50    35    34    1
    51    51    52    1
    52    53    52    1
    53    38    37    1
    54    38    40   am
    55    52    54    1
    56    37    34    1
    57    18    17    1
    58    18    20    1
    59    34    33    1
    60    17    14    1
    61    16    15    2
    62    33    23   am
    63    24    23    2
    64    14    15    1
    65    14    13    1
    66    23    22    1
    67    25    22    1
    68    25    26    1
    69    22    21    1
    70    12    11    2
    71    26    28   ar
    72    26    27   ar
    73     7     6    1
    74    28    30   ar
    75    27    29   ar
    76     8     6    1
    77    11    10    1
    78     5     6    1
    79     5     2    1
    80     1     2    1
    81     2     3    1
    82    30    31   ar
    83    29    31   ar
    84    31    32    1
    85    10     9    1
    86     3     4    2
