@<TRIPOS>MOLECULE
tmp/3fbxA01.pdb
 107 105 0 0 0
SMALL
GASTEIGER

@<TRIPOS>ATOM
      1  N          4.5840   37.2890   22.2330 N.3    97  LYS97      -0.1245
      2  CA         6.0160   36.9870   22.1650 C.3    97  LYS97       0.1561
      3  C          6.8260   37.6070   23.3170 C.2    97  LYS97       0.2260
      4  O          7.7370   36.9720   23.8480 O.2    97  LYS97      -0.2867
      5  CB         6.5930   37.4840   20.8570 C.3    97  LYS97       0.0271
      6  CG         6.5820   36.4820   19.7500 C.3    97  LYS97       0.0035
      7  CD         7.0540   37.1530   18.4740 C.3    97  LYS97       0.0206
      8  CE         7.2310   36.1490   17.3600 C.3    97  LYS97       0.1093
      9  NZ         7.8840   36.8160   16.2030 N.3    97  LYS97      -0.1314
     10  N          5.7460   35.7280   26.6250 N.3   100  ASN100     -0.1225
     11  CA         6.4590   34.4440   26.6060 C.3   100  ASN100      0.1785
     12  C          7.9730   34.5720   26.8920 C.2   100  ASN100      0.2597
     13  O          8.5490   33.7580   27.6310 O.2   100  ASN100     -0.2718
     14  CB         6.2620   33.7160   25.2690 C.3   100  ASN100      0.1169
     15  CG         4.8270   33.2140   25.0620 C.2   100  ASN100      0.2627
     16  OD1        3.9910   33.1960   25.9860 O.2   100  ASN100     -0.2716
     17  ND2        4.5430   32.7910   23.8360 N.am  100  ASN100     -0.0877
     18  N          8.5970   35.5930   26.3030 N.am  101  PHE101     -0.1976
     19  CA        10.0190   35.8750   26.5170 C.3   101  PHE101      0.1639
     20  C         10.3100   36.1900   27.9830 C.2   101  PHE101      0.2290
     21  O         11.1990   35.5650   28.5810 O.2   101  PHE101     -0.2864
     22  CB        10.4960   37.0150   25.6190 C.3   101  PHE101      0.0560
     23  CG        11.9690   37.3060   25.7450 C.ar  101  PHE101     -0.0200
     24  CD1       12.8560   36.8460   24.7920 C.ar  101  PHE101     -0.0042
     25  CD2       12.4670   38.0390   26.8350 C.ar  101  PHE101     -0.0042
     26  CE1       14.2130   37.1060   24.9050 C.ar  101  PHE101     -0.0003
     27  CE2       13.8390   38.2900   26.9630 C.ar  101  PHE101     -0.0003
     28  CZ        14.7060   37.8200   25.9880 C.ar  101  PHE101     -0.0000
     29  N          9.6800   33.1450   30.3960 N.3   104  ALA104     -0.1245
     30  CA        10.7680   32.1930   30.2530 C.3   104  ALA104      0.1562
     31  C         12.0470   32.7260   30.9230 C.2   104  ALA104      0.2260
     32  O         12.7740   31.9660   31.5760 O.2   104  ALA104     -0.2867
     33  CB        11.0150   31.8640   28.7590 C.3   104  ALA104      0.0290
     34  N         14.0820   42.8540   18.3010 N.3   172  ALA172     -0.1231
     35  CA        14.5020   41.4450   18.4130 C.3   172  ALA172      0.1694
     36  C         13.3220   40.4620   18.3340 C.2   172  ALA172      0.2592
     37  O         13.4960   39.3110   17.9450 O.2   172  ALA172     -0.2718
     38  CB        15.3170   41.2080   19.6900 C.3   172  ALA172      0.0304
     39  N         12.1350   40.9250   18.7180 N.am  173  LEU173     -0.1966
     40  CA        10.9170   40.1250   18.6600 C.3   173  LEU173      0.1728
     41  C         10.0490   40.5410   17.4630 C.2   173  LEU173      0.2616
     42  O          8.8560   40.2430   17.4170 O.2   173  LEU173     -0.2715
     43  CB        10.1340   40.2080   19.9810 C.3   173  LEU173      0.0311
     44  CG        10.8360   39.6660   21.2270 C.3   173  LEU173      0.0022
     45  CD1        9.9980   39.9230   22.4360 C.3   173  LEU173      0.0001
     46  CD2       11.1700   38.1750   21.1100 C.3   173  LEU173      0.0001
     47  N         10.6760   41.2440   16.5180 N.am  174  ASN174     -0.1972
     48  CA        10.0870   41.6300   15.2220 C.3   174  ASN174      0.1688
     49  C          8.8520   42.5400   15.3170 C.2   174  ASN174      0.2292
     50  O          7.9130   42.4140   14.5280 O.2   174  ASN174     -0.2864
     51  CB         9.8410   40.3950   14.3160 C.3   174  ASN174      0.1181
     52  CG        11.1290   39.6100   14.0200 C.2   174  ASN174      0.2629
     53  OD1       12.1770   40.2050   13.7620 O.2   174  ASN174     -0.2716
     54  ND2       11.0520   38.2640   14.0660 N.am  174  ASN174     -0.0877
     55  N         20.6330   43.4990   12.4380 N.3   263  PRO263     -0.2116
     56  CA        19.5750   42.4990   12.7000 C.3   263  PRO263      0.1372
     57  C         20.0970   41.0630   12.7620 C.2   263  PRO263      0.2244
     58  O         19.4060   40.1850   13.2860 O.2   263  PRO263     -0.2868
     59  CB        18.6270   42.6580   11.5120 C.3   263  PRO263      0.0268
     60  CG        19.0250   44.0040   10.8710 C.3   263  PRO263      0.0207
     61  CD        20.4860   44.1100   11.1020 C.3   263  PRO263      0.0892
     62  N         20.3720   39.9320   16.5450 N.3   266  TRP266     -0.1227
     63  CA        19.2170   39.6990   17.4240 C.3   266  TRP266      0.1737
     64  C         19.1240   38.2680   17.9560 C.2   266  TRP266      0.2595
     65  O         18.5430   38.0540   19.0170 O.2   266  TRP266     -0.2718
     66  CB        17.8830   40.1360   16.8060 C.3   266  TRP266      0.0564
     67  CG        17.7800   41.6230   16.5170 C.ar  266  TRP266      0.0003
     68  CD1       17.3650   42.1930   15.3430 C.ar  266  TRP266      0.0946
     69  CD2       18.1180   42.7230   17.3980 C.ar  266  TRP266      0.0152
     70  NE1       17.3990   43.5630   15.4450 N.ar  266  TRP266     -0.2442
     71  CE2       17.8600   43.9190   16.6860 C.ar  266  TRP266      0.0810
     72  CE3       18.6030   42.8100   18.7160 C.ar  266  TRP266      0.0012
     73  CZ2       18.0680   45.1940   17.2440 C.ar  266  TRP266      0.0191
     74  CZ3       18.8140   44.0800   19.2740 C.ar  266  TRP266      0.0001
     75  CH2       18.5390   45.2580   18.5300 C.ar  266  TRP266      0.0015
     76  N         19.7510   37.3150   17.2630 N.am  267  LYS267     -0.1980
     77  CA        19.7500   35.9090   17.6750 C.3   267  LYS267      0.1596
     78  C         20.4930   35.6750   19.0060 C.2   267  LYS267      0.2287
     79  O         20.3480   34.6100   19.6390 O.2   267  LYS267     -0.2864
     80  CB        20.3230   35.0110   16.5550 C.3   267  LYS267      0.0298
     81  CG        21.8090   35.2290   16.2950 C.3   267  LYS267      0.0038
     82  CD        22.3720   34.2490   15.2870 C.3   267  LYS267      0.0206
     83  CE        23.8080   34.6170   14.9590 C.3   267  LYS267      0.1093
     84  NZ        24.4160   33.6930   13.9570 N.3   267  LYS267     -0.1314
     85  N         19.8670   37.6060   21.5850 N.3   269  VAL269     -0.1231
     86  CA        18.8970   37.9570   22.6140 C.3   269  VAL269      0.1692
     87  C         18.0420   36.6980   22.8540 C.2   269  VAL269      0.2592
     88  O         17.2110   36.3330   22.0330 O.2   269  VAL269     -0.2718
     89  CB        18.0520   39.2100   22.1960 C.3   269  VAL269      0.0266
     90  CG1       17.0700   39.6200   23.2840 C.3   269  VAL269      0.0020
     91  CG2       18.9780   40.3780   21.8010 C.3   269  VAL269      0.0020
     92  N         18.2880   36.0160   23.9680 N.am  270  GLN270     -0.1966
     93  CA        17.6140   34.7610   24.2870 C.3   270  GLN270      0.1718
     94  C         17.0260   34.8500   25.6890 C.2   270  GLN270      0.2458
     95  O         17.5690   35.5650   26.5140 O.2   270  GLN270     -0.2730
     96  CB        18.6320   33.6090   24.2040 C.3   270  GLN270      0.0407
     97  CG        19.1120   33.2700   22.7810 C.3   270  GLN270      0.0908
     98  CD        17.9690   32.8930   21.8180 C.2   270  GLN270      0.2608
     99  OE1       18.0030   33.2330   20.6320 O.2   270  GLN270     -0.2717
    100  NE2       16.9520   32.2060   22.3290 N.am  270  GLN270     -0.0878
    101  N         15.9180   34.1320   25.9780 N.am  271  PRO271     -0.2727
    102  CA        15.4220   34.1400   27.3740 C.3   271  PRO271      0.1402
    103  C         16.2480   33.3470   28.3980 C.2   271  PRO271      0.2269
    104  O         16.1570   33.5980   29.6040 O.2   271  PRO271     -0.2865
    105  CB        13.9980   33.5730   27.2580 C.3   271  PRO271      0.0296
    106  CG        13.9560   32.8420   25.9840 C.3   271  PRO271      0.0237
    107  CD        15.0400   33.3560   25.0750 C.3   271  PRO271      0.0939
@<TRIPOS>BOND
     1    60    61    1
     2    60    59    1
     3    61    55    1
     4    59    56    1
     5    55    56    1
     6    56    57    1
     7    57    58    2
     8    53    52    2
     9    84    83    1
    10    52    54   am
    11    52    51    1
    12    51    48    1
    13    50    49    2
    14    83    82    1
    15    48    49    1
    16    48    47    1
    17    82    81    1
    18    68    70   ar
    19    68    67   ar
    20    70    71   ar
    21     9     8    1
    22    81    80    1
    23    67    66    1
    24    67    69   ar
    25    47    41   am
    26    62    63    1
    27    80    77    1
    28    71    73   ar
    29    71    69   ar
    30    66    63    1
    31    73    75   ar
    32    76    77    1
    33    76    64   am
    34     8     7    1
    35    69    72   ar
    36    42    41    2
    37    63    64    1
    38    41    40    1
    39    77    78    1
    40    37    36    2
    41    64    65    2
    42    34    35    1
    43    36    35    1
    44    36    39   am
    45    35    38    1
    46     7     6    1
    47    75    74   ar
    48    40    39    1
    49    40    43    1
    50    72    74   ar
    51    78    79    2
    52     6     5    1
    53    43    44    1
    54    99    98    2
    55     5     2    1
    56    46    44    1
    57    44    45    1
    58    85    86    1
    59    91    89    1
    60    98   100   am
    61    98    97    1
    62    88    87    2
    63     2     1    1
    64     2     3    1
    65    89    86    1
    66    89    90    1
    67    86    87    1
    68    97    96    1
    69    87    92   am
    70     3     4    2
    71    17    15   am
    72    92    93    1
    73    96    93    1
    74    93    94    1
    75    24    26   ar
    76    24    23   ar
    77    26    28   ar
    78    15    14    1
    79    15    16    2
    80   107   101    1
    81   107   106    1
    82    14    11    1
    83    22    23    1
    84    22    19    1
    85    94   101   am
    86    94    95    2
    87    23    25   ar
    88   101   102    1
    89   106   105    1
    90    28    27   ar
    91    18    19    1
    92    18    12   am
    93    19    20    1
    94    11    10    1
    95    11    12    1
    96    25    27   ar
    97    12    13    2
    98   105   102    1
    99   102   103    1
   100    20    21    2
   101   103   104    2
   102    33    30    1
   103    30    29    1
   104    30    31    1
   105    31    32    2
