@<TRIPOS>MOLECULE
tmp/3fbxA03.pdb
 143 135 0 0 0
SMALL
GASTEIGER

@<TRIPOS>ATOM
      1  N         17.7240   41.7110   44.1400 N.3   128  THR128     -0.1218
      2  CA        17.1680   42.6730   43.2050 C.3   128  THR128      0.1862
      3  C         15.7050   42.3440   42.8970 C.2   128  THR128      0.2287
      4  O         14.8440   43.2230   42.9020 O.2   128  THR128     -0.2866
      5  CB        18.0120   42.6870   41.9020 C.3   128  THR128      0.1770
      6  OG1       19.3960   42.8840   42.2430 O.3   128  THR128     -0.2211
      7  CG2       17.5560   43.7880   40.9360 C.3   128  THR128      0.0375
      8  N         13.3180   42.8910   45.8750 N.3   131  GLN131     -0.1245
      9  CA        13.0010   44.3120   45.9600 C.3   131  GLN131      0.1566
     10  C         11.8590   44.6930   44.9980 C.2   131  GLN131      0.2260
     11  O         10.9220   45.4100   45.3890 O.2   131  GLN131     -0.2867
     12  CB        14.2510   45.1560   45.7180 C.3   131  GLN131      0.0367
     13  CG        14.0520   46.6390   46.0380 C.3   131  GLN131      0.0905
     14  CD        15.3030   47.5030   45.7750 C.2   131  GLN131      0.2608
     15  OE1       16.3920   46.9830   45.5200 O.2   131  GLN131     -0.2717
     16  NE2       15.1410   48.8230   45.8440 N.am  131  GLN131     -0.0878
     17  N         19.9150   55.2660   48.8550 N.3   209  TYR209     -0.1241
     18  CA        19.7100   53.9630   49.4680 C.3   209  TYR209      0.1605
     19  C         20.8460   53.7500   50.4450 C.2   209  TYR209      0.2264
     20  O         21.9870   54.0120   50.1060 O.2   209  TYR209     -0.2867
     21  CB        19.7710   52.8500   48.4120 C.3   209  TYR209      0.0534
     22  CG        18.5600   52.6650   47.5160 C.ar  209  TYR209     -0.0201
     23  CD1       18.5760   51.6920   46.5040 C.ar  209  TYR209     -0.0009
     24  CD2       17.4060   53.4410   47.6600 C.ar  209  TYR209     -0.0009
     25  CE1       17.4680   51.4810   45.6620 C.ar  209  TYR209      0.0417
     26  CE2       16.2780   53.2330   46.8250 C.ar  209  TYR209      0.0417
     27  CZ        16.3240   52.2620   45.8260 C.ar  209  TYR209      0.1957
     28  OH        15.2370   52.0540   44.9950 O.3   209  TYR209     -0.2866
     29  N         21.8270   50.4260   52.3500 N.3   211  LEU211     -0.1245
     30  CA        21.4610   49.0330   52.5390 C.3   211  LEU211      0.1561
     31  C         22.4830   48.3520   53.4320 C.2   211  LEU211      0.2260
     32  O         23.4840   48.9730   53.8070 O.2   211  LEU211     -0.2867
     33  CB        21.3160   48.3460   51.1750 C.3   211  LEU211      0.0270
     34  CG        20.5160   49.1830   50.1690 C.3   211  LEU211      0.0019
     35  CD1       20.6160   48.6320   48.7560 C.3   211  LEU211      0.0001
     36  CD2       19.0580   49.3050   50.5820 C.3   211  LEU211      0.0001
     37  N         23.3140   44.8050   52.6210 N.3   213  PHE213     -0.1241
     38  CA        23.4330   43.5530   51.8970 C.3   213  PHE213      0.1605
     39  C         24.8470   42.9660   52.0180 C.2   213  PHE213      0.2264
     40  O         25.8510   43.6890   52.1350 O.2   213  PHE213     -0.2867
     41  CB        23.0780   43.7140   50.3970 C.3   213  PHE213      0.0534
     42  CG        21.6420   44.1560   50.1240 C.ar  213  PHE213     -0.0203
     43  CD1       21.2720   44.5550   48.8390 C.ar  213  PHE213     -0.0042
     44  CD2       20.6790   44.1850   51.1340 C.ar  213  PHE213     -0.0042
     45  CE1       19.9760   44.9620   48.5430 C.ar  213  PHE213     -0.0003
     46  CE2       19.3820   44.6120   50.8680 C.ar  213  PHE213     -0.0003
     47  CZ        19.0180   45.0030   49.5530 C.ar  213  PHE213     -0.0000
     48  N         28.9450   48.2970   47.5980 N.3   226  GLY226     -0.1210
     49  CA        28.0180   49.3420   47.1560 C.3   226  GLY226      0.1956
     50  C         26.7050   49.3610   47.9110 C.2   226  GLY226      0.2611
     51  O         25.6420   49.4150   47.3090 O.2   226  GLY226     -0.2717
     52  N         26.7740   49.3510   49.2400 N.am  227  ASN227     -0.1974
     53  CA        25.5800   49.4410   50.0930 C.3   227  ASN227      0.1688
     54  C         25.0180   50.8590   50.1540 C.2   227  ASN227      0.2292
     55  O         23.8230   51.0420   50.4100 O.2   227  ASN227     -0.2864
     56  CB        25.8730   48.9120   51.5010 C.3   227  ASN227      0.1181
     57  CG        25.5010   47.4440   51.6540 C.2   227  ASN227      0.2629
     58  OD1       24.5530   46.9630   51.0310 O.2   227  ASN227     -0.2716
     59  ND2       26.2330   46.7330   52.4870 N.am  227  ASN227     -0.0877
     60  N         24.3680   54.3690   48.0470 N.3   229  LEU229     -0.1245
     61  CA        24.2930   54.9110   46.7020 C.3   229  LEU229      0.1561
     62  C         23.2560   56.0000   46.5920 C.2   229  LEU229      0.2260
     63  O         22.2500   55.9740   47.2920 O.2   229  LEU229     -0.2867
     64  CB        24.0860   53.8070   45.6500 C.3   229  LEU229      0.0270
     65  CG        22.8490   52.9310   45.7000 C.3   229  LEU229      0.0019
     66  CD1       22.6240   52.3670   44.2960 C.3   229  LEU229      0.0001
     67  CD2       22.9670   51.8070   46.7210 C.3   229  LEU229      0.0001
     68  N         21.3580   58.1640   43.2920 N.3   231  PHE231     -0.1241
     69  CA        21.1690   58.0860   41.8550 C.3   231  PHE231      0.1605
     70  C         19.9120   58.8140   41.4310 C.2   231  PHE231      0.2264
     71  O         18.9770   58.9150   42.2120 O.2   231  PHE231     -0.2867
     72  CB        21.1840   56.6130   41.3710 C.3   231  PHE231      0.0534
     73  CG        20.1600   55.7280   42.0230 C.ar  231  PHE231     -0.0203
     74  CD1       18.9890   55.3840   41.3390 C.ar  231  PHE231     -0.0042
     75  CD2       20.3670   55.2180   43.3100 C.ar  231  PHE231     -0.0042
     76  CE1       18.0110   54.5680   41.9280 C.ar  231  PHE231     -0.0003
     77  CE2       19.4040   54.3940   43.9190 C.ar  231  PHE231     -0.0003
     78  CZ        18.2200   54.0550   43.2120 C.ar  231  PHE231     -0.0000
     79  N         13.5900   50.8390   40.4350 N.3   238  ILE238     -0.1231
     80  CA        14.5240   50.5180   41.5090 C.3   238  ILE238      0.1692
     81  C         15.9820   50.5290   41.0560 C.2   238  ILE238      0.2592
     82  O         16.8340   49.8700   41.6410 O.2   238  ILE238     -0.2718
     83  CB        14.1430   49.2080   42.2530 C.3   238  ILE238      0.0266
     84  CG1       14.2330   47.9920   41.3130 C.3   238  ILE238      0.0019
     85  CG2       12.7750   49.3630   42.8950 C.3   238  ILE238      0.0020
     86  CD1       13.8790   46.6610   41.9740 C.3   238  ILE238      0.0001
     87  N         16.2450   51.3010   40.0090 N.am  239  PHE239     -0.1976
     88  CA        17.5780   51.5670   39.5190 C.3   239  PHE239      0.1639
     89  C         17.4690   52.9460   38.8360 C.2   239  PHE239      0.2290
     90  O         16.3940   53.5470   38.8520 O.2   239  PHE239     -0.2864
     91  CB        18.0490   50.4390   38.5720 C.3   239  PHE239      0.0560
     92  CG        17.4580   50.5050   37.2090 C.ar  239  PHE239     -0.0200
     93  CD1       16.1030   50.2570   37.0050 C.ar  239  PHE239     -0.0042
     94  CD2       18.2420   50.8190   36.1260 C.ar  239  PHE239     -0.0042
     95  CE1       15.5430   50.3690   35.7440 C.ar  239  PHE239     -0.0003
     96  CE2       17.6860   50.8890   34.8460 C.ar  239  PHE239     -0.0003
     97  CZ        16.3340   50.6770   34.6670 C.ar  239  PHE239     -0.0000
     98  N         24.9080   57.1100   38.7780 N.3   245  TYR245     -0.1241
     99  CA        25.0130   56.6490   40.1750 C.3   245  TYR245      0.1605
    100  C         26.2730   57.1670   40.8210 C.2   245  TYR245      0.2264
    101  O         27.3240   57.2010   40.1850 O.2   245  TYR245     -0.2867
    102  CB        25.1120   55.1230   40.2780 C.3   245  TYR245      0.0534
    103  CG        24.0050   54.3340   39.6340 C.ar  245  TYR245     -0.0201
    104  CD1       24.0310   54.0520   38.2500 C.ar  245  TYR245     -0.0009
    105  CD2       22.9400   53.8230   40.4080 C.ar  245  TYR245     -0.0009
    106  CE1       23.0120   53.3140   37.6520 C.ar  245  TYR245      0.0417
    107  CE2       21.9170   53.0920   39.8150 C.ar  245  TYR245      0.0417
    108  CZ        21.9760   52.8220   38.4480 C.ar  245  TYR245      0.1957
    109  OH        20.9780   52.0840   37.8560 O.3   245  TYR245     -0.2866
    110  N         28.3850   55.9060   43.9940 N.3   247  LEU247     -0.1245
    111  CA        28.4520   54.7380   44.8380 C.3   247  LEU247      0.1561
    112  C         29.3740   54.9920   46.0150 C.2   247  LEU247      0.2260
    113  O         30.3960   55.6660   45.8710 O.2   247  LEU247     -0.2867
    114  CB        28.9240   53.5210   44.0140 C.3   247  LEU247      0.0270
    115  CG        28.0920   53.1950   42.7530 C.3   247  LEU247      0.0019
    116  CD1       28.6850   52.0380   41.9440 C.3   247  LEU247      0.0001
    117  CD2       26.6590   52.9020   43.1210 C.3   247  LEU247      0.0001
    118  N         22.4890   46.8840   38.4210 N.3   282  VAL282     -0.1245
    119  CA        22.3140   46.9040   39.8710 C.3   282  VAL282      0.1561
    120  C         23.3250   45.9870   40.5800 C.2   282  VAL282      0.2260
    121  O         23.9660   46.3730   41.5590 O.2   282  VAL282     -0.2867
    122  CB        20.8610   46.5000   40.2590 C.3   282  VAL282      0.0252
    123  CG1       20.7450   46.2340   41.7650 C.3   282  VAL282      0.0019
    124  CG2       19.8510   47.5870   39.8300 C.3   282  VAL282      0.0019
    125  N         26.9520   47.4260   40.3100 N.3   285  ASN285     -0.1225
    126  CA        27.0440   48.5840   41.1970 C.3   285  ASN285      0.1785
    127  C         27.2560   48.1640   42.6420 C.2   285  ASN285      0.2597
    128  O         28.0100   48.8110   43.3670 O.2   285  ASN285     -0.2718
    129  CB        25.7700   49.4360   41.1280 C.3   285  ASN285      0.1169
    130  CG        25.7270   50.3920   39.9310 C.2   285  ASN285      0.2627
    131  OD1       24.6670   50.9510   39.6420 O.2   285  ASN285     -0.2716
    132  ND2       26.8520   50.5800   39.2330 N.am  285  ASN285     -0.0877
    133  N         26.5730   47.0910   43.0590 N.am  286  ARG286     -0.1979
    134  CA        26.6930   46.5370   44.4120 C.3   286  ARG286      0.1597
    135  C         28.0210   45.8700   44.7060 C.2   286  ARG286      0.2287
    136  O         28.5540   46.0340   45.7980 O.2   286  ARG286     -0.2864
    137  CB        25.6420   45.4880   44.6530 C.3   286  ARG286      0.0334
    138  CG        24.4090   46.0020   45.2340 C.3   286  ARG286      0.0492
    139  CD        23.5580   44.9040   45.8650 C.3   286  ARG286      0.2205
    140  NE        22.1910   45.0570   45.3920 N.pl3 286  ARG286     -0.0865
    141  CZ        21.4890   44.0910   44.8210 C.cat 286  ARG286      0.5346
    142  NH1       21.9930   42.8750   44.6940 N.pl3 286  ARG286      0.1354
    143  NH2       20.2670   44.3370   44.4060 N.pl3 286  ARG286      0.1354
@<TRIPOS>BOND
     1    97    96   ar
     2    97    95   ar
     3    96    94   ar
     4    95    93   ar
     5    94    92   ar
     6    93    92   ar
     7    92    91    1
     8   106   104   ar
     9   106   108   ar
    10   109   108    1
    11   104   103   ar
    12   118   119    1
    13   108   107   ar
    14    91    88    1
    15    98    99    1
    16    89    90    2
    17    89    88    1
    18   132   130   am
    19    88    87    1
    20   103   102    1
    21   103   105   ar
    22   131   130    2
    23   107   105   ar
    24   124   122    1
    25   119   122    1
    26   119   120    1
    27   130   129    1
    28    87    81   am
    29    99   102    1
    30    99   100    1
    31   101   100    2
    32   122   123    1
    33   125   126    1
    34    79    80    1
    35   120   121    2
    36     7     5    1
    37    81    80    1
    38    81    82    2
    39   129   126    1
    40   126   127    1
    41    84    86    1
    42    84    83    1
    43    74    76   ar
    44    74    73   ar
    45    72    69    1
    46    72    73    1
    47    70    69    1
    48    70    71    2
    49    80    83    1
    50    69    68    1
    51     5     6    1
    52     5     2    1
    53    76    78   ar
    54   116   115    1
    55    73    75   ar
    56    83    85    1
    57   127   133   am
    58   127   128    2
    59   115   117    1
    60   115   114    1
    61     3     4    2
    62     3     2    1
    63   133   134    1
    64     2     1    1
    65    78    77   ar
    66    75    77   ar
    67   110   111    1
    68   114   111    1
    69    66    65    1
    70   143   141    1
    71   134   137    1
    72   134   135    1
    73   137   138    1
    74   142   141    1
    75   135   136    2
    76   141   140    2
    77   111   112    1
    78    28    27    1
    79    10    11    2
    80    10     9    1
    81   138   139    1
    82   140   139    1
    83    15    14    2
    84    64    65    1
    85    64    61    1
    86    25    27   ar
    87    25    23   ar
    88    65    67    1
    89    12     9    1
    90    12    13    1
    91    14    16   am
    92    14    13    1
    93    27    26   ar
    94   113   112    2
    95     8     9    1
    96    23    22   ar
    97    62    61    1
    98    62    63    2
    99    61    60    1
   100    26    24   ar
   101    49    48    1
   102    49    50    1
   103    51    50    2
   104    22    24   ar
   105    22    21    1
   106    50    52   am
   107    21    18    1
   108    45    43   ar
   109    45    47   ar
   110    35    34    1
   111    43    42   ar
   112    17    18    1
   113    52    53    1
   114    18    19    1
   115    47    46   ar
   116    53    54    1
   117    53    56    1
   118    20    19    2
   119    42    41    1
   120    42    44   ar
   121    54    55    2
   122    34    36    1
   123    34    33    1
   124    41    38    1
   125    46    44   ar
   126    58    57    2
   127    33    30    1
   128    56    57    1
   129    57    59   am
   130    38    39    1
   131    38    37    1
   132    39    40    2
   133    29    30    1
   134    30    31    1
   135    31    32    2
