@<TRIPOS>MOLECULE
tmp/3fbxA02.pdb
 83 77 0 0 0
SMALL
GASTEIGER

@<TRIPOS>ATOM
      1  N         36.1500   48.4220   41.9380 N.3   290  ASP290     -0.1225
      2  CA        36.8700   49.2290   40.9700 C.3   290  ASP290      0.1805
      3  C         36.2480   49.0170   39.6040 C.2   290  ASP290      0.2598
      4  O         35.3160   48.2290   39.4740 O.2   290  ASP290     -0.2718
      5  CB        38.3900   48.9270   40.9860 C.3   290  ASP290      0.1424
      6  CG        38.7170   47.4610   40.7920 C.2   290  ASP290      0.3668
      7  OD1       39.7970   47.0320   41.2460 O.co2 290  ASP290     -0.2456
      8  OD2       37.9280   46.7180   40.1750 O.co2 290  ASP290     -0.2456
      9  N         36.7480   49.7560   38.6130 N.am  291  GLY291     -0.1942
     10  CA        36.2690   49.7010   37.2300 C.3   291  GLY291      0.2014
     11  C         36.3330   48.3230   36.6180 C.2   291  GLY291      0.2638
     12  O         35.3770   47.8830   35.9650 O.2   291  GLY291     -0.2714
     13  N         37.4500   47.6310   36.8430 N.am  292  ALA292     -0.1977
     14  CA        37.6830   46.2990   36.2750 C.3   292  ALA292      0.1597
     15  C         36.6880   45.2780   36.8110 C.2   292  ALA292      0.2287
     16  O         36.1230   44.4890   36.0350 O.2   292  ALA292     -0.2864
     17  CB        39.1130   45.8340   36.5140 C.3   292  ALA292      0.0319
     18  N         33.0680   45.9520   35.3630 N.3   295  ALA295     -0.1231
     19  CA        32.9710   45.3840   34.0270 C.3   295  ALA295      0.1694
     20  C         32.8720   43.8420   34.0410 C.2   295  ALA295      0.2592
     21  O         32.0400   43.2760   33.3350 O.2   295  ALA295     -0.2718
     22  CB        34.1520   45.8420   33.1920 C.3   295  ALA295      0.0304
     23  N         33.6970   43.1860   34.8570 N.am  296  ASP296     -0.1974
     24  CA        33.6790   41.7150   35.0290 C.3   296  ASP296      0.1709
     25  C         32.3120   41.1750   35.4390 C.2   296  ASP296      0.2293
     26  O         31.8260   40.2050   34.8460 O.2   296  ASP296     -0.2864
     27  CB        34.7660   41.2460   36.0260 C.3   296  ASP296      0.1436
     28  CG        35.0070   39.7070   35.9880 C.2   296  ASP296      0.3671
     29  OD1       35.2040   39.1320   34.8730 O.co2 296  ASP296     -0.2456
     30  OD2       35.0370   39.0630   37.0800 O.co2 296  ASP296     -0.2456
     31  N         29.1970   42.1360   32.6330 N.3   299  LYS299     -0.1245
     32  CA        29.1700   41.5240   31.3310 C.3   299  LYS299      0.1561
     33  C         28.7770   40.0450   31.3620 C.2   299  LYS299      0.2260
     34  O         28.6980   39.4100   30.3060 O.2   299  LYS299     -0.2867
     35  CB        30.5000   41.7210   30.6300 C.3   299  LYS299      0.0271
     36  CG        31.6390   40.8760   31.1280 C.3   299  LYS299      0.0035
     37  CD        32.7300   41.0080   30.1110 C.3   299  LYS299      0.0206
     38  CE        34.0420   40.5290   30.6100 C.3   299  LYS299      0.1093
     39  NZ        35.0680   41.1380   29.6830 N.3   299  LYS299     -0.1314
     40  N         46.3400   54.1080   35.0810 N.3   327  SER327     -0.1202
     41  CA        45.2010   53.1890   35.0640 C.3   327  SER327      0.2020
     42  C         44.1980   53.4720   36.1830 C.2   327  SER327      0.2618
     43  O         44.4460   54.3160   37.0580 O.2   327  SER327     -0.2717
     44  CB        45.6770   51.7300   35.1640 C.3   327  SER327      0.2103
     45  OG        46.3000   51.5100   36.4280 O.3   327  SER327     -0.2182
     46  N         43.0610   52.7680   36.1140 N.am  328  ARG328     -0.1979
     47  CA        42.0410   52.6610   37.1820 C.3   328  ARG328      0.1597
     48  C         41.0330   53.8090   37.2700 C.2   328  ARG328      0.2287
     49  O         39.9500   53.6160   37.8030 O.2   328  ARG328     -0.2864
     50  CB        42.6660   52.3730   38.5650 C.3   328  ARG328      0.0334
     51  CG        43.4790   51.0660   38.6130 C.3   328  ARG328      0.0492
     52  CD        43.5370   50.4790   40.0120 C.3   328  ARG328      0.2205
     53  NE        44.8810   50.4960   40.5860 N.pl3 328  ARG328     -0.0865
     54  CZ        45.8080   49.5430   40.4090 C.cat 328  ARG328      0.5346
     55  NH1       45.5630   48.4670   39.6540 N.pl3 328  ARG328      0.1354
     56  NH2       47.0000   49.6690   40.9910 N.pl3 328  ARG328      0.1354
     57  N         37.2240   53.5150   33.1770 N.3   331  THR331     -0.1218
     58  CA        37.0390   52.2600   32.4680 C.3   331  THR331      0.1862
     59  C         35.8820   52.4990   31.5040 C.2   331  THR331      0.2287
     60  O         34.8540   53.0600   31.8820 O.2   331  THR331     -0.2866
     61  CB        36.6910   51.1420   33.4890 C.3   331  THR331      0.1770
     62  OG1       37.7350   51.0700   34.4740 O.3   331  THR331     -0.2211
     63  CG2       36.4880   49.7650   32.8220 C.3   331  THR331      0.0375
     64  N         35.7630   46.0070   26.7110 N.3   342  VAL342     -0.1231
     65  CA        36.1630   46.7480   27.9050 C.3   342  VAL342      0.1692
     66  C         37.5880   47.2760   27.7210 C.2   342  VAL342      0.2592
     67  O         38.4470   46.5660   27.2030 O.2   342  VAL342     -0.2718
     68  CB        36.1270   45.8570   29.1920 C.3   342  VAL342      0.0266
     69  CG1       36.3420   46.7150   30.4460 C.3   342  VAL342      0.0020
     70  CG2       34.8030   45.0940   29.3200 C.3   342  VAL342      0.0020
     71  N         37.8390   48.5170   28.1200 N.am  343  ALA343     -0.1966
     72  CA        39.1960   49.0470   28.1460 C.3   343  ALA343      0.1728
     73  C         39.3320   50.0910   29.2510 C.2   343  ALA343      0.2616
     74  O         38.3780   50.7960   29.5480 O.2   343  ALA343     -0.2715
     75  CB        39.5750   49.6350   26.8100 C.3   343  ALA343      0.0334
     76  N         40.5100   50.1460   29.8730 N.am  344  ASP344     -0.1971
     77  CA        40.8670   51.2120   30.7930 C.3   344  ASP344      0.1709
     78  C         41.2700   52.4120   29.9280 C.2   344  ASP344      0.2293
     79  O         42.1090   52.2900   29.0420 O.2   344  ASP344     -0.2864
     80  CB        42.0320   50.7810   31.7010 C.3   344  ASP344      0.1436
     81  CG        42.3390   51.8120   32.8260 C.2   344  ASP344      0.3671
     82  OD1       42.5600   53.0110   32.5620 O.co2 344  ASP344     -0.2456
     83  OD2       42.3900   51.4150   33.9980 O.co2 344  ASP344     -0.2456
@<TRIPOS>BOND
     1    64    65    1
     2    75    72    1
     3    67    66    2
     4    66    65    1
     5    66    71   am
     6    65    68    1
     7    71    72    1
     8    72    73    1
     9    79    78    2
    10    68    70    1
    11    68    69    1
    12    73    74    2
    13    73    76   am
    14    39    38    1
    15    76    77    1
    16    78    77    1
    17    37    38    1
    18    37    36    1
    19    34    33    2
    20    35    36    1
    21    35    32    1
    22    77    80    1
    23    32    33    1
    24    32    31    1
    25    59    60    2
    26    59    58    1
    27    80    81    1
    28    58    57    1
    29    58    61    1
    30    82    81   ar
    31    63    61    1
    32    81    83   ar
    33    22    19    1
    34    21    20    2
    35    61    62    1
    36    19    20    1
    37    19    18    1
    38    20    23   am
    39    26    25    2
    40    23    24    1
    41    29    28   ar
    42    24    25    1
    43    24    27    1
    44    41    40    1
    45    41    44    1
    46    41    42    1
    47    44    45    1
    48    12    11    2
    49    28    27    1
    50    28    30   ar
    51    16    15    2
    52    46    42   am
    53    46    47    1
    54    42    43    2
    55    14    17    1
    56    14    15    1
    57    14    13    1
    58    11    13   am
    59    11    10    1
    60    47    48    1
    61    47    50    1
    62    10     9    1
    63    48    49    2
    64    50    51    1
    65    51    52    1
    66     9     3   am
    67     4     3    2
    68     3     2    1
    69    55    54    1
    70    52    53    1
    71     8     6   ar
    72    54    53    2
    73    54    56    1
    74     6     5    1
    75     6     7   ar
    76     2     5    1
    77     2     1    1
