@<TRIPOS>MOLECULE
tmp/3fbyB00.pdb
 109 103 0 0 0
SMALL
GASTEIGER

@<TRIPOS>ATOM
      1  N        -44.8250   29.8170    1.4710 N.3     8  PRO8       -0.2116
      2  CA       -45.8320   29.0460    0.7440 C.3     8  PRO8        0.1372
      3  C        -47.2450   29.3630    1.2240 C.2     8  PRO8        0.2244
      4  O        -48.1830   29.0420    0.5070 O.2     8  PRO8       -0.2868
      5  CB       -45.4580   27.6010    1.0320 C.3     8  PRO8        0.0268
      6  CG       -44.0090   27.6720    1.5320 C.3     8  PRO8        0.0207
      7  CD       -43.9090   28.9520    2.2410 C.3     8  PRO8        0.0892
      8  N        -40.1510   27.3150    4.5130 N.3    22  VAL22      -0.1245
      9  CA       -40.8970   26.0480    4.4920 C.3    22  VAL22       0.1561
     10  C        -41.9700   25.9910    5.5810 C.2    22  VAL22       0.2260
     11  O        -41.6880   26.3200    6.7360 O.2    22  VAL22      -0.2867
     12  CB       -39.9450   24.8310    4.6070 C.3    22  VAL22       0.0252
     13  CG1      -39.1420   24.8540    5.9260 C.3    22  VAL22       0.0019
     14  CG2      -40.7270   23.5400    4.4660 C.3    22  VAL22       0.0019
     15  N        -45.3320   21.0580    9.8580 N.3    25  ARG25      -0.1245
     16  CA       -46.5580   20.2460   10.1000 C.3    25  ARG25       0.1563
     17  C        -47.7330   21.1440   10.5610 C.2    25  ARG25       0.2260
     18  O        -48.6660   21.4040    9.7790 O.2    25  ARG25      -0.2867
     19  CB       -46.3220   19.0420   11.0680 C.3    25  ARG25       0.0307
     20  CG       -45.9780   17.6480   10.3900 C.3    25  ARG25       0.0489
     21  CD       -46.4160   16.3570   11.2120 C.3    25  ARG25       0.2205
     22  NE       -47.8250   15.9360   11.0120 N.pl3  25  ARG25      -0.0865
     23  CZ       -48.3470   14.7420   11.3380 C.cat  25  ARG25       0.5346
     24  NH1      -47.6000   13.8010   11.8910 N.pl3  25  ARG25       0.1354
     25  NH2      -49.6300   14.4750   11.1080 N.pl3  25  ARG25       0.1354
     26  N        -38.5350    9.9940    0.8090 N.3   359  ASP359     -0.1239
     27  CA       -37.7700   11.1130    0.2590 C.3   359  ASP359      0.1674
     28  C        -36.3200   11.1230    0.7790 C.2   359  ASP359      0.2266
     29  O        -36.0350   11.5880    1.8740 O.2   359  ASP359     -0.2867
     30  CB       -38.4790   12.4520    0.5240 C.3   359  ASP359      0.1410
     31  CG       -39.4750   12.8110   -0.5760 C.2   359  ASP359      0.3668
     32  OD1      -39.9030   11.9050   -1.3360 O.co2 359  ASP359     -0.2456
     33  OD2      -39.8360   14.0060   -0.7010 O.co2 359  ASP359     -0.2456
     34  N        -37.2140   10.8110   -4.8740 N.3   465  GLN465     -0.1245
     35  CA       -38.5910   10.6760   -4.4280 C.3   465  GLN465      0.1566
     36  C        -39.1610    9.3660   -4.8940 C.2   465  GLN465      0.2260
     37  O        -39.1940    9.0780   -6.0940 O.2   465  GLN465     -0.2867
     38  CB       -39.4290   11.8030   -4.9720 C.3   465  GLN465      0.0367
     39  CG       -39.1420   13.0690   -4.2860 C.3   465  GLN465      0.0905
     40  CD       -39.6640   14.2180   -5.0450 C.2   465  GLN465      0.2608
     41  OE1      -39.1240   14.5830   -6.0940 O.2   465  GLN465     -0.2717
     42  NE2      -40.7350   14.8120   -4.5340 N.am  465  GLN465     -0.0878
     43  N        -42.5380    6.7860   -4.4840 N.3   467  ARG467     -0.1245
     44  CA       -43.9290    6.5620   -4.0920 C.3   467  ARG467      0.1563
     45  C        -44.4520    5.2870   -4.7420 C.2   467  ARG467      0.2260
     46  O        -45.0780    5.3500   -5.8070 O.2   467  ARG467     -0.2867
     47  CB       -44.8110    7.7280   -4.5390 C.3   467  ARG467      0.0307
     48  CG       -44.4190    9.0830   -4.0160 C.3   467  ARG467      0.0489
     49  CD       -44.5870    9.2010   -2.5020 C.3   467  ARG467      0.2205
     50  NE       -44.1640   10.5280   -2.0440 N.pl3 467  ARG467     -0.0865
     51  CZ       -42.8960   10.8910   -1.8250 C.cat 467  ARG467      0.5346
     52  NH1      -41.9000   10.0260   -2.0080 N.pl3 467  ARG467      0.1354
     53  NH2      -42.6170   12.1300   -1.4270 N.pl3 467  ARG467      0.1354
     54  N        -36.6970   10.5310    4.7760 N.3   518  ARG518     -0.1231
     55  CA       -38.0000   10.8930    5.3620 C.3   518  ARG518      0.1694
     56  C        -39.0590    9.9430    4.8470 C.2   518  ARG518      0.2592
     57  O        -38.9940    9.4840    3.7050 O.2   518  ARG518     -0.2718
     58  CB       -38.4210   12.3130    4.9640 C.3   518  ARG518      0.0321
     59  CG       -38.0300   13.4060    5.9630 C.3   518  ARG518      0.0489
     60  CD       -38.2410   14.8450    5.4440 C.3   518  ARG518      0.2205
     61  NE       -37.7800   15.0320    4.0650 N.pl3 518  ARG518     -0.0865
     62  CZ       -36.5270   15.3130    3.7090 C.cat 518  ARG518      0.5346
     63  NH1      -35.5670   15.4420    4.6230 N.pl3 518  ARG518      0.1354
     64  NH2      -36.2280   15.4520    2.4250 N.pl3 518  ARG518      0.1354
     65  N        -40.0360    9.6440    5.6880 N.am  519  CYS519     -0.1956
     66  CA       -41.2410    8.9560    5.2440 C.3   519  CYS519      0.1843
     67  C        -42.0470    9.9910    4.5160 C.2   519  CYS519      0.2625
     68  O        -42.2740   11.0870    5.0170 O.2   519  CYS519     -0.2714
     69  CB       -42.0560    8.4370    6.4240 C.3   519  CYS519      0.0997
     70  SG       -41.2820    7.0610    7.3500 S.3   519  CYS519     -0.0797
     71  N        -42.4630    9.6640    3.3100 N.am  520  ASN520     -0.1972
     72  CA       -43.2570   10.5980    2.5610 C.3   520  ASN520      0.1688
     73  C        -44.1190    9.8590    1.5800 C.2   520  ASN520      0.2292
     74  O        -43.6160    9.2460    0.6310 O.2   520  ASN520     -0.2864
     75  CB       -42.3730   11.6050    1.8500 C.3   520  ASN520      0.1181
     76  CG       -43.1120   12.8470    1.4680 C.2   520  ASN520      0.2629
     77  OD1      -44.3260   12.9380    1.5830 O.2   520  ASN520     -0.2716
     78  ND2      -42.3770   13.8140    1.0030 N.am  520  ASN520     -0.0877
     79  N        -47.2750   11.3670    0.5070 N.3   522  THR522     -0.1203
     80  CA       -47.9920   12.3560   -0.2830 C.3   522  THR522      0.1994
     81  C        -47.3970   12.4020   -1.7080 C.2   522  THR522      0.2618
     82  O        -46.2140   12.7340   -1.9020 O.2   522  THR522     -0.2717
     83  CB       -48.0460   13.7380    0.4410 C.3   522  THR522      0.1784
     84  OG1      -46.7970   14.4220    0.3160 O.3   522  THR522     -0.2211
     85  CG2      -48.3410   13.5520    1.9290 C.3   522  THR522      0.0376
     86  N        -48.2290   12.0140   -2.6830 N.am  523  ILE523     -0.1966
     87  CA       -47.8170   11.8250   -4.0930 C.3   523  ILE523      0.1712
     88  C        -47.6210   13.1530   -4.8520 C.2   523  ILE523      0.2458
     89  O        -48.5780   13.9150   -5.0080 O.2   523  ILE523     -0.2730
     90  CB       -48.7970   10.8740   -4.8710 C.3   523  ILE523      0.0289
     91  CG1      -48.5600    9.4070   -4.5060 C.3   523  ILE523      0.0022
     92  CG2      -48.6360   11.0110   -6.3760 C.3   523  ILE523      0.0023
     93  CD1      -49.5290    8.8390   -3.5090 C.3   523  ILE523      0.0001
     94  N        -46.3740   13.4230   -5.3240 N.am  524  PRO524     -0.2716
     95  CA       -45.9720   14.6830   -5.9840 C.3   524  PRO524      0.1536
     96  C        -46.9390   15.2330   -7.0420 C.2   524  PRO524      0.2598
     97  O        -47.6290   14.4690   -7.7200 O.2   524  PRO524     -0.2715
     98  CB       -44.6180   14.3340   -6.6000 C.3   524  PRO524      0.0310
     99  CG       -44.0390   13.3450   -5.6330 C.3   524  PRO524      0.0237
    100  CD       -45.2080   12.5310   -5.1250 C.3   524  PRO524      0.0939
    101  N        -46.9680   16.5590   -7.1620 N.am  525  GLU525     -0.1978
    102  CA       -47.9440   17.2720   -7.9870 C.3   525  GLU525      0.1602
    103  C        -47.8880   16.8670   -9.4580 C.2   525  GLU525      0.2287
    104  O        -48.9200   16.6110  -10.0780 O.2   525  GLU525     -0.2864
    105  CB       -47.7170   18.7790   -7.8520 C.3   525  GLU525      0.0415
    106  CG       -48.6200   19.6510   -8.7290 C.3   525  GLU525      0.1163
    107  CD       -48.3680   21.1480   -8.5460 C.2   525  GLU525      0.3649
    108  OE1      -48.8980   21.9400   -9.3630 O.co2 525  GLU525     -0.2457
    109  OE2      -47.6430   21.5320   -7.5900 O.co2 525  GLU525     -0.2457
@<TRIPOS>BOND
     1   104   103    2
     2   103   102    1
     3   108   107   ar
     4   106   107    1
     5   106   105    1
     6   107   109   ar
     7   102   105    1
     8   102   101    1
     9    97    96    2
    10   101    96   am
    11    96    95    1
    12    98    95    1
    13    98    99    1
    14    92    90    1
    15    41    40    2
    16    37    36    2
    17    95    94    1
    18    46    45    2
    19    99   100    1
    20    94   100    1
    21    94    88   am
    22    40    42   am
    23    40    39    1
    24    89    88    2
    25    38    35    1
    26    38    39    1
    27    36    35    1
    28    34    35    1
    29    90    91    1
    30    90    87    1
    31    88    87    1
    32    45    44    1
    33    47    44    1
    34    47    48    1
    35    91    93    1
    36    43    44    1
    37    87    86    1
    38    48    49    1
    39    86    81   am
    40    49    50    1
    41    50    51    2
    42    52    51    1
    43    82    81    2
    44    51    53    1
    45    81    80    1
    46    32    31   ar
    47    33    31   ar
    48    31    30    1
    49    80    83    1
    50    80    79    1
    51    27    30    1
    52    27    28    1
    53    27    26    1
    54    84    83    1
    55    83    85    1
    56     4     3    2
    57    74    73    2
    58     2     5    1
    59     2     3    1
    60     2     1    1
    61    28    29    2
    62    78    76   am
    63     5     6    1
    64    76    77    2
    65    76    75    1
    66     1     7    1
    67     6     7    1
    68    73    72    1
    69    75    72    1
    70    64    62    1
    71    72    71    1
    72    71    67   am
    73    57    56    2
    74    62    61    2
    75    62    63    1
    76    61    60    1
    77    14    12    1
    78     9     8    1
    79     9    12    1
    80     9    10    1
    81    67    68    2
    82    67    66    1
    83    12    13    1
    84    54    55    1
    85    56    55    1
    86    56    65   am
    87    58    55    1
    88    58    59    1
    89    66    65    1
    90    66    69    1
    91    60    59    1
    92    10    11    2
    93    69    70    1
    94    18    17    2
    95    15    16    1
    96    16    17    1
    97    16    19    1
    98    20    19    1
    99    20    21    1
   100    22    21    1
   101    22    23    2
   102    25    23    1
   103    23    24    1
