@<TRIPOS>MOLECULE
tmp/3fbyC00.pdb
 149 143 0 0 0
SMALL
GASTEIGER

@<TRIPOS>ATOM
      1  N        -35.2430   44.3450   -1.8560 N.3     5  ARG5       -0.1231
      2  CA       -33.9380   43.7230   -2.1090 C.3     5  ARG5        0.1694
      3  C        -33.3290   43.0920   -0.8400 C.2     5  ARG5        0.2592
      4  O        -33.9730   43.0520    0.1900 O.2     5  ARG5       -0.2718
      5  CB       -33.0070   44.8060   -2.6560 C.3     5  ARG5        0.0321
      6  CG       -33.2120   46.1540   -1.9550 C.3     5  ARG5        0.0489
      7  CD       -31.9260   47.0090   -1.8000 C.3     5  ARG5        0.2205
      8  NE       -32.0860   48.1410   -0.8470 N.pl3   5  ARG5       -0.0865
      9  CZ       -33.2430   48.7030   -0.4360 C.cat   5  ARG5        0.5346
     10  NH1      -33.1990   49.7090    0.4340 N.pl3   5  ARG5        0.1354
     11  NH2      -34.4450   48.2840   -0.8670 N.pl3   5  ARG5        0.1354
     12  N        -32.0850   42.6320   -0.8850 N.am    6  PHE6       -0.1976
     13  CA       -31.4480   42.2110    0.3610 C.3     6  PHE6        0.1639
     14  C        -30.3560   43.1390    0.8700 C.2     6  PHE6        0.2290
     15  O        -29.9620   44.0760    0.1790 O.2     6  PHE6       -0.2864
     16  CB       -30.9090   40.7960    0.2370 C.3     6  PHE6        0.0560
     17  CG       -31.9460   39.8150   -0.1320 C.ar    6  PHE6       -0.0200
     18  CD1      -32.5750   39.0750    0.8300 C.ar    6  PHE6       -0.0042
     19  CD2      -32.3270   39.6620   -1.4460 C.ar    6  PHE6       -0.0042
     20  CE1      -33.5530   38.1920    0.4820 C.ar    6  PHE6       -0.0003
     21  CE2      -33.2960   38.7860   -1.7860 C.ar    6  PHE6       -0.0003
     22  CZ       -33.9170   38.0520   -0.8290 C.ar    6  PHE6       -0.0000
     23  N        -26.3450   43.7110    2.4370 N.3     8  PRO8       -0.2116
     24  CA       -25.0360   43.2280    2.0250 C.3     8  PRO8        0.1372
     25  C        -24.7810   41.8420    2.5500 C.2     8  PRO8        0.2244
     26  O        -24.1970   41.0460    1.8380 O.2     8  PRO8       -0.2868
     27  CB       -24.0820   44.2160    2.6710 C.3     8  PRO8        0.0268
     28  CG       -24.8360   45.4440    2.7150 C.3     8  PRO8        0.0207
     29  CD       -26.2530   45.0640    3.0130 C.3     8  PRO8        0.0892
     30  N        -30.6070   52.7620    2.1410 N.3    20  ASP20      -0.1225
     31  CA       -29.5840   51.7290    2.0430 C.3    20  ASP20       0.1805
     32  C        -29.4740   50.9770    3.3410 C.2    20  ASP20       0.2598
     33  O        -29.4710   51.5650    4.4220 O.2    20  ASP20      -0.2718
     34  CB       -28.2400   52.3510    1.7310 C.3    20  ASP20       0.1424
     35  CG       -28.0750   52.6730    0.2610 C.2    20  ASP20       0.3668
     36  OD1      -28.0200   51.7050   -0.5490 O.co2  20  ASP20      -0.2456
     37  OD2      -27.9740   53.8890   -0.0720 O.co2  20  ASP20      -0.2456
     38  N        -29.4020   49.6620    3.2120 N.am   21  CYS21      -0.1956
     39  CA       -29.1960   48.7850    4.3310 C.3    21  CYS21       0.1843
     40  C        -27.7060   48.6050    4.5540 C.2    21  CYS21       0.2625
     41  O        -27.0360   48.0370    3.7090 O.2    21  CYS21      -0.2714
     42  CB       -29.8030   47.4340    4.0270 C.3    21  CYS21       0.0997
     43  SG       -29.5130   46.3550    5.3970 S.3    21  CYS21      -0.0797
     44  N        -27.1930   49.0610    5.6940 N.am   22  VAL22      -0.1977
     45  CA       -25.7600   48.9920    6.0010 C.3    22  VAL22       0.1596
     46  C        -25.4870   48.2180    7.2880 C.2    22  VAL22       0.2287
     47  O        -26.2460   48.3310    8.2540 O.2    22  VAL22      -0.2864
     48  CB       -25.1760   50.3810    6.1360 C.3    22  VAL22       0.0276
     49  CG1      -25.5510   51.1960    4.9300 C.3    22  VAL22       0.0022
     50  CG2      -25.6780   51.0630    7.4060 C.3    22  VAL22       0.0022
     51  N        -13.1630   59.6520    5.6670 N.3   359  ASP359     -0.1239
     52  CA       -14.3110   59.9020    4.7960 C.3   359  ASP359      0.1674
     53  C        -14.9400   61.2220    5.1750 C.2   359  ASP359      0.2266
     54  O        -15.0660   61.5320    6.3620 O.2   359  ASP359     -0.2867
     55  CB       -15.3520   58.8010    4.9240 C.3   359  ASP359      0.1410
     56  CG       -15.0020   57.5740    4.1270 C.2   359  ASP359      0.3668
     57  OD1      -13.9120   57.5380    3.5000 O.co2 359  ASP359     -0.2456
     58  OD2      -15.8330   56.6380    4.1290 O.co2 359  ASP359     -0.2456
     59  N        -13.0040   60.4960   -0.2260 N.3   465  GLN465     -0.1245
     60  CA       -12.3090   59.3990    0.4310 C.3   465  GLN465      0.1566
     61  C        -10.8310   59.5910    0.3100 C.2   465  GLN465      0.2260
     62  O        -10.2840   59.7210   -0.7870 O.2   465  GLN465     -0.2867
     63  CB       -12.6660   58.0610   -0.1660 C.3   465  GLN465      0.0367
     64  CG       -14.1130   57.7210   -0.0830 C.3   465  GLN465      0.0905
     65  CD       -14.4460   56.5160   -0.9370 C.2   465  GLN465      0.2608
     66  OE1      -14.2030   56.5010   -2.1600 O.2   465  GLN465     -0.2717
     67  NE2      -14.9960   55.4780   -0.2940 N.am  465  GLN465     -0.0878
     68  N         -7.2710   57.9590    1.6780 N.3   467  ARG467     -0.1245
     69  CA        -6.5260   56.8750    2.3340 C.3   467  ARG467      0.1563
     70  C         -5.0480   57.1130    2.0830 C.2   467  ARG467      0.2260
     71  O         -4.4660   56.5140    1.1790 O.2   467  ARG467     -0.2867
     72  CB        -6.9200   55.4850    1.7980 C.3   467  ARG467      0.0307
     73  CG        -8.4070   55.2100    1.6990 C.3   467  ARG467      0.0489
     74  CD        -9.0250   54.8390    3.0290 C.3   467  ARG467      0.2205
     75  NE       -10.4600   54.5900    2.9000 N.pl3 467  ARG467     -0.0865
     76  CZ       -11.4020   55.5310    2.9890 C.cat 467  ARG467      0.5346
     77  NH1      -11.0770   56.7990    3.2100 N.pl3 467  ARG467      0.1354
     78  NH2      -12.6790   55.2120    2.8530 N.pl3 467  ARG467      0.1354
     79  N        -15.6350   60.7200    9.1600 N.3   518  ARG518     -0.1231
     80  CA       -15.5170   59.4060    9.7460 C.3   518  ARG518      0.1694
     81  C        -14.1150   58.9340    9.5020 C.2   518  ARG518      0.2592
     82  O        -13.5370   59.1740    8.4390 O.2   518  ARG518     -0.2718
     83  CB       -16.4790   58.4580    9.0400 C.3   518  ARG518      0.0321
     84  CG       -17.0920   57.3210    9.8790 C.3   518  ARG518      0.0489
     85  CD       -18.2730   56.6620    9.1430 C.3   518  ARG518      0.2205
     86  NE       -19.0440   57.6640    8.3930 N.pl3 518  ARG518     -0.0865
     87  CZ       -18.9420   57.9260    7.0790 C.cat 518  ARG518      0.5346
     88  NH1      -19.6970   58.8860    6.5420 N.pl3 518  ARG518      0.1354
     89  NH2      -18.1030   57.2470    6.2900 N.pl3 518  ARG518      0.1354
     90  N        -13.5710   58.2670   10.5040 N.am  519  CYS519     -0.1956
     91  CA       -12.3310   57.5320   10.3870 C.3   519  CYS519      0.1843
     92  C        -12.5550   56.3390    9.4830 C.2   519  CYS519      0.2625
     93  O        -13.4340   55.5250    9.7430 O.2   519  CYS519     -0.2714
     94  CB       -11.9460   57.0490   11.7750 C.3   519  CYS519      0.0997
     95  SG       -11.1240   58.3490   12.7880 S.3   519  CYS519     -0.0797
     96  N        -11.8040   56.2460    8.3990 N.am  520  ASN520     -0.1972
     97  CA       -11.9120   55.0780    7.5490 C.3   520  ASN520      0.1688
     98  C        -10.5950   54.7450    6.8980 C.2   520  ASN520      0.2292
     99  O        -10.1720   55.3920    5.9390 O.2   520  ASN520     -0.2864
    100  CB       -13.0350   55.2040    6.5160 C.3   520  ASN520      0.1181
    101  CG       -13.4470   53.8480    5.9060 C.2   520  ASN520      0.2629
    102  OD1      -12.6250   52.9480    5.7230 O.2   520  ASN520     -0.2716
    103  ND2      -14.7300   53.7140    5.5830 N.am  520  ASN520     -0.0877
    104  N         -9.9470   51.3640    5.8990 N.3   522  THR522     -0.1203
    105  CA       -10.0530   50.2590    4.9200 C.3   522  THR522      0.1994
    106  C        -10.1320   50.7470    3.4670 C.2   522  THR522      0.2618
    107  O        -11.0730   51.4480    3.0880 O.2   522  THR522     -0.2717
    108  CB       -11.1400   49.2100    5.2610 C.3   522  THR522      0.1784
    109  OG1      -12.4080   49.8370    5.4340 O.3   522  THR522     -0.2211
    110  CG2      -10.7490   48.4370    6.5360 C.3   522  THR522      0.0376
    111  N         -9.0980   50.3910    2.6940 N.am  523  ILE523     -0.1966
    112  CA        -8.8770   50.8160    1.2970 C.3   523  ILE523      0.1712
    113  C         -9.9640   50.2730    0.3840 C.2   523  ILE523      0.2458
    114  O        -10.3440   49.1060    0.5080 O.2   523  ILE523     -0.2730
    115  CB        -7.5560   50.2530    0.7310 C.3   523  ILE523      0.0289
    116  CG1       -6.5380   49.9170    1.8450 C.3   523  ILE523      0.0022
    117  CG2       -7.0370   51.1220   -0.4120 C.3   523  ILE523      0.0023
    118  CD1       -5.7420   51.0850    2.4270 C.3   523  ILE523      0.0001
    119  N        -10.4670   51.1060   -0.5450 N.am  524  PRO524     -0.2716
    120  CA       -11.6350   50.6470   -1.2670 C.3   524  PRO524      0.1536
    121  C        -11.2670   49.6650   -2.3440 C.2   524  PRO524      0.2598
    122  O        -10.1180   49.6040   -2.7760 O.2   524  PRO524     -0.2715
    123  CB       -12.2080   51.9300   -1.8770 C.3   524  PRO524      0.0310
    124  CG       -11.6150   53.0180   -1.0910 C.3   524  PRO524      0.0237
    125  CD       -10.2260   52.5290   -0.8030 C.3   524  PRO524      0.0939
    126  N        -12.2680   48.9010   -2.7520 N.am  525  GLU525     -0.1964
    127  CA       -12.1160   47.8510   -3.7280 C.3   525  GLU525      0.1733
    128  C        -11.3250   48.3490   -4.9350 C.2   525  GLU525      0.2616
    129  O        -10.2690   47.8030   -5.2540 O.2   525  GLU525     -0.2715
    130  CB       -13.5080   47.3900   -4.1510 C.3   525  GLU525      0.0429
    131  CG       -13.6610   45.8890   -4.4210 C.3   525  GLU525      0.1163
    132  CD       -15.1320   45.4220   -4.2930 C.2   525  GLU525      0.3649
    133  OE1      -16.0390   46.3030   -4.1680 O.co2 525  GLU525     -0.2457
    134  OE2      -15.3780   44.1790   -4.3060 O.co2 525  GLU525     -0.2457
    135  N        -11.8120   49.4150   -5.5680 N.am  526  ASP526     -0.1971
    136  CA       -11.3380   49.7940   -6.8990 C.3   526  ASP526      0.1709
    137  C         -9.9290   50.3960   -6.9210 C.2   526  ASP526      0.2293
    138  O         -9.4450   50.8350   -7.9700 O.2   526  ASP526     -0.2864
    139  CB       -12.3680   50.6840   -7.6200 C.3   526  ASP526      0.1436
    140  CG       -12.4680   52.1010   -7.0270 C.2   526  ASP526      0.3671
    141  OD1      -11.9230   52.3590   -5.9200 O.co2 526  ASP526     -0.2456
    142  OD2      -13.1010   52.9660   -7.6890 O.co2 526  ASP526     -0.2456
    143  N         -8.0620   47.5070   -8.5370 N.3   529  THR529     -0.1218
    144  CA        -8.4580   47.6030   -9.9580 C.3   529  THR529      0.1862
    145  C         -7.6470   48.6320  -10.7550 C.2   529  THR529      0.2287
    146  O         -7.4260   48.4380  -11.9520 O.2   529  THR529     -0.2866
    147  CB        -9.9490   47.9900  -10.1120 C.3   529  THR529      0.1770
    148  OG1      -10.7370   47.3050   -9.1300 O.3   529  THR529     -0.2211
    149  CG2      -10.4590   47.6700  -11.5210 C.3   529  THR529      0.0375
@<TRIPOS>BOND
     1   146   145    2
     2   149   147    1
     3   145   144    1
     4   147   144    1
     5   147   148    1
     6   144   143    1
     7   138   137    2
     8   142   140   ar
     9   139   140    1
    10   139   136    1
    11   140   141   ar
    12   137   136    1
    13   136   135    1
    14   135   128   am
    15   129   128    2
    16   128   127    1
    17   131   132    1
    18   131   130    1
    19   134   132   ar
    20   132   133   ar
    21   130   127    1
    22   127   126    1
    23   122   121    2
    24   126   121   am
    25     5     2    1
    26     5     6    1
    27   121   120    1
    28    66    65    2
    29     2     1    1
    30     2     3    1
    31     6     7    1
    32   123   120    1
    33   123   124    1
    34     7     8    1
    35    21    19   ar
    36    21    22   ar
    37    19    17   ar
    38   120   119    1
    39   124   125    1
    40    65    67   am
    41    65    64    1
    42    12     3   am
    43    12    13    1
    44    11     9    1
    45     8     9    2
    46     3     4    2
    47    22    20   ar
    48   125   119    1
    49    62    61    2
    50    36    35   ar
    51   119   113   am
    52     9    10    1
    53   117   115    1
    54    59    60    1
    55    63    64    1
    56    63    60    1
    57    17    16    1
    58    17    18   ar
    59    37    35   ar
    60    15    14    2
    61    16    13    1
    62    35    34    1
    63    61    60    1
    64    13    14    1
    65   113   114    2
    66   113   112    1
    67    20    18   ar
    68   115   112    1
    69   115   116    1
    70    71    70    2
    71   112   111    1
    72    68    69    1
    73    73    72    1
    74    73    74    1
    75    34    31    1
    76    72    69    1
    77    26    25    2
    78   116   118    1
    79    24    23    1
    80    24    25    1
    81    24    27    1
    82    31    30    1
    83    31    32    1
    84    70    69    1
    85    23    29    1
    86    27    28    1
    87   111   106   am
    88    28    29    1
    89    78    76    1
    90    75    76    2
    91    75    74    1
    92    76    77    1
    93   107   106    2
    94    38    32   am
    95    38    39    1
    96    32    33    2
    97   106   105    1
    98    57    56   ar
    99    41    40    2
   100    42    39    1
   101    42    43    1
   102    56    58   ar
   103    56    55    1
   104    39    40    1
   105    40    44   am
   106    52    55    1
   107    52    53    1
   108    52    51    1
   109   105   108    1
   110   105   104    1
   111    49    48    1
   112    53    54    2
   113   108   109    1
   114   108   110    1
   115   103   101   am
   116    44    45    1
   117   102   101    2
   118   101   100    1
   119    99    98    2
   120    45    48    1
   121    45    46    1
   122    48    50    1
   123    89    87    1
   124   100    97    1
   125    88    87    1
   126    98    97    1
   127    87    86    2
   128    46    47    2
   129    97    96    1
   130    86    85    1
   131    96    92   am
   132    82    81    2
   133    83    80    1
   134    83    84    1
   135    85    84    1
   136    79    80    1
   137    92    93    2
   138    92    91    1
   139    81    80    1
   140    81    90   am
   141    91    90    1
   142    91    94    1
   143    94    95    1
