@<TRIPOS>MOLECULE
tmp/3fbyA00.pdb
 121 115 0 0 0
SMALL
GASTEIGER

@<TRIPOS>ATOM
      1  N        -43.4960   43.8750   -2.5240 N.3     5  ARG5       -0.1245
      2  CA       -43.5360   45.2040   -3.1180 C.3     5  ARG5        0.1563
      3  C        -43.2450   46.2710   -2.0480 C.2     5  ARG5        0.2260
      4  O        -43.1170   45.9420   -0.8690 O.2     5  ARG5       -0.2867
      5  CB       -44.9150   45.4290   -3.8000 C.3     5  ARG5        0.0307
      6  CG       -45.1830   44.6350   -5.1080 C.3     5  ARG5        0.0489
      7  CD       -44.1230   44.9430   -6.2270 C.3     5  ARG5        0.2205
      8  NE       -43.7680   43.7490   -7.0280 N.pl3   5  ARG5       -0.0865
      9  CZ       -42.6410   43.5940   -7.7360 C.cat   5  ARG5        0.5346
     10  NH1      -41.7210   44.5620   -7.7680 N.pl3   5  ARG5        0.1354
     11  NH2      -42.4360   42.4640   -8.4180 N.pl3   5  ARG5        0.1354
     12  N        -47.1940   52.5930   -1.1170 N.3     8  PRO8       -0.2116
     13  CA       -47.2780   53.7940   -1.9320 C.3     8  PRO8        0.1372
     14  C        -46.3860   54.9150   -1.4330 C.2     8  PRO8        0.2244
     15  O        -46.0210   55.7720   -2.2300 O.2     8  PRO8       -0.2868
     16  CB       -48.7320   54.1740   -1.8330 C.3     8  PRO8        0.0268
     17  CG       -49.4120   52.8840   -1.5660 C.3     8  PRO8        0.0207
     18  CD       -48.5160   52.1580   -0.6500 C.3     8  PRO8        0.0892
     19  N        -53.1250   44.2360   -0.8020 N.3    20  ASP20      -0.1239
     20  CA       -52.4770   45.4790   -1.2090 C.3    20  ASP20       0.1674
     21  C        -52.2000   46.3940   -0.0230 C.2    20  ASP20       0.2266
     22  O        -52.8830   46.3360    0.9930 O.2    20  ASP20      -0.2867
     23  CB       -53.2910   46.1990   -2.2690 C.3    20  ASP20       0.1410
     24  CG       -53.6460   45.3010   -3.4220 C.2    20  ASP20       0.3668
     25  OD1      -52.7240   44.8430   -4.1280 O.co2  20  ASP20      -0.2456
     26  OD2      -54.8550   45.0360   -3.6240 O.co2  20  ASP20      -0.2456
     27  N        -67.2850   55.6230   -6.3580 N.3   359  ASP359     -0.1239
     28  CA       -66.7620   54.2800   -6.5660 C.3   359  ASP359      0.1674
     29  C        -67.7370   53.3350   -5.8920 C.2   359  ASP359      0.2266
     30  O        -68.1400   53.5830   -4.7560 O.2   359  ASP359     -0.2867
     31  CB       -65.3920   54.1230   -5.9190 C.3   359  ASP359      0.1410
     32  CG       -64.2650   54.7570   -6.7330 C.2   359  ASP359      0.3668
     33  OD1      -64.4950   55.2840   -7.8520 O.co2 359  ASP359     -0.2456
     34  OD2      -63.1130   54.7190   -6.2430 O.co2 359  ASP359     -0.2456
     35  N        -66.7730   46.3380  -10.0400 N.3   463  PHE463     -0.1241
     36  CA       -66.1830   47.5970   -9.6510 C.3   463  PHE463      0.1605
     37  C        -66.4840   48.6850  -10.6870 C.2   463  PHE463      0.2264
     38  O        -65.9610   48.6580  -11.7990 O.2   463  PHE463     -0.2867
     39  CB       -64.6870   47.4220   -9.4360 C.3   463  PHE463      0.0534
     40  CG       -63.9870   48.6730   -8.9280 C.ar  463  PHE463     -0.0203
     41  CD1      -64.3940   49.2970   -7.7270 C.ar  463  PHE463     -0.0042
     42  CD2      -62.8980   49.2340   -9.6420 C.ar  463  PHE463     -0.0042
     43  CE1      -63.7220   50.4700   -7.2490 C.ar  463  PHE463     -0.0003
     44  CE2      -62.2330   50.3840   -9.1740 C.ar  463  PHE463     -0.0003
     45  CZ       -62.6450   50.9990   -7.9770 C.ar  463  PHE463     -0.0000
     46  N        -66.6890   52.8420  -11.7460 N.3   465  GLN465     -0.1245
     47  CA       -66.0820   54.1510  -11.5260 C.3   465  GLN465      0.1566
     48  C        -66.8460   55.1560  -12.3440 C.2   465  GLN465      0.2260
     49  O        -66.9760   55.0040  -13.5620 O.2   465  GLN465     -0.2867
     50  CB       -64.6220   54.1550  -11.9590 C.3   465  GLN465      0.0367
     51  CG       -63.6790   53.6360  -10.8920 C.3   465  GLN465      0.0905
     52  CD       -62.2780   53.3290  -11.4240 C.2   465  GLN465      0.2608
     53  OE1      -62.0770   52.4070  -12.2440 O.2   465  GLN465     -0.2717
     54  NE2      -61.2940   54.0810  -10.9340 N.am  465  GLN465     -0.0878
     55  N        -67.4530   59.4050  -13.0240 N.3   467  ARG467     -0.1245
     56  CA       -66.9510   60.7550  -12.8160 C.3   467  ARG467      0.1563
     57  C        -67.7970   61.6700  -13.6900 C.2   467  ARG467      0.2260
     58  O        -67.4120   62.0050  -14.8200 O.2   467  ARG467     -0.2867
     59  CB       -65.4670   60.8370  -13.1880 C.3   467  ARG467      0.0307
     60  CG       -64.5310   59.9650  -12.3590 C.3   467  ARG467      0.0489
     61  CD       -64.5840   60.3140  -10.8630 C.3   467  ARG467      0.2205
     62  NE       -63.6540   59.4950  -10.0750 N.pl3 467  ARG467     -0.0865
     63  CZ       -63.8900   58.2400   -9.6630 C.cat 467  ARG467      0.5346
     64  NH1      -65.0370   57.6190   -9.9560 N.pl3 467  ARG467      0.1354
     65  NH2      -62.9720   57.5890   -8.9490 N.pl3 467  ARG467      0.1354
     66  N        -68.2640   54.7240   -2.2030 N.3   518  ARG518     -0.1231
     67  CA       -67.5550   55.8370   -1.6060 C.3   518  ARG518      0.1694
     68  C        -67.4710   56.9920   -2.5940 C.2   518  ARG518      0.2592
     69  O        -67.6330   56.7840   -3.7960 O.2   518  ARG518     -0.2718
     70  CB       -66.1760   55.3860   -1.1500 C.3   518  ARG518      0.0321
     71  CG       -65.0840   55.4750   -2.1790 C.3   518  ARG518      0.0489
     72  CD       -63.8580   54.7620   -1.6520 C.3   518  ARG518      0.2205
     73  NE       -64.1500   53.3380   -1.6060 N.pl3 518  ARG518     -0.0865
     74  CZ       -63.9140   52.4860   -2.6030 C.cat 518  ARG518      0.5346
     75  NH1      -63.3270   52.8900   -3.7380 N.pl3 518  ARG518      0.1354
     76  NH2      -64.2620   51.2090   -2.4560 N.pl3 518  ARG518      0.1354
     77  N        -67.2470   58.2010   -2.0690 N.am  519  CYS519     -0.1956
     78  CA       -66.9480   59.4250   -2.8360 C.3   519  CYS519      0.1843
     79  C        -65.5790   59.4100   -3.5060 C.2   519  CYS519      0.2625
     80  O        -64.5760   59.1260   -2.8500 O.2   519  CYS519     -0.2714
     81  CB       -66.8930   60.5670   -1.8570 C.3   519  CYS519      0.0997
     82  SG       -68.4850   61.2470   -1.4370 S.3   519  CYS519     -0.0797
     83  N        -65.5030   59.7280   -4.7910 N.am  520  ASN520     -0.1972
     84  CA       -64.2070   59.8330   -5.4420 C.3   520  ASN520      0.1688
     85  C        -64.3220   60.6870   -6.6730 C.2   520  ASN520      0.2292
     86  O        -64.9000   60.2780   -7.6740 O.2   520  ASN520     -0.2864
     87  CB       -63.6160   58.4590   -5.7770 C.3   520  ASN520      0.1181
     88  CG       -62.1290   58.5230   -6.0860 C.2   520  ASN520      0.2629
     89  OD1      -61.5880   59.5950   -6.3360 O.2   520  ASN520     -0.2716
     90  ND2      -61.4640   57.3700   -6.0770 N.am  520  ASN520     -0.0877
     91  N        -61.4530   62.3970   -7.7450 N.3   522  THR522     -0.1203
     92  CA       -60.1550   62.3520   -8.3700 C.3   522  THR522      0.1994
     93  C        -60.3020   61.4070   -9.5770 C.2   522  THR522      0.2618
     94  O        -60.7000   60.2390   -9.4350 O.2   522  THR522     -0.2717
     95  CB       -59.0520   61.9850   -7.3740 C.3   522  THR522      0.1784
     96  OG1      -58.4850   60.7380   -7.7360 O.3   522  THR522     -0.2211
     97  CG2      -59.5800   61.9570   -5.9250 C.3   522  THR522      0.0376
     98  N        -60.0710   61.9650  -10.7650 N.am  523  ILE523     -0.1966
     99  CA       -60.3800   61.3140  -12.0430 C.3   523  ILE523      0.1712
    100  C        -59.3020   60.3180  -12.4120 C.2   523  ILE523      0.2458
    101  O        -58.1370   60.6480  -12.3630 O.2   523  ILE523     -0.2730
    102  CB       -60.5950   62.3720  -13.1730 C.3   523  ILE523      0.0289
    103  CG1      -62.0360   62.8970  -13.1270 C.3   523  ILE523      0.0022
    104  CG2      -60.2770   61.8050  -14.5530 C.3   523  ILE523      0.0023
    105  CD1      -62.2360   64.2750  -13.6870 C.3   523  ILE523      0.0001
    106  N        -59.6890   59.0750  -12.7510 N.am  524  PRO524     -0.2716
    107  CA       -58.7140   58.0590  -13.1540 C.3   524  PRO524      0.1536
    108  C        -57.7340   58.5390  -14.2160 C.2   524  PRO524      0.2598
    109  O        -58.0480   59.4170  -15.0110 O.2   524  PRO524     -0.2715
    110  CB       -59.5910   56.9460  -13.7010 C.3   524  PRO524      0.0310
    111  CG       -60.7960   57.0380  -12.8890 C.3   524  PRO524      0.0237
    112  CD       -61.0330   58.4920  -12.6070 C.3   524  PRO524      0.0939
    113  N        -56.5420   57.9660  -14.2020 N.am  525  GLU525     -0.1978
    114  CA       -55.4950   58.3850  -15.1080 C.3   525  GLU525      0.1602
    115  C        -55.8430   58.1120  -16.5480 C.2   525  GLU525      0.2287
    116  O        -55.7480   58.9940  -17.3850 O.2   525  GLU525     -0.2864
    117  CB       -54.1920   57.6880  -14.7700 C.3   525  GLU525      0.0415
    118  CG       -53.5270   58.2120  -13.5110 C.3   525  GLU525      0.1163
    119  CD       -52.0220   58.4100  -13.7040 C.2   525  GLU525      0.3649
    120  OE1      -51.5060   58.0620  -14.8060 O.co2 525  GLU525     -0.2457
    121  OE2      -51.3490   58.9200  -12.7650 O.co2 525  GLU525     -0.2457
@<TRIPOS>BOND
     1   116   115    2
     2   115   114    1
     3   114   117    1
     4   114   113    1
     5   109   108    2
     6    58    57    2
     7   120   119   ar
     8   117   118    1
     9   104   102    1
    10   108   113   am
    11   108   107    1
    12   119   118    1
    13   119   121   ar
    14   110   107    1
    15   110   111    1
    16    57    56    1
    17   105   103    1
    18    49    48    2
    19    59    56    1
    20    59    60    1
    21   102   103    1
    22   102    99    1
    23   107   106    1
    24    55    56    1
    25   111   112    1
    26   106   112    1
    27   106   100   am
    28   100   101    2
    29   100    99    1
    30    60    61    1
    31    48    47    1
    32    53    52    2
    33    99    98    1
    34    50    47    1
    35    50    51    1
    36    38    37    2
    37    46    47    1
    38    52    54   am
    39    52    51    1
    40    61    62    1
    41    98    93   am
    42    37    36    1
    43    62    63    2
    44    35    36    1
    45    64    63    1
    46    63    65    1
    47    36    39    1
    48    42    44   ar
    49    42    40   ar
    50    93    94    2
    51    93    92    1
    52    39    40    1
    53    44    45   ar
    54    40    41   ar
    55    11     9    1
    56    92    91    1
    57    92    95    1
    58    45    43   ar
    59    33    32   ar
    60    10     9    1
    61    96    95    1
    62     9     8    2
    63    41    43   ar
    64    86    85    2
    65    95    97    1
    66     8     7    1
    67    32    34   ar
    68    32    31    1
    69    85    84    1
    70    28    27    1
    71    28    31    1
    72    28    29    1
    73    89    88    2
    74     7     6    1
    75    88    90   am
    76    88    87    1
    77    29    30    2
    78    87    84    1
    79    84    83    1
    80     6     5    1
    81    83    79   am
    82    25    24   ar
    83     5     2    1
    84    69    68    2
    85    75    74    1
    86    26    24   ar
    87    79    80    2
    88    79    78    1
    89    24    23    1
    90     2     1    1
    91     2     3    1
    92    78    77    1
    93    78    81    1
    94    74    76    1
    95    74    73    2
    96    68    77   am
    97    68    67    1
    98    23    20    1
    99    15    14    2
   100    66    67    1
   101    71    72    1
   102    71    70    1
   103     3     4    2
   104    13    16    1
   105    13    14    1
   106    13    12    1
   107    81    82    1
   108    16    17    1
   109    72    73    1
   110    67    70    1
   111    17    18    1
   112    20    19    1
   113    20    21    1
   114    12    18    1
   115    21    22    2
