@<TRIPOS>MOLECULE
tmp/3fbzC00.pdb
 88 85 0 0 0
SMALL
GASTEIGER

@<TRIPOS>ATOM
      1  N         25.9680   70.8010   63.3870 N.3    34  GLN34      -0.1231
      2  CA        25.4250   72.0230   62.8220 C.3    34  GLN34       0.1698
      3  C         24.5070   72.7300   63.8200 C.2    34  GLN34       0.2592
      4  O         24.5950   73.9510   63.9870 O.2    34  GLN34      -0.2718
      5  CB        24.6780   71.7220   61.5260 C.3    34  GLN34       0.0381
      6  CG        24.1910   72.9680   60.7860 C.3    34  GLN34       0.0905
      7  CD        23.6370   72.6320   59.4210 C.2    34  GLN34       0.2608
      8  OE1       23.8480   71.5300   58.9070 O.2    34  GLN34      -0.2717
      9  NE2       22.9210   73.5740   58.8210 N.am   34  GLN34      -0.0878
     10  N         23.6580   71.9500   64.4900 N.am   35  TYR35      -0.1976
     11  CA        22.8070   72.4280   65.5630 C.3    35  TYR35       0.1639
     12  C         23.6300   73.1850   66.6200 C.2    35  TYR35       0.2290
     13  O         23.3150   74.3230   66.9470 O.2    35  TYR35      -0.2864
     14  CB        22.0170   71.2610   66.1900 C.3    35  TYR35       0.0560
     15  CG        21.1970   71.6280   67.4250 C.ar   35  TYR35      -0.0198
     16  CD1       19.8350   71.9510   67.3240 C.ar   35  TYR35      -0.0009
     17  CD2       21.7840   71.6540   68.6900 C.ar   35  TYR35      -0.0009
     18  CE1       19.0850   72.2930   68.4660 C.ar   35  TYR35       0.0417
     19  CE2       21.0540   71.9870   69.8180 C.ar   35  TYR35       0.0417
     20  CZ        19.6980   72.2930   69.7040 C.ar   35  TYR35       0.1957
     21  OH        18.9880   72.6170   70.8480 O.3    35  TYR35      -0.2866
     22  N         24.6710   82.0970   67.0840 N.3    40  VAL40      -0.1245
     23  CA        23.5740   82.9060   67.6030 C.3    40  VAL40       0.1561
     24  C         23.9040   83.5560   68.9630 C.2    40  VAL40       0.2260
     25  O         23.6690   84.7400   69.1710 O.2    40  VAL40      -0.2867
     26  CB        22.2560   82.0940   67.6900 C.3    40  VAL40       0.0252
     27  CG1       21.2210   82.8410   68.5250 C.3    40  VAL40       0.0019
     28  CG2       21.7400   81.8150   66.2910 C.3    40  VAL40       0.0019
     29  N         16.8660   84.2550   75.2560 N.3    63  ALA63      -0.1245
     30  CA        15.6050   83.5740   74.9430 C.3    63  ALA63       0.1562
     31  C         14.9790   84.0590   73.6340 C.2    63  ALA63       0.2260
     32  O         14.5460   83.2410   72.8390 O.2    63  ALA63      -0.2867
     33  CB        14.6080   83.6720   76.0970 C.3    63  ALA63       0.0290
     34  N         17.0740   82.7220   70.6200 N.3    66  GLU66      -0.1231
     35  CA        16.9540   81.2920   70.4370 C.3    66  GLU66       0.1699
     36  C         15.5820   80.9270   69.8990 C.2    66  GLU66       0.2592
     37  O         15.4600   80.0820   68.9930 O.2    66  GLU66      -0.2718
     38  CB        17.2360   80.5600   71.7520 C.3    66  GLU66       0.0402
     39  CG        18.7060   80.5340   72.1360 C.3    66  GLU66       0.1161
     40  CD        18.9380   79.6460   73.3250 C.2    66  GLU66       0.3649
     41  OE1       18.0900   78.7600   73.5560 O.co2  66  GLU66      -0.2457
     42  OE2       19.9430   79.8360   74.0350 O.co2  66  GLU66      -0.2457
     43  N         14.5580   81.5650   70.4640 N.am   67  GLU67      -0.1979
     44  CA        13.1800   81.3720   70.0180 C.3    67  GLU67       0.1602
     45  C         13.0300   81.8310   68.5680 C.2    67  GLU67       0.2287
     46  O         12.4070   81.1400   67.7580 O.2    67  GLU67      -0.2864
     47  CB        12.1980   82.0880   70.9620 C.3    67  GLU67       0.0415
     48  CG        10.7770   82.0500   70.4670 C.3    67  GLU67       0.1163
     49  CD         9.7310   82.1530   71.5550 C.2    67  GLU67       0.3649
     50  OE1        9.9760   82.8440   72.5800 O.co2  67  GLU67      -0.2457
     51  OE2        8.6410   81.5630   71.3550 O.co2  67  GLU67      -0.2457
     52  N         15.6210   82.0510   66.3330 N.3    69  ALA69      -0.1231
     53  CA        16.4380   81.1400   65.5220 C.3    69  ALA69       0.1694
     54  C         15.6580   79.8620   65.2010 C.2    69  ALA69       0.2592
     55  O         15.6470   79.3960   64.0560 O.2    69  ALA69      -0.2718
     56  CB        17.7520   80.8160   66.2400 C.3    69  ALA69       0.0304
     57  N         14.9870   79.3290   66.2210 N.am   70  HIS70      -0.1976
     58  CA        14.1530   78.1410   66.0930 C.3    70  HIS70       0.1656
     59  C         12.9870   78.3470   65.0820 C.2    70  HIS70       0.2291
     60  O         12.7400   77.4770   64.2430 O.2    70  HIS70      -0.2864
     61  CB        13.6790   77.7030   67.4870 C.3    70  HIS70       0.0771
     62  CG        12.7140   76.5650   67.4730 C.ar   70  HIS70       0.0820
     63  ND1       13.0170   75.3400   66.9220 N.ar   70  HIS70      -0.2267
     64  CD2       11.4390   76.4730   67.9220 C.ar   70  HIS70       0.1154
     65  CE1       11.9720   74.5390   67.0370 C.ar   70  HIS70       0.1986
     66  NE2       10.9980   75.2040   67.6340 N.ar   70  HIS70      -0.2212
     67  N         14.5350   78.5390   61.6750 N.3    73  TRP73      -0.1241
     68  CA        14.7710   77.1410   61.2700 C.3    73  TRP73       0.1605
     69  C         13.4960   76.4950   60.6780 C.2    73  TRP73       0.2264
     70  O         13.5410   75.8630   59.6230 O.2    73  TRP73      -0.2867
     71  CB        15.3150   76.2790   62.4310 C.3    73  TRP73       0.0550
     72  CG        15.3180   74.8260   62.0610 C.ar   73  TRP73       0.0003
     73  CD1       16.3060   74.1500   61.4040 C.ar   73  TRP73       0.0946
     74  CD2       14.2580   73.8810   62.2700 C.ar   73  TRP73       0.0152
     75  NE1       15.9310   72.8410   61.2010 N.ar   73  TRP73      -0.2442
     76  CE2       14.6850   72.6470   61.7310 C.ar   73  TRP73       0.0810
     77  CE3       13.0000   73.9500   62.8820 C.ar   73  TRP73       0.0012
     78  CZ2       13.8900   71.4960   61.7690 C.ar   73  TRP73       0.0191
     79  CZ3       12.2020   72.8170   62.9020 C.ar   73  TRP73       0.0001
     80  CH2       12.6560   71.6000   62.3490 C.ar   73  TRP73       0.0015
     81  N         21.1480   81.2310   60.3820 N.3   119  ILE119     -0.1245
     82  CA        20.2230   80.1040   60.1810 C.3   119  ILE119      0.1561
     83  C         19.9420   79.8560   58.7010 C.2   119  ILE119      0.2260
     84  O         19.8610   78.6970   58.2630 O.2   119  ILE119     -0.2867
     85  CB        18.8850   80.2740   60.9840 C.3   119  ILE119      0.0252
     86  CG1       19.0800   79.9430   62.4590 C.3   119  ILE119      0.0019
     87  CG2       17.8380   79.2830   60.5080 C.3   119  ILE119      0.0019
     88  CD1       19.9970   80.8070   63.1800 C.3   119  ILE119      0.0001
@<TRIPOS>BOND
     1    84    83    2
     2    83    82    1
     3     9     7   am
     4     8     7    2
     5     7     6    1
     6    70    69    2
     7    82    81    1
     8    82    85    1
     9    87    85    1
    10    69    68    1
    11     6     5    1
    12    85    86    1
    13    75    73   ar
    14    75    76   ar
    15    68    67    1
    16    68    71    1
    17    73    72   ar
    18     5     2    1
    19    76    78   ar
    20    76    74   ar
    21    78    80   ar
    22    72    74   ar
    23    72    71    1
    24    74    77   ar
    25    80    79   ar
    26    86    88    1
    27     2     1    1
    28     2     3    1
    29    77    79   ar
    30     3     4    2
    31     3    10   am
    32    55    54    2
    33    60    59    2
    34    10    11    1
    35    59    58    1
    36    54    53    1
    37    54    57   am
    38    53    56    1
    39    53    52    1
    40    11    14    1
    41    11    12    1
    42    58    57    1
    43    58    61    1
    44    14    15    1
    45    28    26    1
    46    12    13    2
    47    63    65   ar
    48    63    62   ar
    49    65    66   ar
    50    22    23    1
    51    16    15   ar
    52    16    18   ar
    53    15    17   ar
    54    62    61    1
    55    62    64   ar
    56    23    26    1
    57    23    24    1
    58    66    64   ar
    59    26    27    1
    60    46    45    2
    61    18    20   ar
    62    45    44    1
    63    17    19   ar
    64    24    25    2
    65    37    36    2
    66    20    19   ar
    67    20    21    1
    68    36    35    1
    69    36    43   am
    70    44    43    1
    71    44    47    1
    72    35    34    1
    73    35    38    1
    74    48    47    1
    75    48    49    1
    76    51    49   ar
    77    49    50   ar
    78    38    39    1
    79    39    40    1
    80    32    31    2
    81    40    41   ar
    82    40    42   ar
    83    31    30    1
    84    30    29    1
    85    30    33    1
