@<TRIPOS>MOLECULE
tmp/3fc2A00.pdb
 164 156 0 0 0
SMALL
GASTEIGER

@<TRIPOS>ATOM
      1  N         56.1310  -14.0010   10.2670 N.3    21  ARG21      -0.1231
      2  CA        55.9630  -12.5530   10.3500 C.3    21  ARG21       0.1694
      3  C         54.6590  -12.1000   11.0160 C.2    21  ARG21       0.2592
      4  O         53.6450  -12.7940   10.9790 O.2    21  ARG21      -0.2718
      5  CB        56.0880  -11.9190    8.9660 C.3    21  ARG21       0.0321
      6  CG        55.0500  -12.3610    7.9740 C.3    21  ARG21       0.0489
      7  CD        54.6590  -11.2100    7.0640 C.3    21  ARG21       0.2205
      8  NE        53.6410  -11.6060    6.0960 N.pl3  21  ARG21      -0.0865
      9  CZ        52.9880  -10.7640    5.3000 C.cat  21  ARG21       0.5346
     10  NH1       53.2320   -9.4580    5.3450 N.pl3  21  ARG21       0.1354
     11  NH2       52.0870  -11.2340    4.4470 N.pl3  21  ARG21       0.1354
     12  N         54.7210  -10.9050   11.6000 N.am   22  PHE22      -0.1962
     13  CA        53.6350  -10.3090   12.3740 C.3    22  PHE22       0.1771
     14  C         52.5020   -9.8360   11.4720 C.2    22  PHE22       0.2619
     15  O         52.7310   -9.0710   10.5300 O.2    22  PHE22      -0.2715
     16  CB        54.1860   -9.1320   13.1920 C.3    22  PHE22       0.0574
     17  CG        53.1380   -8.3540   13.9420 C.ar   22  PHE22      -0.0200
     18  CD1       52.4830   -8.9120   15.0300 C.ar   22  PHE22      -0.0042
     19  CD2       52.8170   -7.0580   13.5710 C.ar   22  PHE22      -0.0042
     20  CE1       51.5190   -8.1870   15.7330 C.ar   22  PHE22      -0.0003
     21  CE2       51.8570   -6.3340   14.2670 C.ar   22  PHE22      -0.0003
     22  CZ        51.2110   -6.8980   15.3510 C.ar   22  PHE22      -0.0000
     23  N         51.2860  -10.2820   11.7840 N.am   23  LEU23      -0.1963
     24  CA        50.0910   -9.9610   10.9950 C.3    23  LEU23       0.1728
     25  C         49.2490   -8.8090   11.5700 C.2    23  LEU23       0.2616
     26  O         48.5190   -8.1510   10.8440 O.2    23  LEU23      -0.2715
     27  CB        49.1950  -11.2030   10.8620 C.3    23  LEU23       0.0311
     28  CG        49.7630  -12.4310   10.1550 C.3    23  LEU23       0.0022
     29  CD1       48.6900  -13.5070   10.0480 C.3    23  LEU23       0.0001
     30  CD2       50.2840  -12.0610    8.7740 C.3    23  LEU23       0.0001
     31  N         49.3280   -8.5820   12.8740 N.am   24  GLY24      -0.1955
     32  CA        48.5320   -7.5360   13.5070 C.3    24  GLY24       0.1869
     33  C         48.0960   -7.9680   14.8850 C.2    24  GLY24       0.2309
     34  O         48.3130   -9.1190   15.2750 O.2    24  GLY24      -0.2863
     35  N         49.1410  -11.5560   16.4390 N.3    31  CYS31      -0.1235
     36  CA        48.9740  -12.5570   15.3670 C.3    31  CYS31       0.1677
     37  C         50.1390  -12.6200   14.3990 C.2    31  CYS31       0.2270
     38  O         50.6800  -11.5910   14.0110 O.2    31  CYS31      -0.2867
     39  CB        47.7020  -12.2820   14.5730 C.3    31  CYS31       0.0956
     40  SG        46.2020  -12.2940   15.5850 S.3    31  CYS31      -0.0801
     41  N         52.0690  -15.1800   11.0540 N.3    33  GLU33      -0.1245
     42  CA        52.1310  -16.3400   10.1770 C.3    33  GLU33       0.1567
     43  C         52.9200  -17.3990   10.9340 C.2    33  GLU33       0.2260
     44  O         53.9450  -17.0930   11.5320 O.2    33  GLU33      -0.2867
     45  CB        52.8520  -16.0250    8.8570 C.3    33  GLU33       0.0388
     46  CG        51.9940  -15.3420    7.8160 C.3    33  GLU33       0.1160
     47  CD        52.7260  -15.0720    6.4920 C.2    33  GLU33       0.3649
     48  OE1       52.1030  -14.5070    5.5730 O.co2  33  GLU33      -0.2457
     49  OE2       53.9160  -15.4090    6.3630 O.co2  33  GLU33      -0.2457
     50  N         47.6360  -18.8990   10.0580 N.3    44  ALA44      -0.1231
     51  CA        47.5120  -17.7070   10.8900 C.3    44  ALA44       0.1694
     52  C         47.4330  -18.1390   12.3480 C.2    44  ALA44       0.2593
     53  O         46.5270  -18.8780   12.7410 O.2    44  ALA44      -0.2718
     54  CB        46.2760  -16.9220   10.5130 C.3    44  ALA44       0.0304
     55  N         48.3910  -17.6810   13.1460 N.am   45  GLY45      -0.1942
     56  CA        48.4190  -17.9740   14.5800 C.3    45  GLY45       0.2014
     57  C         47.9260  -16.7960   15.4070 C.2    45  GLY45       0.2638
     58  O         48.3930  -15.6600   15.2550 O.2    45  GLY45      -0.2714
     59  N         46.9670  -17.0590   16.2820 N.am   46  LYS46      -0.1977
     60  CA        46.4710  -16.0330   17.1790 C.3    46  LYS46       0.1596
     61  C         46.9790  -16.4020   18.5660 C.2    46  LYS46       0.2287
     62  O         46.6560  -17.4660   19.0850 O.2    46  LYS46      -0.2864
     63  CB        44.9550  -15.9780   17.1140 C.3    46  LYS46       0.0298
     64  CG        44.2950  -14.9270   17.9910 C.3    46  LYS46       0.0038
     65  CD        42.8860  -14.7430   17.4900 C.3    46  LYS46       0.0206
     66  CE        41.9640  -14.0780   18.4630 C.3    46  LYS46       0.1093
     67  NZ        40.5940  -14.4060   17.9670 N.3    46  LYS46      -0.1314
     68  N         34.1330  -22.3020   17.2920 N.3    69  HIS69      -0.1241
     69  CA        34.8950  -22.3160   16.0490 C.3    69  HIS69       0.1621
     70  C         35.4550  -23.7000   15.6900 C.2    69  HIS69       0.2264
     71  O         35.4590  -24.0800   14.5150 O.2    69  HIS69      -0.2867
     72  CB        36.0270  -21.2800   16.0900 C.3    69  HIS69       0.0745
     73  CG        36.5000  -20.8330   14.7330 C.ar   69  HIS69       0.0817
     74  ND1       37.3170  -19.7360   14.5550 N.ar   69  HIS69      -0.2268
     75  CD2       36.2730  -21.3350   13.4920 C.ar   69  HIS69       0.1154
     76  CE1       37.5750  -19.5850   13.2670 C.ar   69  HIS69       0.1986
     77  NE2       36.9550  -20.5430   12.6000 N.ar   69  HIS69      -0.2212
     78  N         36.2610  -19.5820    8.1970 N.3    78  VAL78      -0.1245
     79  CA        37.6850  -19.7240    8.4610 C.3    78  VAL78       0.1561
     80  C         37.9480  -21.1090    9.0640 C.2    78  VAL78       0.2260
     81  O         37.3500  -21.4760   10.0860 O.2    78  VAL78      -0.2867
     82  CB        38.1850  -18.6220    9.4180 C.3    78  VAL78       0.0252
     83  CG1       39.5580  -18.9470    9.9820 C.3    78  VAL78       0.0019
     84  CG2       38.2100  -17.2860    8.7170 C.3    78  VAL78       0.0019
     85  N         44.7590  -20.9410   12.7850 N.3    94  LEU94      -0.1231
     86  CA        43.6730  -20.6580   11.8510 C.3    94  LEU94       0.1693
     87  C         44.1540  -20.6420   10.4110 C.2    94  LEU94       0.2592
     88  O         45.3420  -20.4610   10.1380 O.2    94  LEU94      -0.2718
     89  CB        43.0520  -19.3040   12.1660 C.3    94  LEU94       0.0284
     90  CG        42.5740  -19.0780   13.5980 C.3    94  LEU94       0.0019
     91  CD1       42.3850  -17.6100   13.8320 C.3    94  LEU94       0.0001
     92  CD2       41.3140  -19.8400   13.8630 C.3    94  LEU94       0.0001
     93  N         43.2080  -20.8370    9.4990 N.am   95  GLU95      -0.1966
     94  CA        43.4490  -20.7470    8.0680 C.3    95  GLU95       0.1733
     95  C         44.0030  -19.3600    7.7430 C.2    95  GLU95       0.2616
     96  O         43.4310  -18.3540    8.1470 O.2    95  GLU95      -0.2715
     97  CB        42.1230  -20.9960    7.3220 C.3    95  GLU95       0.0429
     98  CG        42.1760  -20.8390    5.8030 C.3    95  GLU95       0.1163
     99  CD        40.8520  -21.2030    5.1280 C.2    95  GLU95       0.3649
    100  OE1       40.8720  -21.5530    3.9340 O.co2  95  GLU95      -0.2457
    101  OE2       39.7880  -21.1400    5.7770 O.co2  95  GLU95      -0.2457
    102  N         45.1370  -19.3140    7.0510 N.am   96  LEU96      -0.1963
    103  CA        45.7230  -18.0450    6.6210 C.3    96  LEU96       0.1728
    104  C         44.9530  -17.5140    5.4050 C.2    96  LEU96       0.2616
    105  O         44.7300  -18.2520    4.4290 O.2    96  LEU96      -0.2715
    106  CB        47.2060  -18.2220    6.2800 C.3    96  LEU96       0.0311
    107  CG        47.9660  -16.9870    5.7750 C.3    96  LEU96       0.0022
    108  CD1       48.0530  -15.9000    6.8520 C.3    96  LEU96       0.0001
    109  CD2       49.3670  -17.3720    5.2870 C.3    96  LEU96       0.0001
    110  N         44.5540  -16.2440    5.4690 N.am   97  CYS97      -0.1954
    111  CA        43.8230  -15.6010    4.3730 C.3    97  CYS97       0.1843
    112  C         44.6640  -14.4830    3.8050 C.2    97  CYS97       0.2625
    113  O         44.6930  -13.3600    4.3250 O.2    97  CYS97      -0.2714
    114  CB        42.4940  -15.0750    4.8710 C.3    97  CYS97       0.0997
    115  SG        41.4860  -16.3820    5.5710 S.3    97  CYS97      -0.0797
    116  N         45.3530  -14.8110    2.7230 N.am   98  ARG98      -0.1977
    117  CA        46.4600  -14.0100    2.2340 C.3    98  ARG98       0.1597
    118  C         46.0330  -12.6580    1.6960 C.2    98  ARG98       0.2287
    119  O         46.8530  -11.7560    1.5750 O.2    98  ARG98      -0.2864
    120  CB        47.2380  -14.8040    1.1830 C.3    98  ARG98       0.0334
    121  CG        47.9290  -16.0010    1.8110 C.3    98  ARG98       0.0492
    122  CD        48.5540  -16.9160    0.7990 C.3    98  ARG98       0.2205
    123  NE        49.3740  -17.9490    1.4360 N.pl3  98  ARG98      -0.0865
    124  CZ        50.6140  -17.7730    1.8930 C.cat  98  ARG98       0.5346
    125  NH1       51.2140  -16.5870    1.8170 N.pl3  98  ARG98       0.1354
    126  NH2       51.2620  -18.7970    2.4470 N.pl3  98  ARG98       0.1354
    127  N         43.8140  -10.7730    3.2520 N.3   100  ARG100     -0.1245
    128  CA        43.3140  -10.0480    4.4240 C.3   100  ARG100      0.1563
    129  C         41.7770  -10.0550    4.5020 C.2   100  ARG100      0.2260
    130  O         41.2020  -11.1370    4.5390 O.2   100  ARG100     -0.2867
    131  CB        43.9380   -8.6560    4.4970 C.3   100  ARG100      0.0307
    132  CG        45.4660   -8.7300    4.5010 C.3   100  ARG100      0.0489
    133  CD        46.1170   -7.3770    4.6850 C.3   100  ARG100      0.2205
    134  NE        45.7710   -6.7850    5.9720 N.pl3 100  ARG100     -0.0865
    135  CZ        45.9980   -5.5160    6.3100 C.cat 100  ARG100      0.5346
    136  NH1       46.5830   -4.6810    5.4590 N.pl3 100  ARG100      0.1354
    137  NH2       45.6370   -5.0710    7.5080 N.pl3 100  ARG100      0.1354
    138  N         35.7900   -6.2980    8.5770 N.3   144  GLY144     -0.1225
    139  CA        37.0160   -6.8070    9.1700 C.3   144  GLY144      0.1811
    140  C         37.0340   -8.2820    9.5070 C.2   144  GLY144      0.2280
    141  O         38.1200   -8.8520    9.6500 O.2   144  GLY144     -0.2866
    142  N         37.1750  -12.4410    5.7930 N.3   147  PHE147     -0.1241
    143  CA        38.4970  -12.6110    5.2150 C.3   147  PHE147      0.1605
    144  C         38.4320  -13.1580    3.7920 C.2   147  PHE147      0.2264
    145  O         37.4590  -13.7960    3.4030 O.2   147  PHE147     -0.2867
    146  CB        39.3660  -13.5220    6.1000 C.3   147  PHE147      0.0534
    147  CG        39.5950  -12.9720    7.4830 C.ar  147  PHE147     -0.0203
    148  CD1       38.7010  -13.2490    8.5160 C.ar  147  PHE147     -0.0042
    149  CD2       40.6810  -12.1530    7.7460 C.ar  147  PHE147     -0.0042
    150  CE1       38.9050  -12.7320    9.7840 C.ar  147  PHE147     -0.0003
    151  CE2       40.8850  -11.6300    9.0230 C.ar  147  PHE147     -0.0003
    152  CZ        40.0050  -11.9230   10.0360 C.ar  147  PHE147     -0.0000
    153  N         35.2600  -15.1820    9.9680 N.3   157  GLY157     -0.1210
    154  CA        36.1190  -15.4120   11.1230 C.3   157  GLY157      0.1956
    155  C         35.6880  -14.5620   12.3020 C.2   157  GLY157      0.2611
    156  O         34.6140  -13.9490   12.2850 O.2   157  GLY157     -0.2717
    157  N         36.5480  -14.5410   13.3170 N.am  158  ASP158     -0.1973
    158  CA        36.2780  -13.9550   14.6350 C.3   158  ASP158      0.1709
    159  C         34.9430  -14.3370   15.2960 C.2   158  ASP158      0.2293
    160  O         33.9480  -13.5950   15.2600 O.2   158  ASP158     -0.2864
    161  CB        36.4420  -12.4350   14.6090 C.3   158  ASP158      0.1436
    162  CG        36.8910  -11.8790   15.9580 C.2   158  ASP158      0.3671
    163  OD1       36.6600  -12.5440   17.0010 O.co2 158  ASP158     -0.2456
    164  OD2       37.4840  -10.7800   15.9700 O.co2 158  ASP158     -0.2456
@<TRIPOS>BOND
     1   122   123    1
     2   122   121    1
     3   120   121    1
     4   120   117    1
     5   123   124    2
     6   119   118    2
     7   118   117    1
     8   125   124    1
     9   124   126    1
    10   117   116    1
    11   116   112   am
    12   127   128    1
    13   145   144    2
    14   144   143    1
    15   112   113    2
    16   112   111    1
    17   100    99   ar
    18   111   114    1
    19   111   110    1
    20   128   131    1
    21   128   129    1
    22   105   104    2
    23    11     9    1
    24   131   132    1
    25   132   133    1
    26   129   130    2
    27   133   134    1
    28   114   115    1
    29    99   101   ar
    30    99    98    1
    31   143   142    1
    32   143   146    1
    33   109   107    1
    34     9    10    1
    35     9     8    2
    36   104   110   am
    37   104   103    1
    38   136   135    1
    39    48    47   ar
    40   107   106    1
    41   107   108    1
    42    98    97    1
    43   134   135    2
    44     8     7    1
    45   146   147    1
    46   106   103    1
    47   135   137    1
    48    49    47   ar
    49    47    46    1
    50   103   102    1
    51   102    95   am
    52     7     6    1
    53    97    94    1
    54   147   149   ar
    55   147   148   ar
    56    95    94    1
    57    95    96    2
    58   149   151   ar
    59    46    45    1
    60     6     5    1
    61    94    93    1
    62    78    79    1
    63    79    80    1
    64    79    82    1
    65   148   150   ar
    66   138   139    1
    67    84    82    1
    68    30    28    1
    69    45    42    1
    70     5     2    1
    71   151   152   ar
    72    80    81    2
    73   139   140    1
    74    82    83    1
    75    93    87   am
    76   140   141    2
    77   150   152   ar
    78   153   154    1
    79    29    28    1
    80    50    51    1
    81    88    87    2
    82    28    27    1
    83    42    43    1
    84    42    41    1
    85     1     2    1
    86     2     3    1
    87    87    86    1
    88    54    51    1
    89    15    14    2
    90    26    25    2
    91    27    24    1
    92    51    52    1
    93    43    44    2
    94     4     3    2
    95    24    25    1
    96    24    23    1
    97     3    12   am
    98   154   155    1
    99    14    23   am
   100    14    13    1
   101    25    31   am
   102    12    13    1
   103    86    89    1
   104    86    85    1
   105    89    90    1
   106   156   155    2
   107   155   157   am
   108    52    53    2
   109    52    55   am
   110    13    16    1
   111    77    76   ar
   112    77    75   ar
   113    31    32    1
   114    55    56    1
   115    16    17    1
   116    76    74   ar
   117   157   158    1
   118    75    73   ar
   119    32    33    1
   120    19    17   ar
   121    19    21   ar
   122    90    91    1
   123    90    92    1
   124    17    18   ar
   125    38    37    2
   126    21    22   ar
   127    37    36    1
   128    71    70    2
   129    74    73   ar
   130    39    36    1
   131    39    40    1
   132    56    57    1
   133   161   158    1
   134   161   162    1
   135   158   159    1
   136    73    72    1
   137    33    34    2
   138    18    20   ar
   139    58    57    2
   140   160   159    2
   141    22    20   ar
   142    36    35    1
   143    57    59   am
   144    70    69    1
   145   162   164   ar
   146   162   163   ar
   147    69    72    1
   148    69    68    1
   149    59    60    1
   150    63    60    1
   151    63    64    1
   152    60    61    1
   153    65    64    1
   154    65    66    1
   155    67    66    1
   156    61    62    2
