@<TRIPOS>MOLECULE
tmp/3fc8A00.pdb
 99 90 0 0 0
SMALL
GASTEIGER

@<TRIPOS>ATOM
      1  N         24.8600  -10.7960    0.8100 N.3     4  MET4       -0.1245
      2  CA        23.5270  -10.2160    0.9660 C.3     4  MET4        0.1570
      3  C         23.0110   -9.9440   -0.4250 C.2     4  MET4        0.2261
      4  O         23.7860   -9.5820   -1.3300 O.2     4  MET4       -0.2867
      5  CB        23.5770   -8.9020    1.7590 C.3     4  MET4        0.0387
      6  CG        22.1810   -8.3550    2.1980 C.3     4  MET4        0.0595
      7  SD        21.4910   -7.0980    1.0880 S.3     4  MET4       -0.1393
      8  CE        22.4730   -5.6530    1.5570 C.3     4  MET4        0.0692
      9  N         19.9630   -7.8330   -2.6160 N.3     6  LYS6       -0.1245
     10  CA        18.9260   -6.7790   -2.5430 C.3     6  LYS6        0.1561
     11  C         18.2470   -6.6630   -3.8970 C.2     6  LYS6        0.2260
     12  O         18.9090   -6.7390   -4.9490 O.2     6  LYS6       -0.2867
     13  CB        19.5750   -5.4440   -2.1580 C.3     6  LYS6        0.0271
     14  CG        18.5790   -4.3200   -1.9210 C.3     6  LYS6        0.0035
     15  CD        19.3110   -3.0760   -1.3470 C.3     6  LYS6        0.0206
     16  CE        18.2950   -2.0550   -0.8360 C.3     6  LYS6        0.1093
     17  NZ        18.9630   -0.9830    0.0020 N.3     6  LYS6       -0.1314
     18  N         15.1710   -4.4940   -6.1460 N.3     8  LEU8       -0.1245
     19  CA        14.3870   -3.2600   -6.2580 C.3     8  LEU8        0.1561
     20  C         13.4850   -3.3360   -7.4690 C.2     8  LEU8        0.2260
     21  O         13.8520   -3.9320   -8.5030 O.2     8  LEU8       -0.2867
     22  CB        15.2930   -2.0320   -6.4000 C.3     8  LEU8        0.0270
     23  CG        16.1870   -1.5750   -5.2340 C.3     8  LEU8        0.0019
     24  CD1       15.4170   -1.5750   -3.8680 C.3     8  LEU8        0.0001
     25  CD2       17.4000   -2.3800   -5.1190 C.3     8  LEU8        0.0001
     26  N         11.2230   -1.3730   -2.8290 N.3    15  PRO15      -0.2116
     27  CA        11.9120   -2.6530   -2.7260 C.3    15  PRO15       0.1372
     28  C         11.0480   -3.7590   -3.3100 C.2    15  PRO15       0.2244
     29  O          9.7940   -3.6390   -3.3950 O.2    15  PRO15      -0.2868
     30  CB        12.1530   -2.8230   -1.2140 C.3    15  PRO15       0.0268
     31  CG        11.2430   -1.9120   -0.5440 C.3    15  PRO15       0.0207
     32  CD        10.9380   -0.7760   -1.5020 C.3    15  PRO15       0.0892
     33  N         12.1730   -4.8250    3.1120 N.3    43  SER43      -0.1217
     34  CA        13.1940   -3.8650    2.6590 C.3    43  SER43       0.1889
     35  C         13.8670   -4.2670    1.3320 C.2    43  SER43       0.2288
     36  O         14.7780   -3.5710    0.8500 O.2    43  SER43      -0.2866
     37  CB        14.2570   -3.6580    3.7300 C.3    43  SER43       0.2089
     38  OG        15.1530   -4.7730    3.7790 O.3    43  SER43      -0.2183
     39  N         15.6290   -6.8410    0.9500 N.3    45  GLU45      -0.1245
     40  CA        16.9140   -7.4470    1.3110 C.3    45  GLU45       0.1567
     41  C         16.8240   -8.8830    1.8210 C.2    45  GLU45       0.2260
     42  O         15.8530   -9.2870    2.4500 O.2    45  GLU45      -0.2867
     43  CB        17.6580   -6.5890    2.3350 C.3    45  GLU45       0.0388
     44  CG        18.1690   -5.2560    1.7520 C.3    45  GLU45       0.1160
     45  CD        18.5970   -4.2660    2.8050 C.2    45  GLU45       0.3649
     46  OE1       19.0500   -4.6900    3.8960 O.co2  45  GLU45      -0.2457
     47  OE2       18.4610   -3.0520    2.5470 O.co2  45  GLU45      -0.2457
     48  N         27.6260   -7.7630   -1.5720 N.3    97  THR97      -0.1218
     49  CA        26.2210   -7.3620   -1.7510 C.3    97  THR97       0.1862
     50  C         25.9060   -7.4250   -3.2410 C.2    97  THR97       0.2287
     51  O         26.5750   -6.7720   -4.0510 O.2    97  THR97      -0.2866
     52  CB        25.9600   -5.9340   -1.1930 C.3    97  THR97       0.1770
     53  OG1       26.1900   -5.9580    0.2180 O.3    97  THR97      -0.2211
     54  CG2       24.5140   -5.5190   -1.4220 C.3    97  THR97       0.0375
     55  N         23.0200   -6.7160   -5.9500 N.3    99  ALA99      -0.1231
     56  CA        21.7720   -5.9640   -6.0330 C.3    99  ALA99       0.1694
     57  C         21.2360   -6.1410   -7.4470 C.2    99  ALA99       0.2592
     58  O         22.0300   -6.1770   -8.3670 O.2    99  ALA99      -0.2718
     59  CB        22.0160   -4.5040   -5.7600 C.3    99  ALA99       0.0304
     60  N         19.9130   -6.2390   -7.6030 N.am  100  ALA100     -0.1966
     61  CA        19.2420   -6.2690   -8.9180 C.3   100  ALA100      0.1728
     62  C         18.0850   -5.2970   -8.9440 C.2   100  ALA100      0.2616
     63  O         17.2540   -5.2600   -8.0020 O.2   100  ALA100     -0.2715
     64  CB        18.7070   -7.6700   -9.2380 C.3   100  ALA100      0.0334
     65  N         18.0430   -4.5060  -10.0100 N.am  101  LEU101     -0.1977
     66  CA        16.9800   -3.5550  -10.2420 C.3   101  LEU101      0.1596
     67  C         16.1220   -4.0850  -11.3860 C.2   101  LEU101      0.2287
     68  O         16.6280   -4.2930  -12.4830 O.2   101  LEU101     -0.2864
     69  CB        17.5930   -2.1960  -10.6100 C.3   101  LEU101      0.0297
     70  CG        16.6290   -1.1110  -11.0920 C.3   101  LEU101      0.0022
     71  CD1       15.7510   -0.6680   -9.9160 C.3   101  LEU101      0.0001
     72  CD2       17.4530    0.0720  -11.5560 C.3   101  LEU101      0.0001
     73  N         19.0940   -4.6870  -14.1580 N.3   108  SER108     -0.1202
     74  CA        20.4690   -4.2140  -13.9880 C.3   108  SER108      0.2020
     75  C         20.9400   -4.8120  -12.6780 C.2   108  SER108      0.2619
     76  O         20.1840   -4.8060  -11.6750 O.2   108  SER108     -0.2717
     77  CB        20.5160   -2.7100  -13.8710 C.3   108  SER108      0.2103
     78  OG        20.1460   -2.0920  -15.1030 O.3   108  SER108     -0.2182
     79  N         22.1480   -5.3680  -12.6770 N.am  109  THR109     -0.1938
     80  CA        22.6620   -5.9570  -11.4400 C.3   109  THR109      0.2028
     81  C         24.0360   -5.3710  -11.1570 C.2   109  THR109      0.2642
     82  O         24.7740   -5.0940  -12.0960 O.2   109  THR109     -0.2714
     83  CB        22.6990   -7.5070  -11.5100 C.3   109  THR109      0.1808
     84  OG1       23.2200   -8.0120  -10.2920 O.3   109  THR109     -0.2208
     85  CG2       23.5830   -8.0450  -12.6750 C.3   109  THR109      0.0379
     86  N         24.3780   -5.1570   -9.8870 N.am  110  THR110     -0.1950
     87  CA        25.7250   -4.6730   -9.5480 C.3   110  THR110      0.1897
     88  C         26.2490   -5.4360   -8.3250 C.2   110  THR110      0.2313
     89  O         25.4920   -6.1150   -7.6680 O.2   110  THR110     -0.2863
     90  CB        25.7730   -3.1150   -9.3740 C.3   110  THR110      0.1794
     91  OG1       27.1460   -2.6720   -9.3490 O.3   110  THR110     -0.2208
     92  CG2       25.0800   -2.6830   -8.1120 C.3   110  THR110      0.0378
     93  N         28.6320   -4.8550   -4.8310 N.3   112  VAL112     -0.1245
     94  CA        29.4920   -4.0760   -3.9280 C.3   112  VAL112      0.1561
     95  C         30.2770   -5.0800   -3.0690 C.2   112  VAL112      0.2260
     96  O         29.6730   -5.8910   -2.3860 O.2   112  VAL112     -0.2867
     97  CB        28.6640   -3.1130   -3.0420 C.3   112  VAL112      0.0252
     98  CG1       29.5220   -2.4300   -1.9490 C.3   112  VAL112      0.0019
     99  CG2       27.9820   -2.0600   -3.9190 C.3   112  VAL112      0.0019
@<TRIPOS>BOND
     1    78    77    1
     2    73    74    1
     3    74    77    1
     4    74    75    1
     5    75    79   am
     6    75    76    2
     7    79    80    1
     8    85    83    1
     9    68    67    2
    10    82    81    2
    11    72    70    1
    12    83    80    1
    13    83    84    1
    14    80    81    1
    15    67    66    1
    16    81    86   am
    17    70    69    1
    18    70    71    1
    19    69    66    1
    20    66    65    1
    21    65    62   am
    22    86    87    1
    23    87    90    1
    24    87    88    1
    25    90    91    1
    26    90    92    1
    27    64    61    1
    28    62    61    1
    29    62    63    2
    30    61    60    1
    31    21    20    2
    32    58    57    2
    33    88    89    2
    34    60    57   am
    35    20    19    1
    36    57    56    1
    37    22    19    1
    38    22    23    1
    39    19    18    1
    40    56    55    1
    41    56    59    1
    42    23    25    1
    43    23    24    1
    44    12    11    2
    45    93    94    1
    46    51    50    2
    47    94    95    1
    48    94    97    1
    49    99    97    1
    50    11    10    1
    51    29    28    2
    52    28    27    1
    53    50    49    1
    54    95    96    2
    55    97    98    1
    56    26    27    1
    57    26    32    1
    58    27    30    1
    59     9    10    1
    60    10    13    1
    61    13    14    1
    62    14    15    1
    63    49    48    1
    64    49    52    1
    65    32    31    1
    66    54    52    1
    67    15    16    1
    68     4     3    2
    69    30    31    1
    70    52    53    1
    71    16    17    1
    72     3     2    1
    73     1     2    1
    74    36    35    2
    75    39    40    1
    76     2     5    1
    77     7     8    1
    78     7     6    1
    79    40    41    1
    80    40    43    1
    81    35    34    1
    82    44    43    1
    83    44    45    1
    84     5     6    1
    85    41    42    2
    86    47    45   ar
    87    34    33    1
    88    34    37    1
    89    45    46   ar
    90    37    38    1
