@<TRIPOS>MOLECULE
tmp/3fc9A00.pdb
 147 138 0 0 0
SMALL
GASTEIGER

@<TRIPOS>ATOM
      1  N         21.7570   28.9190  146.7190 N.3     9  LYS9       -0.1245
      2  CA        20.8780   27.9400  147.3470 C.3     9  LYS9        0.1561
      3  C         21.5930   26.9380  148.2600 C.2     9  LYS9        0.2260
      4  O         22.7860   26.6930  148.1110 O.2     9  LYS9       -0.2867
      5  CB        20.0700   27.2210  146.2680 C.3     9  LYS9        0.0271
      6  CG        19.0820   28.1230  145.5460 C.3     9  LYS9        0.0035
      7  CD        18.4480   27.3660  144.4100 C.3     9  LYS9        0.0206
      8  CE        17.1730   28.0060  143.9570 C.3     9  LYS9        0.1093
      9  NZ        16.6880   27.3350  142.7310 N.3     9  LYS9       -0.1314
     10  N          8.6670   33.0620  145.7960 N.3    50  TYR50      -0.1241
     11  CA         8.2410   32.0930  144.7970 C.3    50  TYR50       0.1605
     12  C          6.7210   32.0640  144.6160 C.2    50  TYR50       0.2264
     13  O          6.1670   31.0490  144.1880 O.2    50  TYR50      -0.2867
     14  CB         8.7470   30.6960  145.1710 C.3    50  TYR50       0.0534
     15  CG        10.1360   30.3730  144.6660 C.ar   50  TYR50      -0.0201
     16  CD1       11.0700   29.7440  145.4800 C.ar   50  TYR50      -0.0009
     17  CD2       10.5120   30.6920  143.3720 C.ar   50  TYR50      -0.0009
     18  CE1       12.3450   29.4370  145.0130 C.ar   50  TYR50       0.0417
     19  CE2       11.7760   30.3910  142.8960 C.ar   50  TYR50       0.0417
     20  CZ        12.6920   29.7640  143.7150 C.ar   50  TYR50       0.1957
     21  OH        13.9520   29.4700  143.2210 O.3    50  TYR50      -0.2866
     22  N          4.6830   30.6310  141.8870 N.3    53  HIS53      -0.1241
     23  CA         4.7710   29.1790  141.7620 C.3    53  HIS53       0.1621
     24  C          3.8810   28.4600  142.7740 C.2    53  HIS53       0.2264
     25  O          3.8690   27.2300  142.8160 O.2    53  HIS53      -0.2867
     26  CB         6.2220   28.6870  141.9510 C.3    53  HIS53       0.0745
     27  CG         7.2120   29.2570  140.9760 C.ar   53  HIS53       0.0817
     28  ND1        7.8520   28.4850  140.0290 N.ar   53  HIS53      -0.2268
     29  CD2        7.6890   30.5170  140.8170 C.ar   53  HIS53       0.1154
     30  CE1        8.6690   29.2450  139.3200 C.ar   53  HIS53       0.1986
     31  NE2        8.5890   30.4830  139.7790 N.ar   53  HIS53      -0.2212
     32  N          5.4090   21.1450  142.7230 N.3    58  TYR58      -0.1241
     33  CA         6.7140   21.1570  143.3780 C.3    58  TYR58       0.1605
     34  C          6.8600   22.2390  144.4550 C.2    58  TYR58       0.2264
     35  O          7.8560   22.2590  145.1750 O.2    58  TYR58      -0.2867
     36  CB         7.8330   21.3170  142.3370 C.3    58  TYR58       0.0534
     37  CG         7.7210   22.5690  141.4940 C.ar   58  TYR58      -0.0201
     38  CD1        7.9940   23.8160  142.0350 C.ar   58  TYR58      -0.0009
     39  CD2        7.3480   22.5020  140.1580 C.ar   58  TYR58      -0.0009
     40  CE1        7.8890   24.9610  141.2750 C.ar   58  TYR58       0.0417
     41  CE2        7.2400   23.6430  139.3860 C.ar   58  TYR58       0.0417
     42  CZ         7.5130   24.8710  139.9500 C.ar   58  TYR58       0.1957
     43  OH         7.4150   26.0190  139.1980 O.3    58  TYR58      -0.2866
     44  N          9.8460   22.4440  147.1110 N.3    62  LEU62      -0.1245
     45  CA        10.7090   23.5690  146.7910 C.3    62  LEU62       0.1561
     46  C         10.9890   24.3920  148.0400 C.2    62  LEU62       0.2260
     47  O         12.1410   24.6680  148.3630 O.2    62  LEU62      -0.2867
     48  CB        10.0580   24.4520  145.7290 C.3    62  LEU62       0.0270
     49  CG        10.7820   25.7660  145.4430 C.3    62  LEU62       0.0019
     50  CD1       12.1320   25.4950  144.8060 C.3    62  LEU62       0.0001
     51  CD2        9.9380   26.6670  144.5610 C.3    62  LEU62       0.0001
     52  N         21.2410   35.5900  133.8160 N.3    86  ARG86      -0.1245
     53  CA        20.4030   34.4370  133.5190 C.3    86  ARG86       0.1563
     54  C         21.0830   33.4880  132.5360 C.2    86  ARG86       0.2260
     55  O         20.9260   32.2750  132.6270 O.2    86  ARG86      -0.2867
     56  CB        19.0370   34.8540  132.9850 C.3    86  ARG86       0.0307
     57  CG        18.0400   35.2870  134.0530 C.3    86  ARG86       0.0489
     58  CD        16.7510   34.5190  133.8830 C.3    86  ARG86       0.2205
     59  NE        16.5610   33.5160  134.9240 N.pl3  86  ARG86      -0.0865
     60  CZ        15.7990   32.4280  134.8000 C.cat  86  ARG86       0.5346
     61  NH1       15.1610   32.1680  133.6610 N.pl3  86  ARG86       0.1354
     62  NH2       15.6840   31.5840  135.8170 N.pl3  86  ARG86       0.1354
     63  N         23.4430   31.6170  134.4530 N.3    89  GLN89      -0.1245
     64  CA        22.6890   30.6630  135.2550 C.3    89  GLN89       0.1566
     65  C         22.5380   29.3330  134.5170 C.2    89  GLN89       0.2260
     66  O         22.9990   28.2960  134.9950 O.2    89  GLN89      -0.2867
     67  CB        21.3170   31.2370  135.6160 C.3    89  GLN89       0.0367
     68  CG        20.5830   30.4880  136.7190 C.3    89  GLN89       0.0905
     69  CD        19.0850   30.7330  136.6910 C.2    89  GLN89       0.2608
     70  OE1       18.4670   31.0360  137.7150 O.2    89  GLN89      -0.2717
     71  NE2       18.4900   30.6020  135.5090 N.am   89  GLN89      -0.0878
     72  N         16.8790   25.5490  133.8610 N.3    92  THR92      -0.1218
     73  CA        16.4230   24.7910  135.0330 C.3    92  THR92       0.1862
     74  C         16.5950   23.2870  134.8190 C.2    92  THR92       0.2287
     75  O         17.0560   22.5670  135.7160 O.2    92  THR92      -0.2866
     76  CB        14.9230   25.0370  135.3480 C.3    92  THR92       0.1770
     77  OG1       14.5800   26.4120  135.1260 O.3    92  THR92      -0.2211
     78  CG2       14.6070   24.6320  136.7910 C.3    92  THR92       0.0375
     79  N         24.6670   26.0500  135.9340 N.3   103  ARG103     -0.1245
     80  CA        23.8880   24.8250  136.1040 C.3   103  ARG103      0.1563
     81  C         24.3440   23.6980  135.1880 C.2   103  ARG103      0.2260
     82  O         24.2340   22.5290  135.5420 O.2   103  ARG103     -0.2867
     83  CB        22.4020   25.1050  135.8870 C.3   103  ARG103      0.0307
     84  CG        21.7040   25.7600  137.0680 C.3   103  ARG103      0.0489
     85  CD        20.2840   26.1520  136.7050 C.3   103  ARG103      0.2205
     86  NE        19.6000   26.8360  137.7950 N.pl3 103  ARG103     -0.0865
     87  CZ        18.4590   27.4960  137.6600 C.cat 103  ARG103      0.5346
     88  NH1       17.8730   27.5650  136.4770 N.pl3 103  ARG103      0.1354
     89  NH2       17.9070   28.0910  138.7060 N.pl3 103  ARG103      0.1354
     90  N         16.5820   18.9310  138.8230 N.3   110  ILE110     -0.1231
     91  CA        15.5670   19.9010  138.4420 C.3   110  ILE110      0.1692
     92  C         15.2800   20.8870  139.5890 C.2   110  ILE110      0.2591
     93  O         15.0350   22.0750  139.3500 O.2   110  ILE110     -0.2718
     94  CB        14.2660   19.1660  137.9850 C.3   110  ILE110      0.0266
     95  CG1       13.1680   20.1620  137.5820 C.3   110  ILE110      0.0019
     96  CG2       13.7960   18.1580  139.0520 C.3   110  ILE110      0.0020
     97  CD1       13.2740   20.6570  136.1320 C.3   110  ILE110      0.0001
     98  N         15.3420   20.3880  140.8280 N.am  111  ARG111     -0.1980
     99  CA        15.0520   21.1780  142.0230 C.3   111  ARG111      0.1597
    100  C         16.2900   21.8300  142.6370 C.2   111  ARG111      0.2287
    101  O         16.3410   23.0470  142.8200 O.2   111  ARG111     -0.2864
    102  CB        14.3480   20.3160  143.0740 C.3   111  ARG111      0.0334
    103  CG        14.2120   20.9700  144.4550 C.3   111  ARG111      0.0492
    104  CD        13.2590   20.2040  145.3730 C.3   111  ARG111      0.2205
    105  NE        11.9370   20.0830  144.7630 N.pl3 111  ARG111     -0.0865
    106  CZ        11.3400   18.9310  144.4700 C.cat 111  ARG111      0.5346
    107  NH1       11.9260   17.7760  144.7630 N.pl3 111  ARG111      0.1354
    108  NH2       10.1430   18.9400  143.8980 N.pl3 111  ARG111      0.1354
    109  N         19.2850   23.2150  142.0240 N.3   113  ASN113     -0.1240
    110  CA        20.1050   23.7620  140.9520 C.3   113  ASN113      0.1653
    111  C         20.9500   24.9810  141.3460 C.2   113  ASN113      0.2266
    112  O         21.1710   25.8810  140.5300 O.2   113  ASN113     -0.2867
    113  CB        19.2490   24.0620  139.7180 C.3   113  ASN113      0.1155
    114  CG        17.9920   24.8430  140.0460 C.2   113  ASN113      0.2627
    115  OD1       17.9630   25.6350  140.9840 O.2   113  ASN113     -0.2716
    116  ND2       16.9480   24.6350  139.2560 N.am  113  ASN113     -0.0877
    117  N         21.4680   27.9700  142.1750 N.3   115  ILE115     -0.1231
    118  CA        21.3160   29.4260  142.0620 C.3   115  ILE115      0.1692
    119  C         19.9210   29.8480  141.5730 C.2   115  ILE115      0.2592
    120  O         19.2910   29.1470  140.7830 O.2   115  ILE115     -0.2718
    121  CB        22.4120   30.0160  141.1040 C.3   115  ILE115      0.0266
    122  CG1       22.3410   31.5400  141.0330 C.3   115  ILE115      0.0019
    123  CG2       22.2930   29.4300  139.7060 C.3   115  ILE115      0.0020
    124  CD1       23.3710   32.1620  140.1030 C.3   115  ILE115      0.0001
    125  N         19.4390   30.9870  142.0600 N.am  116  HIS116     -0.1962
    126  CA        18.2670   31.6360  141.4810 C.3   116  HIS116      0.1787
    127  C         18.6430   32.9910  140.9060 C.2   116  HIS116      0.2620
    128  O         19.3880   33.7420  141.5320 O.2   116  HIS116     -0.2715
    129  CB        17.1660   31.8670  142.5180 C.3   116  HIS116      0.0785
    130  CG        16.1980   32.9380  142.1140 C.ar  116  HIS116      0.0821
    131  ND1       14.9720   32.6640  141.5440 N.ar  116  HIS116     -0.2267
    132  CD2       16.2990   34.2900  142.1460 C.ar  116  HIS116      0.1154
    133  CE1       14.3550   33.7970  141.2640 C.ar  116  HIS116      0.1986
    134  NE2       15.1400   34.7980  141.6190 N.ar  116  HIS116     -0.2212
    135  N         18.0940   33.3300  139.7430 N.am  117  ALA117     -0.1977
    136  CA        18.3530   34.6450  139.1550 C.3   117  ALA117      0.1597
    137  C         17.1120   35.2690  138.5210 C.2   117  ALA117      0.2287
    138  O         16.4560   34.6420  137.6860 O.2   117  ALA117     -0.2864
    139  CB        19.4890   34.5590  138.1410 C.3   117  ALA117      0.0319
    140  N         14.5410   37.0560  136.1940 N.3   119  ASP119     -0.1239
    141  CA        14.4190   36.8570  134.7490 C.3   119  ASP119      0.1674
    142  C         13.7330   38.0020  134.0200 C.2   119  ASP119      0.2266
    143  O         13.3270   37.8380  132.8750 O.2   119  ASP119     -0.2867
    144  CB        13.6760   35.5530  134.4430 C.3   119  ASP119      0.1410
    145  CG        12.2500   35.5600  134.9540 C.2   119  ASP119      0.3668
    146  OD1       11.8290   36.5820  135.5610 O.co2 119  ASP119     -0.2456
    147  OD2       11.5550   34.5340  134.7480 O.co2 119  ASP119     -0.2456
@<TRIPOS>BOND
     1    54    55    2
     2    54    53    1
     3   143   142    2
     4    56    53    1
     5    56    57    1
     6    53    52    1
     7    61    60    1
     8    72    73    1
     9    58    57    1
    10    58    59    1
    11   142   141    1
    12   144   141    1
    13   144   145    1
    14    63    64    1
    15    65    66    2
    16    65    64    1
    17   147   145   ar
    18   141   140    1
    19    60    59    2
    20    60    62    1
    21    74    73    1
    22    74    75    2
    23   145   146   ar
    24    73    76    1
    25    77    76    1
    26    81    82    2
    27    81    80    1
    28    64    67    1
    29    76    78    1
    30    71    69   am
    31    67    68    1
    32    83    80    1
    33    83    84    1
    34    79    80    1
    35    97    95    1
    36    88    87    1
    37    69    68    1
    38    69    70    2
    39    85    84    1
    40    85    86    1
    41    95    94    1
    42    87    86    2
    43    87    89    1
    44   138   137    2
    45    94    91    1
    46    94    96    1
    47   139   136    1
    48    91    90    1
    49    91    92    1
    50   137   136    1
    51   136   135    1
    52    43    42    1
    53   116   114   am
    54    30    31   ar
    55    30    28   ar
    56    93    92    2
    57    41    42   ar
    58    41    39   ar
    59    92    98   am
    60   123   121    1
    61   113   114    1
    62   113   110    1
    63   135   127   am
    64    31    29   ar
    65    42    40   ar
    66    28    27   ar
    67   114   115    2
    68   124   122    1
    69    39    37   ar
    70   112   111    2
    71   120   119    2
    72    29    27   ar
    73    98    99    1
    74   127   126    1
    75   127   128    2
    76   110   111    1
    77   110   109    1
    78    27    26    1
    79   122   121    1
    80   121   118    1
    81   133   131   ar
    82   133   134   ar
    83    40    38   ar
    84   126   125    1
    85   126   129    1
    86    37    38   ar
    87    37    36    1
    88   131   130   ar
    89   119   125   am
    90   119   118    1
    91   134   132   ar
    92    23    22    1
    93    23    26    1
    94    23    24    1
    95    99   100    1
    96    99   102    1
    97   118   117    1
    98   130   132   ar
    99   130   129    1
   100    36    33    1
   101   100   101    2
   102    32    33    1
   103     9     8    1
   104    24    25    2
   105    19    17   ar
   106    19    20   ar
   107   102   103    1
   108    21    20    1
   109    17    15   ar
   110    33    34    1
   111    20    18   ar
   112   108   106    1
   113     8     7    1
   114    13    12    2
   115     7     6    1
   116   103   104    1
   117    34    35    2
   118   106   105    2
   119   106   107    1
   120    51    49    1
   121    12    11    1
   122    15    14    1
   123    15    16   ar
   124   105   104    1
   125    11    14    1
   126    11    10    1
   127    50    49    1
   128    18    16   ar
   129    49    48    1
   130     6     5    1
   131    48    45    1
   132     5     2    1
   133     1     2    1
   134    45    44    1
   135    45    46    1
   136     2     3    1
   137    46    47    2
   138     4     3    2
