@<TRIPOS>MOLECULE
tmp/3fcbB00.pdb
 99 90 0 0 0
SMALL
GASTEIGER

@<TRIPOS>ATOM
      1  N         19.2740  -11.2490  -32.4960 N.3     4  MET4       -0.1245
      2  CA        20.5040  -10.4700  -32.6470 C.3     4  MET4        0.1570
      3  C         20.9930  -10.1870  -31.2350 C.2     4  MET4        0.2261
      4  O         20.1680   -9.9990  -30.3310 O.2     4  MET4       -0.2867
      5  CB        20.2240   -9.1440  -33.3530 C.3     4  MET4        0.0387
      6  CG        21.4980   -8.4140  -33.8660 C.3     4  MET4        0.0595
      7  SD        22.1910   -7.1950  -32.7000 S.3     4  MET4       -0.1393
      8  CE        21.0780   -5.7940  -33.0070 C.3     4  MET4        0.0692
      9  N         23.7410   -7.6740  -29.0280 N.3     6  LYS6       -0.1245
     10  CA        24.5680   -6.4930  -29.1020 C.3     6  LYS6        0.1561
     11  C         25.2330   -6.2590  -27.7540 C.2     6  LYS6        0.2260
     12  O         24.5650   -6.3510  -26.7270 O.2     6  LYS6       -0.2867
     13  CB        23.7330   -5.2630  -29.4880 C.3     6  LYS6        0.0271
     14  CG        24.5770   -4.0210  -29.6490 C.3     6  LYS6        0.0035
     15  CD        23.7500   -2.7340  -29.7970 C.3     6  LYS6        0.0206
     16  CE        23.0770   -2.6570  -31.1480 C.3     6  LYS6        0.1093
     17  NZ        22.8590   -1.2300  -31.5200 N.3     6  LYS6       -0.1314
     18  N         27.9110   -3.7140  -25.4850 N.3     8  LEU8       -0.1245
     19  CA        28.5580   -2.3900  -25.3830 C.3     8  LEU8        0.1561
     20  C         29.4730   -2.3110  -24.1650 C.2     8  LEU8        0.2260
     21  O         29.2480   -2.9760  -23.1600 O.2     8  LEU8       -0.2867
     22  CB        27.5000   -1.2680  -25.3120 C.3     8  LEU8        0.0270
     23  CG        26.5420   -1.2590  -26.4930 C.3     8  LEU8        0.0019
     24  CD1       25.4340   -0.3020  -26.2000 C.3     8  LEU8        0.0001
     25  CD2       27.2930   -0.8830  -27.7640 C.3     8  LEU8        0.0001
     26  N         31.4990   -0.0940  -28.7650 N.3    15  PRO15      -0.2116
     27  CA        31.0130   -1.4610  -28.8660 C.3    15  PRO15       0.1372
     28  C         32.0220   -2.3900  -28.2050 C.2    15  PRO15       0.2244
     29  O         33.2290   -2.0800  -28.1330 O.2    15  PRO15      -0.2868
     30  CB        30.9700   -1.7380  -30.3780 C.3    15  PRO15       0.0268
     31  CG        31.6240   -0.6150  -31.0330 C.3    15  PRO15       0.0207
     32  CD        31.7570    0.5200  -30.0830 C.3    15  PRO15       0.0892
     33  N         31.0790   -3.6120  -34.6430 N.3    43  SER43      -0.1217
     34  CA        29.9580   -2.7890  -34.1660 C.3    43  SER43       0.1889
     35  C         29.3650   -3.3150  -32.8460 C.2    43  SER43       0.2288
     36  O         28.3730   -2.7780  -32.3530 O.2    43  SER43      -0.2866
     37  CB        28.8520   -2.7280  -35.2280 C.3    43  SER43       0.2089
     38  OG        28.2020   -3.9920  -35.3540 O.3    43  SER43      -0.2183
     39  N         27.9450   -6.1670  -32.5470 N.3    45  GLU45      -0.1245
     40  CA        26.7700   -6.9670  -32.8710 C.3    45  GLU45       0.1567
     41  C         27.1140   -8.3610  -33.3610 C.2    45  GLU45       0.2260
     42  O         28.2150   -8.6200  -33.8720 O.2    45  GLU45      -0.2867
     43  CB        25.8470   -6.2670  -33.8620 C.3    45  GLU45       0.0388
     44  CG        25.1950   -5.0100  -33.2870 C.3    45  GLU45       0.1160
     45  CD        24.5710   -4.1150  -34.3480 C.2    45  GLU45       0.3649
     46  OE1       24.0940   -4.6200  -35.3870 O.co2  45  GLU45      -0.2457
     47  OE2       24.5450   -2.8860  -34.1450 O.co2  45  GLU45      -0.2457
     48  N         16.1490   -8.5840  -30.0820 N.3    97  THR97      -0.1218
     49  CA        17.4960   -8.0670  -29.9000 C.3    97  THR97       0.1862
     50  C         17.7930   -8.1220  -28.4040 C.2    97  THR97       0.2287
     51  O         17.0640   -7.5260  -27.5980 O.2    97  THR97      -0.2866
     52  CB        17.6740   -6.6280  -30.4430 C.3    97  THR97       0.1770
     53  OG1       17.3940   -6.6170  -31.8510 O.3    97  THR97      -0.2211
     54  CG2       19.1120   -6.1920  -30.2530 C.3    97  THR97       0.0375
     55  N         20.4910   -6.9760  -25.7210 N.3    99  ALA99      -0.1231
     56  CA        21.6100   -6.0570  -25.5630 C.3    99  ALA99       0.1694
     57  C         22.1780   -6.1450  -24.1590 C.2    99  ALA99       0.2592
     58  O         21.4480   -6.3720  -23.2030 O.2    99  ALA99      -0.2718
     59  CB        21.2100   -4.5960  -25.8850 C.3    99  ALA99       0.0304
     60  N         23.4940   -5.9960  -24.0530 N.am  100  ALA100     -0.1966
     61  CA        24.1530   -5.9500  -22.7620 C.3   100  ALA100      0.1728
     62  C         25.1690   -4.8340  -22.7310 C.2   100  ALA100      0.2616
     63  O         26.0220   -4.7350  -23.6220 O.2   100  ALA100     -0.2715
     64  CB        24.8230   -7.2820  -22.4410 C.3   100  ALA100      0.0334
     65  N         25.0810   -4.0190  -21.6980 N.am  101  LEU101     -0.1977
     66  CA        26.0150   -2.9300  -21.4620 C.3   101  LEU101      0.1596
     67  C         26.9040   -3.3580  -20.2810 C.2   101  LEU101      0.2287
     68  O         26.4090   -3.5890  -19.1690 O.2   101  LEU101     -0.2864
     69  CB        25.2270   -1.6800  -21.1080 C.3   101  LEU101      0.0297
     70  CG        25.9950   -0.4340  -20.6760 C.3   101  LEU101      0.0022
     71  CD1       26.9120    0.0570  -21.8310 C.3   101  LEU101      0.0001
     72  CD2       25.0150    0.6810  -20.2070 C.3   101  LEU101      0.0001
     73  N         24.0170   -4.2780  -17.4770 N.3   108  SER108     -0.1202
     74  CA        22.6010   -4.0010  -17.6370 C.3   108  SER108      0.2020
     75  C         22.2350   -4.6600  -18.9550 C.2   108  SER108      0.2619
     76  O         22.9220   -4.4740  -19.9780 O.2   108  SER108     -0.2717
     77  CB        22.3670   -2.4950  -17.7590 C.3   108  SER108      0.2103
     78  OG        22.6960   -1.8180  -16.5550 O.3   108  SER108     -0.2182
     79  N         21.1540   -5.4200  -18.9390 N.am  109  THR109     -0.1938
     80  CA        20.7190   -6.1050  -20.1350 C.3   109  THR109      0.2028
     81  C         19.2540   -5.7810  -20.4310 C.2   109  THR109      0.2642
     82  O         18.4500   -5.6210  -19.5050 O.2   109  THR109     -0.2714
     83  CB        20.9750   -7.6190  -20.0460 C.3   109  THR109      0.1808
     84  OG1       20.6720   -8.2180  -21.2920 O.3   109  THR109     -0.2208
     85  CG2       20.1300   -8.2760  -18.9440 C.3   109  THR109      0.0379
     86  N         18.9190   -5.6600  -21.7050 N.am  110  THR110     -0.1950
     87  CA        17.5320   -5.3730  -22.0750 C.3   110  THR110      0.1897
     88  C         17.1820   -6.1950  -23.3010 C.2   110  THR110      0.2313
     89  O         18.0570   -6.7770  -23.9490 O.2   110  THR110     -0.2863
     90  CB        17.2570   -3.8430  -22.3270 C.3   110  THR110      0.1794
     91  OG1       15.8370   -3.6030  -22.2740 O.3   110  THR110     -0.2208
     92  CG2       17.7620   -3.3950  -23.6700 C.3   110  THR110      0.0378
     93  N         14.6830   -5.9360  -26.8580 N.3   112  VAL112     -0.1245
     94  CA        13.8530   -5.0930  -27.7260 C.3   112  VAL112      0.1561
     95  C         13.2560   -6.0810  -28.6940 C.2   112  VAL112      0.2260
     96  O         13.9850   -6.7700  -29.4430 O.2   112  VAL112     -0.2867
     97  CB        14.6800   -3.9970  -28.4190 C.3   112  VAL112      0.0252
     98  CG1       13.8240   -3.1770  -29.4360 C.3   112  VAL112      0.0019
     99  CG2       15.3160   -3.0680  -27.3640 C.3   112  VAL112      0.0019
@<TRIPOS>BOND
     1    46    45   ar
     2    38    37    1
     3    37    34    1
     4    33    34    1
     5    45    47   ar
     6    45    44    1
     7    34    35    1
     8    42    41    2
     9     6     5    1
    10     6     7    1
    11    43    44    1
    12    43    40    1
    13    41    40    1
    14     5     2    1
    15     8     7    1
    16    40    39    1
    17    35    36    2
    18     2     1    1
    19     2     3    1
    20    53    52    1
    21    17    16    1
    22     3     4    2
    23    16    15    1
    24    31    30    1
    25    31    32    1
    26    52    54    1
    27    52    49    1
    28    30    27    1
    29    32    26    1
    30    48    49    1
    31    49    50    1
    32    15    14    1
    33    14    13    1
    34    13    10    1
    35    96    95    2
    36    98    97    1
    37    10     9    1
    38    10    11    1
    39    27    26    1
    40    27    28    1
    41    95    94    1
    42    97    94    1
    43    97    99    1
    44    50    51    2
    45    28    29    2
    46    25    23    1
    47    11    12    2
    48    94    93    1
    49    23    24    1
    50    23    22    1
    51    59    56    1
    52    55    56    1
    53    56    57    1
    54    18    19    1
    55    19    22    1
    56    19    20    1
    57    20    21    2
    58    57    60   am
    59    57    58    2
    60    60    61    1
    61    89    88    2
    62    92    90    1
    63    63    62    2
    64    88    87    1
    65    61    62    1
    66    61    64    1
    67    62    65   am
    68    90    91    1
    69    90    87    1
    70    87    86    1
    71    71    70    1
    72    86    81   am
    73    65    66    1
    74    66    69    1
    75    66    67    1
    76    84    83    1
    77    69    70    1
    78    70    72    1
    79    81    80    1
    80    81    82    2
    81    67    68    2
    82    80    83    1
    83    80    79    1
    84    83    85    1
    85    76    75    2
    86    75    79   am
    87    75    74    1
    88    77    74    1
    89    77    78    1
    90    74    73    1
