@<TRIPOS>MOLECULE
tmp/3fccA00.pdb
 191 183 0 0 0
SMALL
GASTEIGER

@<TRIPOS>ATOM
      1  N         22.4060   -7.3570    2.2560 N.3   152  THR152     -0.1203
      2  CA        22.2850   -6.4300    3.3750 C.3   152  THR152      0.1994
      3  C         21.7840   -5.1020    2.7850 C.2   152  THR152      0.2618
      4  O         22.0390   -4.8100    1.6100 O.2   152  THR152     -0.2717
      5  CB        23.6500   -6.1980    4.0480 C.3   152  THR152      0.1784
      6  OG1       23.4650   -5.5420    5.3080 O.3   152  THR152     -0.2211
      7  CG2       24.5170   -5.3220    3.1770 C.3   152  THR152      0.0376
      8  N         21.0800   -4.3070    3.5910 N.am  153  SER153     -0.1951
      9  CA        20.5280   -3.0270    3.1400 C.3   153  SER153      0.1924
     10  C         21.4560   -2.2300    2.2150 C.2   153  SER153      0.2314
     11  O         21.0770   -1.9050    1.0860 O.2   153  SER153     -0.2863
     12  CB        20.1290   -2.1710    4.3470 C.3   153  SER153      0.2116
     13  OG        21.2180   -2.0000    5.2380 O.3   153  SER153     -0.2180
     14  N         25.7290   -5.7830    0.6440 N.3   156  LYS156     -0.1245
     15  CA        26.5930   -6.9430    0.8000 C.3   156  LYS156      0.1561
     16  C         25.7790   -8.2300    0.7140 C.2   156  LYS156      0.2260
     17  O         24.7160   -8.3430    1.3230 O.2   156  LYS156     -0.2867
     18  CB        27.3060   -6.8680    2.1520 C.3   156  LYS156      0.0271
     19  CG        28.0320   -5.5420    2.3890 C.3   156  LYS156      0.0035
     20  CD        28.4510   -5.3640    3.8520 C.3   156  LYS156      0.0206
     21  CE        27.2360   -5.2280    4.7710 C.3   156  LYS156      0.1093
     22  NZ        27.5930   -5.0440    6.2100 N.3   156  LYS156     -0.1314
     23  N         14.4370  -10.9750    2.9800 N.3   192  PHE192     -0.1227
     24  CA        14.6830  -10.7670    4.4060 C.3   192  PHE192      0.1736
     25  C         14.7940  -12.2020    4.9350 C.2   192  PHE192      0.2595
     26  O         13.8660  -12.9930    4.7800 O.2   192  PHE192     -0.2718
     27  CB        13.4860  -10.0330    5.0430 C.3   192  PHE192      0.0547
     28  CG        13.5970   -9.8270    6.5370 C.ar  192  PHE192     -0.0202
     29  CD1       14.8280   -9.6080    7.1470 C.ar  192  PHE192     -0.0042
     30  CD2       12.4550   -9.7950    7.3280 C.ar  192  PHE192     -0.0042
     31  CE1       14.9150   -9.3560    8.5260 C.ar  192  PHE192     -0.0003
     32  CE2       12.5360   -9.5430    8.7020 C.ar  192  PHE192     -0.0003
     33  CZ        13.7600   -9.3260    9.2960 C.ar  192  PHE192     -0.0000
     34  N         15.9140  -12.5510    5.5550 N.am  193  ASP193     -0.1974
     35  CA        16.0800  -13.9190    6.0220 C.3   193  ASP193      0.1709
     36  C         15.1000  -14.4290    7.0780 C.2   193  ASP193      0.2293
     37  O         15.0220  -15.6290    7.3080 O.2   193  ASP193     -0.2864
     38  CB        17.5190  -14.1560    6.4870 C.3   193  ASP193      0.1436
     39  CG        17.8140  -13.5460    7.8470 C.2   193  ASP193      0.3671
     40  OD1       18.9060  -13.8270    8.3710 O.co2 193  ASP193     -0.2456
     41  OD2       16.9790  -12.7950    8.3910 O.co2 193  ASP193     -0.2456
     42  N         11.7340  -12.4680   15.6480 N.3   265  CYS265     -0.1221
     43  CA        13.1430  -12.1940   15.4310 C.3   265  CYS265      0.1808
     44  C         13.2620  -10.8490   14.7260 C.2   265  CYS265      0.2602
     45  O         12.2450  -10.2230   14.4200 O.2   265  CYS265     -0.2717
     46  CB        13.7590  -13.2950   14.5670 C.3   265  CYS265      0.0970
     47  SG        15.5570  -13.2410   14.4750 S.3   265  CYS265     -0.0800
     48  N         14.4950  -10.3970   14.4940 N.am  266  GLY266     -0.1942
     49  CA        14.7060   -9.1440   13.7860 C.3   266  GLY266      0.2014
     50  C         14.7790   -7.8350   14.5540 C.2   266  GLY266      0.2639
     51  O         15.4220   -6.8970   14.0950 O.2   266  GLY266     -0.2714
     52  N         14.0990   -7.7420   15.6890 N.am  267  GLU267     -0.1963
     53  CA        14.1310   -6.5250   16.4950 C.3   267  GLU267      0.1733
     54  C         13.7890   -6.8460   17.9370 C.2   267  GLU267      0.2616
     55  O         13.5470   -8.0030   18.2940 O.2   267  GLU267     -0.2715
     56  CB        13.1350   -5.4640   15.9980 C.3   267  GLU267      0.0429
     57  CG        12.3820   -5.8030   14.7340 C.3   267  GLU267      0.1163
     58  CD        11.2260   -4.8470   14.4800 C.2   267  GLU267      0.3649
     59  OE1       11.4750   -3.6340   14.2980 O.co2 267  GLU267     -0.2457
     60  OE2       10.0650   -5.3130   14.4690 O.co2 267  GLU267     -0.2457
     61  N         13.7650   -5.8070   18.7630 N.am  268  VAL268     -0.1963
     62  CA        13.4560   -5.9680   20.1710 C.3   268  VAL268      0.1727
     63  C         12.0060   -6.3850   20.3660 C.2   268  VAL268      0.2616
     64  O         11.0880   -5.8160   19.7750 O.2   268  VAL268     -0.2715
     65  CB        13.7250   -4.6670   20.9500 C.3   268  VAL268      0.0290
     66  CG1       13.3110   -4.8420   22.4140 C.3   268  VAL268      0.0023
     67  CG2       15.2080   -4.3020   20.8450 C.3   268  VAL268      0.0023
     68  N         11.8120   -7.4060   21.1840 N.am  269  LEU269     -0.1977
     69  CA        10.4760   -7.8910   21.4570 C.3   269  LEU269      0.1596
     70  C         10.0120   -7.2790   22.7670 C.2   269  LEU269      0.2287
     71  O         10.4710   -7.6610   23.8370 O.2   269  LEU269     -0.2864
     72  CB        10.4760   -9.4150   21.5550 C.3   269  LEU269      0.0297
     73  CG         9.1540  -10.0790   21.9290 C.3   269  LEU269      0.0022
     74  CD1        8.0510   -9.6520   20.9510 C.3   269  LEU269      0.0001
     75  CD2        9.3540  -11.6010   21.9360 C.3   269  LEU269      0.0001
     76  N         11.3440  -15.9360   21.5440 N.3   288  ASN288     -0.1225
     77  CA        12.0630  -14.7800   21.0660 C.3   288  ASN288      0.1785
     78  C         13.3970  -15.3430   20.5580 C.2   288  ASN288      0.2598
     79  O         14.0150  -16.1490   21.2330 O.2   288  ASN288     -0.2718
     80  CB        12.2780  -13.7700   22.1950 C.3   288  ASN288      0.1169
     81  CG        12.9440  -12.5030   21.7080 C.2   288  ASN288      0.2627
     82  OD1       12.7440  -12.0880   20.5640 O.2   288  ASN288     -0.2716
     83  ND2       13.7350  -11.8790   22.5700 N.am  288  ASN288     -0.0877
     84  N         13.8260  -14.9580   19.3620 N.am  289  THR289     -0.1939
     85  CA        15.0910  -15.4700   18.8240 C.3   289  THR289      0.2028
     86  C         15.9500  -14.3220   18.3500 C.2   289  THR289      0.2642
     87  O         15.4390  -13.2920   17.9340 O.2   289  THR289     -0.2714
     88  CB        14.8750  -16.4150   17.6240 C.3   289  THR289      0.1808
     89  OG1       14.2990  -15.6770   16.5390 O.3   289  THR289     -0.2208
     90  CG2       13.9690  -17.5660   18.0060 C.3   289  THR289      0.0379
     91  N         17.2580  -14.4980   18.3950 N.am  290  TYR290     -0.1959
     92  CA        18.1540  -13.4260   17.9820 C.3   290  TYR290      0.1771
     93  C         19.2340  -13.8870   17.0190 C.2   290  TYR290      0.2620
     94  O         19.6920  -15.0280   17.0760 O.2   290  TYR290     -0.2715
     95  CB        18.8430  -12.8030   19.2060 C.3   290  TYR290      0.0574
     96  CG        20.1450  -12.1150   18.8580 C.ar  290  TYR290     -0.0198
     97  CD1       20.1550  -10.8180   18.3590 C.ar  290  TYR290     -0.0009
     98  CD2       21.3630  -12.7880   18.9640 C.ar  290  TYR290     -0.0009
     99  CE1       21.3470  -10.2020   17.9700 C.ar  290  TYR290      0.0417
    100  CE2       22.5590  -12.1880   18.5770 C.ar  290  TYR290      0.0417
    101  CZ        22.5440  -10.8920   18.0800 C.ar  290  TYR290      0.1957
    102  OH        23.7160  -10.2830   17.6790 O.3   290  TYR290     -0.2866
    103  N         19.6510  -12.9710   16.1500 N.am  291  GLY291     -0.1940
    104  CA        20.7000  -13.2780   15.2070 C.3   291  GLY291      0.1998
    105  C         20.7390  -12.3500   14.0140 C.2   291  GLY291      0.2481
    106  O         19.7210  -11.7720   13.6310 O.2   291  GLY291     -0.2729
    107  N         21.9270  -12.1630   13.4260 N.am  292  PRO292     -0.2715
    108  CA        22.1110  -11.3030   12.2570 C.3   292  PRO292      0.1536
    109  C         21.9450  -12.2070   11.0430 C.2   292  PRO292      0.2599
    110  O         21.9080  -13.4210   11.1930 O.2   292  PRO292     -0.2715
    111  CB        23.5460  -10.8310   12.4160 C.3   292  PRO292      0.0310
    112  CG        24.2070  -12.0650   12.9540 C.3   292  PRO292      0.0237
    113  CD        23.2300  -12.5170   14.0180 C.3   292  PRO292      0.0939
    114  N         21.8400  -11.6340    9.8530 N.am  293  THR293     -0.1937
    115  CA        21.7050  -12.4500    8.6540 C.3   293  THR293      0.2028
    116  C         23.0070  -13.2310    8.3560 C.2   293  THR293      0.2642
    117  O         22.9790  -14.3200    7.7700 O.2   293  THR293     -0.2714
    118  CB        21.3510  -11.5730    7.4460 C.3   293  THR293      0.1808
    119  OG1       20.0840  -10.9400    7.6760 O.3   293  THR293     -0.2208
    120  CG2       21.2830  -12.4160    6.1790 C.3   293  THR293      0.0379
    121  N         24.1420  -12.6740    8.7760 N.am  294  GLU294     -0.1976
    122  CA        25.4460  -13.3000    8.5580 C.3   294  GLU294      0.1602
    123  C         25.5910  -14.5980    9.3580 C.2   294  GLU294      0.2287
    124  O         26.5530  -15.3510    9.1660 O.2   294  GLU294     -0.2864
    125  CB        26.5830  -12.3270    8.9310 C.3   294  GLU294      0.0415
    126  CG        26.7060  -11.0870    8.0290 C.3   294  GLU294      0.1163
    127  CD        25.7990   -9.9290    8.4440 C.2   294  GLU294      0.3649
    128  OE1       24.8070  -10.1740    9.1640 O.co2 294  GLU294     -0.2457
    129  OE2       26.0720   -8.7720    8.0410 O.co2 294  GLU294     -0.2457
    130  N         17.3280  -12.4170   24.8260 N.3   317  VAL317     -0.1245
    131  CA        17.2210  -12.9580   23.4770 C.3   317  VAL317      0.1561
    132  C         17.3840  -14.4820   23.3680 C.2   317  VAL317      0.2260
    133  O         17.2300  -15.0400   22.2820 O.2   317  VAL317     -0.2867
    134  CB        18.2030  -12.2730   22.5230 C.3   317  VAL317      0.0252
    135  CG1       17.7500  -10.8460   22.2770 C.3   317  VAL317      0.0019
    136  CG2       19.6020  -12.3140   23.0930 C.3   317  VAL317      0.0019
    137  N         28.8850   -9.1000   15.5050 N.3   377  THR377     -0.1218
    138  CA        27.5280   -8.6290   15.2120 C.3   377  THR377      0.1862
    139  C         27.3010   -7.1280   15.1580 C.2   377  THR377      0.2287
    140  O         26.3450   -6.6650   14.5240 O.2   377  THR377     -0.2866
    141  CB        26.5060   -9.1660   16.2360 C.3   377  THR377      0.1770
    142  OG1       26.8200   -8.6420   17.5350 O.3   377  THR377     -0.2211
    143  CG2       26.5190  -10.6850   16.2700 C.3   377  THR377      0.0375
    144  N         26.5170   -5.7080   17.6260 N.3   379  ASP379     -0.1239
    145  CA        25.5160   -5.5620   18.6780 C.3   379  ASP379      0.1674
    146  C         26.1520   -5.6350   20.0650 C.2   379  ASP379      0.2266
    147  O         27.1050   -6.3820   20.2910 O.2   379  ASP379     -0.2867
    148  CB        24.4420   -6.6480   18.5560 C.3   379  ASP379      0.1410
    149  CG        23.7350   -6.6140   17.2190 C.2   379  ASP379      0.3668
    150  OD1       23.5510   -7.6910   16.6200 O.co2 379  ASP379     -0.2456
    151  OD2       23.3650   -5.5090   16.7690 O.co2 379  ASP379     -0.2456
    152  N         20.2930   -8.6530   24.9000 N.3   390  TYR390     -0.1241
    153  CA        20.6020   -7.6710   23.8670 C.3   390  TYR390      0.1605
    154  C         20.4380   -6.2540   24.4150 C.2   390  TYR390      0.2264
    155  O         19.3830   -5.9040   24.9540 O.2   390  TYR390     -0.2867
    156  CB        19.6570   -7.8580   22.6940 C.3   390  TYR390      0.0534
    157  CG        19.8170   -6.8480   21.5870 C.ar  390  TYR390     -0.0201
    158  CD1       20.7830   -7.0240   20.5850 C.ar  390  TYR390     -0.0009
    159  CD2       18.9470   -5.7570   21.4900 C.ar  390  TYR390     -0.0009
    160  CE1       20.8640   -6.1560   19.5110 C.ar  390  TYR390      0.0417
    161  CE2       19.0230   -4.8760   20.4170 C.ar  390  TYR390      0.0417
    162  CZ        19.9780   -5.0880   19.4290 C.ar  390  TYR390      0.1957
    163  OH        20.0120   -4.2500   18.3420 O.3   390  TYR390     -0.2866
    164  N         22.4280   -1.9300   19.1710 N.3   393  ARG393     -0.1245
    165  CA        23.4680   -1.8970   18.1520 C.3   393  ARG393      0.1563
    166  C         24.5040   -0.8920   18.6250 C.2   393  ARG393      0.2260
    167  O         24.1410    0.1550   19.1730 O.2   393  ARG393     -0.2867
    168  CB        22.8940   -1.4270   16.8190 C.3   393  ARG393      0.0307
    169  CG        21.7640   -2.2800   16.2830 C.3   393  ARG393      0.0489
    170  CD        21.0120   -1.5380   15.2040 C.3   393  ARG393      0.2205
    171  NE        19.9330   -2.3440   14.6540 N.pl3 393  ARG393     -0.0865
    172  CZ        20.0480   -3.1460   13.5990 C.cat 393  ARG393      0.5346
    173  NH1       21.2060   -3.2620   12.9490 N.pl3 393  ARG393      0.1354
    174  NH2       18.9910   -3.8430   13.1940 N.pl3 393  ARG393      0.1354
    175  N         10.1730   -4.9170    5.2890 N.3   486  ASN486     -0.1240
    176  CA        10.5140   -6.1260    6.0290 C.3   486  ASN486      0.1653
    177  C          9.7070   -6.2720    7.3180 C.2   486  ASN486      0.2266
    178  O          9.7990   -7.2940    7.9890 O.2   486  ASN486     -0.2867
    179  CB        12.0020   -6.1510    6.3840 C.3   486  ASN486      0.1155
    180  CG        12.8890   -6.4050    5.1810 C.2   486  ASN486      0.2627
    181  OD1       12.4280   -6.8660    4.1410 O.2   486  ASN486     -0.2716
    182  ND2       14.1800   -6.1210    5.3270 N.am  486  ASN486     -0.0877
    183  N          9.9320   -4.0210    9.8970 N.3   488  LYS488     -0.1245
    184  CA        10.6670   -3.4000   10.9960 C.3   488  LYS488      0.1561
    185  C         10.3650   -1.8980   11.1060 C.2   488  LYS488      0.2260
    186  O          9.8320   -1.2900   10.1670 O.2   488  LYS488     -0.2867
    187  CB        12.1580   -3.6080   10.7950 C.3   488  LYS488      0.0271
    188  CG        12.5590   -5.0630   10.7170 C.3   488  LYS488      0.0035
    189  CD        13.6050   -5.2740    9.6270 C.3   488  LYS488      0.0206
    190  CE        14.8810   -4.4990    9.9020 C.3   488  LYS488      0.1093
    191  NZ        15.5710   -5.0370   11.1010 N.3   488  LYS488     -0.1314
@<TRIPOS>BOND
     1    14    15    1
     2    16    15    1
     3    16    17    2
     4    15    18    1
     5    11    10    2
     6     4     3    2
     7    18    19    1
     8    10     9    1
     9     1     2    1
    10    19    20    1
    11     3     2    1
    12     3     8   am
    13    23    24    1
    14     9     8    1
    15     9    12    1
    16     7     5    1
    17     2     5    1
    18    20    21    1
    19     5     6    1
    20   181   180    2
    21    12    13    1
    22    24    25    1
    23    24    27    1
    24    21    22    1
    25    26    25    2
    26    25    34   am
    27    27    28    1
    28   180   182   am
    29   180   179    1
    30   175   176    1
    31    34    35    1
    32    35    38    1
    33    35    36    1
    34   176   179    1
    35   176   177    1
    36   120   118    1
    37    38    39    1
    38    28    29   ar
    39    28    30   ar
    40    36    37    2
    41    29    31   ar
    42   177   178    2
    43    30    32   ar
    44   118   119    1
    45   118   115    1
    46   117   116    2
    47    39    40   ar
    48    39    41   ar
    49   126   127    1
    50   126   125    1
    51   129   127   ar
    52   116   115    1
    53   116   121   am
    54   127   128   ar
    55    31    33   ar
    56   122   121    1
    57   122   125    1
    58   122   123    1
    59   115   114    1
    60    32    33   ar
    61   124   123    2
    62   189   190    1
    63   189   188    1
    64   114   109   am
    65   183   184    1
    66   190   191    1
    67   186   185    2
    68   188   187    1
    69   187   184    1
    70   184   185    1
    71   109   110    2
    72   109   108    1
    73   108   111    1
    74   108   107    1
    75   111   112    1
    76   173   172    1
    77   112   113    1
    78   174   172    1
    79   107   105   am
    80   107   113    1
    81   172   171    2
    82   106   105    2
    83    49    48    1
    84    49    50    1
    85   105   104    1
    86    51    50    2
    87    59    58   ar
    88    45    44    2
    89    60    58   ar
    90    47    46    1
    91    58    57    1
    92    48    44   am
    93   140   139    2
    94    50    52   am
    95    46    43    1
    96   171   170    1
    97    44    43    1
    98    57    56    1
    99   139   138    1
   100   170   169    1
   101   104   103    1
   102   138   137    1
   103   138   141    1
   104    43    42    1
   105    52    53    1
   106    56    53    1
   107   103    93   am
   108   141   143    1
   109   141   142    1
   110   169   168    1
   111    53    54    1
   112    89    88    1
   113   150   149   ar
   114   151   149   ar
   115   168   165    1
   116    93    94    2
   117    93    92    1
   118   149   148    1
   119    88    90    1
   120    88    85    1
   121   144   145    1
   122   102   101    1
   123    87    86    2
   124    54    55    2
   125    54    61   am
   126    99   101   ar
   127    99    97   ar
   128    92    91    1
   129    92    95    1
   130   101   100   ar
   131   165   166    1
   132   165   164    1
   133   163   162    1
   134    86    91   am
   135    86    85    1
   136    97    96   ar
   137   148   145    1
   138   100    98   ar
   139   166   167    2
   140   145   146    1
   141    61    62    1
   142    85    84    1
   143    96    98   ar
   144    96    95    1
   145    84    78   am
   146   162   160   ar
   147   162   161   ar
   148   160   158   ar
   149    64    63    2
   150   146   147    2
   151    62    63    1
   152    62    65    1
   153    63    68   am
   154   161   159   ar
   155    78    77    1
   156    78    79    2
   157    82    81    2
   158   158   157   ar
   159    67    65    1
   160    65    66    1
   161    74    73    1
   162    77    76    1
   163    77    80    1
   164    68    69    1
   165    69    72    1
   166    69    70    1
   167   159   157   ar
   168    72    73    1
   169   157   156    1
   170    81    80    1
   171    81    83   am
   172    73    75    1
   173   135   134    1
   174   133   132    2
   175   134   136    1
   176   134   131    1
   177   156   153    1
   178    70    71    2
   179   132   131    1
   180   131   130    1
   181   153   154    1
   182   153   152    1
   183   154   155    2
