@<TRIPOS>MOLECULE
tmp/3fcfA00.pdb
 170 170 0 0 0
SMALL
GASTEIGER

@<TRIPOS>ATOM
      1  N        -15.3720   -5.7440    7.1340 N.3    62  GLY62      -0.1210
      2  CA       -14.8170   -4.7930    6.1750 C.3    62  GLY62       0.1956
      3  C        -13.3000   -4.7570    6.2530 C.2    62  GLY62       0.2612
      4  O        -12.6830   -5.5410    6.9860 O.2    62  GLY62      -0.2717
      5  N        -12.7010   -3.8400    5.5010 N.am   63  GLN63      -0.1965
      6  CA       -11.2470   -3.7370    5.4110 C.3    63  GLN63       0.1733
      7  C        -10.7560   -2.4490    6.0710 C.2    63  GLN63       0.2616
      8  O        -10.3540   -2.4590    7.2270 O.2    63  GLN63      -0.2715
      9  CB       -10.8080   -3.8060    3.9410 C.3    63  GLN63       0.0408
     10  CG        -9.3120   -4.0300    3.7140 C.3    63  GLN63       0.0908
     11  CD        -8.9580   -4.2200    2.2430 C.2    63  GLN63       0.2608
     12  OE1       -9.8330   -4.4360    1.3970 O.2    63  GLN63      -0.2717
     13  NE2       -7.6660   -4.1470    1.9340 N.am   63  GLN63      -0.0878
     14  N        -10.8290   -1.3470    5.3280 N.am   64  ASP64      -0.1958
     15  CA       -10.2800   -0.0540    5.7280 C.3    64  ASP64       0.1825
     16  C        -11.4430    0.8800    6.0680 C.2    64  ASP64       0.2464
     17  O        -12.5110    0.7870    5.4470 O.2    64  ASP64      -0.2730
     18  CB        -9.4800    0.5310    4.5510 C.3    64  ASP64       0.1450
     19  CG        -8.2310    1.2880    4.9860 C.2    64  ASP64       0.3671
     20  OD1       -7.4810    0.7780    5.8420 O.co2  64  ASP64      -0.2456
     21  OD2       -7.9760    2.3830    4.4350 O.co2  64  ASP64      -0.2456
     22  N        -11.2520    1.7900    7.0440 N.am   65  PRO65      -0.2715
     23  CA       -12.2940    2.7950    7.2570 C.3    65  PRO65       0.1536
     24  C        -12.2890    3.8140    6.1200 C.2    65  PRO65       0.2598
     25  O        -11.2780    3.9520    5.4200 O.2    65  PRO65      -0.2715
     26  CB       -11.8730    3.4750    8.5700 C.3    65  PRO65       0.0310
     27  CG       -10.7760    2.6200    9.1440 C.3    65  PRO65       0.0237
     28  CD       -10.1270    1.9680    7.9770 C.3    65  PRO65       0.0939
     29  N        -13.4090    4.5120    5.9340 N.am   66  TYR66      -0.1974
     30  CA       -13.4540    5.6420    5.0050 C.3    66  TYR66       0.1639
     31  C        -12.3740    6.6460    5.3890 C.2    66  TYR66       0.2290
     32  O        -12.1430    6.8910    6.5810 O.2    66  TYR66      -0.2864
     33  CB       -14.8030    6.3540    5.0610 C.3    66  TYR66       0.0560
     34  CG       -15.9970    5.5770    4.5590 C.ar   66  TYR66      -0.0198
     35  CD1      -16.0920    5.1920    3.2220 C.ar   66  TYR66      -0.0009
     36  CD2      -17.0610    5.2740    5.4140 C.ar   66  TYR66      -0.0009
     37  CE1      -17.1960    4.4920    2.7520 C.ar   66  TYR66       0.0417
     38  CE2      -18.1810    4.5750    4.9500 C.ar   66  TYR66       0.0417
     39  CZ       -18.2380    4.1900    3.6170 C.ar   66  TYR66       0.1957
     40  OH       -19.3310    3.5040    3.1380 O.3    66  TYR66      -0.2866
     41  N        -18.0020    2.1230   12.5590 N.3    75  LEU75      -0.1231
     42  CA       -18.7960    1.0140   12.0260 C.3    75  LEU75       0.1693
     43  C        -18.5360    0.9410   10.5280 C.2    75  LEU75       0.2592
     44  O        -18.6160    1.9590    9.8390 O.2    75  LEU75      -0.2718
     45  CB       -20.2970    1.2390   12.2740 C.3    75  LEU75       0.0284
     46  CG       -20.8090    1.5470   13.6900 C.3    75  LEU75       0.0019
     47  CD1      -22.2540    2.0350   13.6300 C.3    75  LEU75       0.0001
     48  CD2      -20.6940    0.3290   14.5940 C.3    75  LEU75       0.0001
     49  N        -18.2340   -0.2540   10.0230 N.am   76  CYS76      -0.1956
     50  CA       -17.9190   -0.4220    8.6020 C.3    76  CYS76       0.1843
     51  C        -19.0790   -0.0040    7.6970 C.2    76  CYS76       0.2625
     52  O        -20.2440   -0.3030    7.9940 O.2    76  CYS76      -0.2714
     53  CB       -17.4570   -1.8540    8.2850 C.3    76  CYS76       0.0997
     54  SG       -18.6920   -3.1630    8.4520 S.3    76  CYS76      -0.0797
     55  N        -18.7410    0.7070    6.6160 N.am   77  PHE77      -0.1974
     56  CA       -19.7040    1.1800    5.5980 C.3    77  PHE77       0.1639
     57  C        -20.5980    2.3440    6.0260 C.2    77  PHE77       0.2290
     58  O        -21.2060    3.0010    5.1760 O.2    77  PHE77      -0.2864
     59  CB       -20.5670    0.0280    5.0540 C.3    77  PHE77       0.0560
     60  CG       -19.7790   -1.0400    4.3620 C.ar   77  PHE77      -0.0200
     61  CD1      -19.5760   -2.2720    4.9690 C.ar   77  PHE77      -0.0042
     62  CD2      -19.2290   -0.8090    3.1020 C.ar   77  PHE77      -0.0042
     63  CE1      -18.8360   -3.2660    4.3300 C.ar   77  PHE77      -0.0003
     64  CE2      -18.4920   -1.7940    2.4590 C.ar   77  PHE77      -0.0003
     65  CZ       -18.2900   -3.0210    3.0730 C.ar   77  PHE77      -0.0000
     66  N        -21.7050    6.9430    0.7940 N.3    86  PRO86      -0.2116
     67  CA       -20.7610    6.6720   -0.2920 C.3    86  PRO86       0.1372
     68  C        -21.2910    5.6140   -1.2700 C.2    86  PRO86       0.2244
     69  O        -22.2610    4.9180   -0.9600 O.2    86  PRO86      -0.2868
     70  CB       -19.5150    6.1660    0.4510 C.3    86  PRO86       0.0268
     71  CG       -19.6500    6.7590    1.8260 C.3    86  PRO86       0.0207
     72  CD       -21.1130    6.6230    2.1050 C.3    86  PRO86       0.0892
     73  N        -20.4450    2.6160   -2.1600 N.3    88  SER88      -0.1217
     74  CA       -20.5690    1.2670   -1.5960 C.3    88  SER88       0.1889
     75  C        -21.8550    1.1150   -0.7940 C.2    88  SER88       0.2288
     76  O        -22.5350    0.0910   -0.8870 O.2    88  SER88      -0.2866
     77  CB       -19.3790    0.9210   -0.6990 C.3    88  SER88       0.2089
     78  OG       -18.2070    0.7030   -1.4600 O.3    88  SER88      -0.2183
     79  N        -14.5120   -3.4040   10.7480 N.3   123  ASN123     -0.1240
     80  CA       -13.3940   -3.2600    9.8200 C.3   123  ASN123      0.1653
     81  C        -12.1790   -3.9950   10.3740 C.2   123  ASN123      0.2266
     82  O        -11.9880   -4.0410   11.5870 O.2   123  ASN123     -0.2867
     83  CB       -13.0330   -1.7840    9.6200 C.3   123  ASN123      0.1155
     84  CG       -13.9120   -1.0870    8.6020 C.2   123  ASN123      0.2627
     85  OD1      -14.3480   -1.6810    7.6120 O.2   123  ASN123     -0.2716
     86  ND2      -14.1560    0.1950    8.8290 N.am  123  ASN123     -0.0877
     87  N        -17.9800  -10.0040    2.1870 N.3   164  TRP164     -0.1227
     88  CA       -18.1110   -9.3350    0.8990 C.3   164  TRP164      0.1737
     89  C        -16.7380   -8.9350    0.3690 C.2   164  TRP164      0.2596
     90  O        -16.0760   -8.0750    0.9410 O.2   164  TRP164     -0.2718
     91  CB       -19.0230   -8.1070    1.0260 C.3   164  TRP164      0.0564
     92  CG       -20.4000   -8.3990    1.5790 C.ar  164  TRP164      0.0003
     93  CD1      -21.0660   -9.5940    1.5500 C.ar  164  TRP164      0.0946
     94  CD2      -21.2850   -7.4660    2.2190 C.ar  164  TRP164      0.0152
     95  NE1      -22.3020   -9.4640    2.1370 N.ar  164  TRP164     -0.2442
     96  CE2      -22.4640   -8.1690    2.5520 C.ar  164  TRP164      0.0810
     97  CE3      -21.1940   -6.1050    2.5440 C.ar  164  TRP164      0.0012
     98  CZ2      -23.5430   -7.5590    3.1990 C.ar  164  TRP164      0.0191
     99  CZ3      -22.2700   -5.4980    3.1870 C.ar  164  TRP164      0.0001
    100  CH2      -23.4280   -6.2270    3.5060 C.ar  164  TRP164      0.0015
    101  N        -16.3170   -9.5780   -0.7200 N.am  165  GLY165     -0.1942
    102  CA       -14.9920   -9.3400   -1.2920 C.3   165  GLY165      0.2014
    103  C        -13.9460  -10.3140   -0.7720 C.2   165  GLY165      0.2640
    104  O        -14.1130  -10.9140    0.2950 O.2   165  GLY165     -0.2714
    105  N        -12.8540  -10.4570   -1.5190 N.am  166  SER166     -0.1935
    106  CA       -11.8250  -11.4530   -1.2090 C.3   166  SER166      0.2055
    107  C        -11.0960  -11.2040    0.1140 C.2   166  SER166      0.2643
    108  O        -10.6660  -12.1500    0.7660 O.2   166  SER166     -0.2714
    109  CB       -10.8230  -11.5850   -2.3620 C.3   166  SER166      0.2130
    110  OG       -10.1690  -10.3560   -2.6070 O.3   166  SER166     -0.2179
    111  N        -10.9720   -9.9390    0.5100 N.am  167  TYR167     -0.1973
    112  CA       -10.3090   -9.5950    1.7670 C.3   167  TYR167      0.1639
    113  C        -11.0960  -10.1000    2.9870 C.2   167  TYR167      0.2290
    114  O        -10.5230  -10.6930    3.9080 O.2   167  TYR167     -0.2864
    115  CB       -10.0730   -8.0810    1.8690 C.3   167  TYR167      0.0560
    116  CG        -9.3050   -7.6990    3.1100 C.ar  167  TYR167     -0.0198
    117  CD1       -7.9190   -7.5260    3.0700 C.ar  167  TYR167     -0.0009
    118  CD2       -9.9590   -7.5410    4.3380 C.ar  167  TYR167     -0.0009
    119  CE1       -7.2040   -7.1900    4.2180 C.ar  167  TYR167      0.0417
    120  CE2       -9.2550   -7.2110    5.4930 C.ar  167  TYR167      0.0417
    121  CZ        -7.8770   -7.0370    5.4280 C.ar  167  TYR167      0.1957
    122  OH        -7.1770   -6.7070    6.5700 O.3   167  TYR167     -0.2866
    123  N        -17.6160   -7.7120   -3.2800 N.3   187  HIS187     -0.1241
    124  CA       -17.6630   -6.4290   -2.5810 C.3   187  HIS187      0.1621
    125  C        -18.6900   -5.4730   -3.2190 C.2   187  HIS187      0.2264
    126  O        -18.8170   -5.4250   -4.4500 O.2   187  HIS187     -0.2867
    127  CB       -16.2650   -5.7970   -2.5700 C.3   187  HIS187      0.0745
    128  CG       -16.0970   -4.6930   -1.5720 C.ar  187  HIS187      0.0817
    129  ND1      -16.5140   -3.4010   -1.8100 N.ar  187  HIS187     -0.2268
    130  CD2      -15.5380   -4.6850   -0.3370 C.ar  187  HIS187      0.1154
    131  CE1      -16.2260   -2.6470   -0.7640 C.ar  187  HIS187      0.1986
    132  NE2      -15.6360   -3.4020    0.1440 N.ar  187  HIS187     -0.2212
    133  N        -18.6180   -2.3030   -3.6560 N.3   189  SER189     -0.1203
    134  CA       -18.0720   -1.1510   -4.3800 C.3   189  SER189      0.2005
    135  C        -18.4810   -1.2030   -5.8600 C.2   189  SER189      0.2461
    136  O        -18.6080   -2.2920   -6.4210 O.2   189  SER189     -0.2732
    137  CB       -16.5480   -1.0920   -4.2570 C.3   189  SER189      0.2103
    138  OG       -15.9400   -1.9860   -5.1670 O.3   189  SER189     -0.2182
    139  N        -18.7030   -0.0280   -6.4890 N.am  190  PRO190     -0.2717
    140  CA       -19.0840    0.0200   -7.9120 C.3   190  PRO190      0.1535
    141  C        -18.2420   -0.8820   -8.8310 C.2   190  PRO190      0.2598
    142  O        -18.7830   -1.4790   -9.7620 O.2   190  PRO190     -0.2715
    143  CB       -18.8820    1.4910   -8.2720 C.3   190  PRO190      0.0310
    144  CG       -19.1590    2.2110   -6.9880 C.3   190  PRO190      0.0237
    145  CD       -18.6320    1.3240   -5.8980 C.3   190  PRO190      0.0939
    146  N        -16.9440   -0.9940   -8.5550 N.am  191  LEU191     -0.1964
    147  CA       -16.0390   -1.7990   -9.3900 C.3   191  LEU191      0.1728
    148  C        -16.3000   -3.3150   -9.3450 C.2   191  LEU191      0.2616
    149  O        -15.9310   -4.0310  -10.2780 O.2   191  LEU191     -0.2715
    150  CB       -14.5690   -1.5000   -9.0520 C.3   191  LEU191      0.0311
    151  CG       -13.9620   -0.1400   -9.4310 C.3   191  LEU191      0.0022
    152  CD1      -12.5860    0.0190   -8.7910 C.3   191  LEU191      0.0001
    153  CD2      -13.8630    0.0640  -10.9450 C.3   191  LEU191      0.0001
    154  N        -16.9380   -3.7980   -8.2770 N.am  192  SER192     -0.1950
    155  CA       -17.1540   -5.2410   -8.0970 C.3   192  SER192      0.1924
    156  C        -18.6120   -5.6660   -7.8840 C.2   192  SER192      0.2314
    157  O        -18.9240   -6.8580   -7.9280 O.2   192  SER192     -0.2863
    158  CB       -16.3080   -5.7540   -6.9330 C.3   192  SER192      0.2116
    159  OG       -16.6130   -5.0360   -5.7540 O.3   192  SER192     -0.2180
    160  N        -20.3690   -8.2720  -10.0110 N.3   195  ARG195     -0.1245
    161  CA       -19.7180   -9.5740  -10.0680 C.3   195  ARG195      0.1563
    162  C        -20.2040  -10.4740   -8.9270 C.2   195  ARG195      0.2260
    163  O        -19.5060  -11.3980   -8.5070 O.2   195  ARG195     -0.2867
    164  CB       -18.2000   -9.3910  -10.0540 C.3   195  ARG195      0.0307
    165  CG       -17.7170   -8.5450  -11.2280 C.3   195  ARG195      0.0489
    166  CD       -16.5210   -7.6940  -10.8660 C.3   195  ARG195      0.2205
    167  NE       -15.2690   -8.3860  -11.1270 N.pl3 195  ARG195     -0.0865
    168  CZ       -14.0640   -7.8680  -10.9070 C.cat 195  ARG195      0.5346
    169  NH1      -12.9810   -8.5830  -11.1810 N.pl3 195  ARG195      0.1354
    170  NH2      -13.9410   -6.6370  -10.4160 N.pl3 195  ARG195      0.1354
@<TRIPOS>BOND
     1   165   166    1
     2   165   164    1
     3   169   168    1
     4   167   168    2
     5   167   166    1
     6   153   151    1
     7   168   170    1
     8   149   148    2
     9   161   164    1
    10   161   160    1
    11   161   162    1
    12   142   141    2
    13   151   150    1
    14   151   152    1
    15   147   148    1
    16   147   150    1
    17   147   146    1
    18   148   154   am
    19   162   163    2
    20   141   146   am
    21   141   140    1
    22   154   155    1
    23   143   140    1
    24   143   144    1
    25   155   156    1
    26   155   158    1
    27   157   156    2
    28   140   139    1
    29   144   145    1
    30   158   159    1
    31   139   145    1
    32   139   135   am
    33   136   135    2
    34   135   134    1
    35   138   137    1
    36   126   125    2
    37   134   137    1
    38   134   133    1
    39   123   124    1
    40   125   124    1
    41   110   109    1
    42   124   127    1
    43   127   128    1
    44   109   106    1
    45    73    74    1
    46   129   128   ar
    47   129   131   ar
    48    74    75    1
    49    74    77    1
    50   128   130   ar
    51   105   106    1
    52   105   103   am
    53    78    77    1
    54   102   103    1
    55   102   101    1
    56    68    69    2
    57    68    67    1
    58   106   107    1
    59    76    75    2
    60   103   104    2
    61   131   132   ar
    62   101    89   am
    63   130   132   ar
    64    67    70    1
    65    67    66    1
    66   107   111   am
    67   107   108    2
    68    89    88    1
    69    89    90    2
    70    70    71    1
    71   111   112    1
    72    66    72    1
    73    88    91    1
    74    88    87    1
    75    91    92    1
    76    12    11    2
    77    93    92   ar
    78    93    95   ar
    79    92    94   ar
    80   112   115    1
    81   112   113    1
    82    71    72    1
    83   115   116    1
    84    13    11   am
    85    95    96   ar
    86    94    97   ar
    87    94    96   ar
    88    11    10    1
    89    64    65   ar
    90    64    62   ar
    91    97    99   ar
    92    96    98   ar
    93    37    35   ar
    94    37    39   ar
    95   113   114    2
    96   117   116   ar
    97   117   119   ar
    98    65    63   ar
    99    62    60   ar
   100   116   118   ar
   101    40    39    1
   102    99   100   ar
   103    98   100   ar
   104    35    34   ar
   105    39    38   ar
   106    10     9    1
   107     9     6    1
   108   119   121   ar
   109    63    61   ar
   110   118   120   ar
   111    60    61   ar
   112    60    59    1
   113    21    19   ar
   114    18    19    1
   115    18    15    1
   116    34    33    1
   117    34    36   ar
   118    38    36   ar
   119    19    20   ar
   120    30    33    1
   121    30    31    1
   122    30    29    1
   123    59    56    1
   124    58    57    2
   125    14    15    1
   126    14     7   am
   127    31    32    2
   128     6     5    1
   129     6     7    1
   130    25    24    2
   131   121   120   ar
   132   121   122    1
   133    17    16    2
   134     5     3   am
   135    56    57    1
   136    56    55    1
   137    15    16    1
   138    29    24   am
   139    16    22   am
   140     7     8    2
   141    24    23    1
   142     2     3    1
   143     2     1    1
   144     3     4    2
   145    55    51   am
   146    22    23    1
   147    22    28    1
   148    23    26    1
   149    85    84    2
   150    51    52    2
   151    51    50    1
   152    28    27    1
   153    53    54    1
   154    53    50    1
   155    26    27    1
   156    84    86   am
   157    84    83    1
   158    50    49    1
   159    83    80    1
   160    80    81    1
   161    80    79    1
   162    44    43    2
   163    49    43   am
   164    81    82    2
   165    43    42    1
   166    42    45    1
   167    42    41    1
   168    45    46    1
   169    47    46    1
   170    46    48    1
