@<TRIPOS>MOLECULE
tmp/3fciA00.pdb
 160 160 0 0 0
SMALL
GASTEIGER

@<TRIPOS>ATOM
      1  N        -15.6340   -5.6270    6.6820 N.3    62  GLY62      -0.1210
      2  CA       -15.0580   -4.7110    5.6990 C.3    62  GLY62       0.1956
      3  C        -13.5420   -4.7190    5.7920 C.2    62  GLY62       0.2612
      4  O        -12.9560   -5.5200    6.5420 O.2    62  GLY62      -0.2717
      5  N        -12.9030   -3.8230    5.0470 N.am   63  GLN63      -0.1965
      6  CA       -11.4450   -3.7780    4.9930 C.3    63  GLN63       0.1733
      7  C        -10.8310   -2.4920    5.5580 C.2    63  GLN63       0.2616
      8  O        -10.1520   -2.5380    6.5800 O.2    63  GLN63      -0.2715
      9  CB       -10.9370   -4.0720    3.5700 C.3    63  GLN63       0.0408
     10  CG        -9.4320   -3.9020    3.3930 C.3    63  GLN63       0.0908
     11  CD        -8.6110   -4.7860    4.3250 C.2    63  GLN63       0.2608
     12  OE1       -7.5110   -4.4090    4.7310 O.2    63  GLN63      -0.2717
     13  NE2       -9.1400   -5.9540    4.6750 N.am   63  GLN63      -0.0878
     14  N        -11.0680   -1.3600    4.8930 N.am   64  ASP64      -0.1958
     15  CA       -10.4380   -0.0850    5.2630 C.3    64  ASP64       0.1825
     16  C        -11.5280    0.9240    5.6060 C.2    64  ASP64       0.2464
     17  O        -12.5390    0.9660    4.9280 O.2    64  ASP64      -0.2730
     18  CB        -9.6600    0.4440    4.0410 C.3    64  ASP64       0.1450
     19  CG        -8.4100    1.2410    4.4050 C.2    64  ASP64       0.3671
     20  OD1       -8.1570    2.2590    3.7050 O.co2  64  ASP64      -0.2456
     21  OD2       -7.6510    0.8670    5.3240 O.co2  64  ASP64      -0.2456
     22  N        -11.2990    1.7890    6.6170 N.am   65  PRO65      -0.2715
     23  CA       -12.2810    2.8610    6.8740 C.3    65  PRO65       0.1536
     24  C        -12.3110    3.8660    5.7250 C.2    65  PRO65       0.2599
     25  O        -11.3080    4.0570    5.0300 O.2    65  PRO65      -0.2715
     26  CB       -11.7410    3.5380    8.1510 C.3    65  PRO65       0.0310
     27  CG       -10.7590    2.5350    8.7510 C.3    65  PRO65       0.0237
     28  CD       -10.1530    1.8620    7.5450 C.3    65  PRO65       0.0939
     29  N        -13.4460    4.5370    5.5400 N.am   66  TYR66      -0.1960
     30  CA       -13.4820    5.6460    4.5810 C.3    66  TYR66       0.1771
     31  C        -12.3600    6.6300    4.9030 C.2    66  TYR66       0.2619
     32  O        -12.0890    6.9080    6.0730 O.2    66  TYR66      -0.2715
     33  CB       -14.8000    6.4070    4.6680 C.3    66  TYR66       0.0574
     34  CG       -16.0330    5.6820    4.1850 C.ar   66  TYR66      -0.0198
     35  CD1      -16.1890    5.3280    2.8430 C.ar   66  TYR66      -0.0009
     36  CD2      -17.0710    5.4080    5.0510 C.ar   66  TYR66      -0.0009
     37  CE1      -17.3240    4.6810    2.3980 C.ar   66  TYR66       0.0417
     38  CE2      -18.2230    4.7660    4.6100 C.ar   66  TYR66       0.0417
     39  CZ       -18.3400    4.4000    3.2840 C.ar   66  TYR66       0.1957
     40  OH       -19.4770    3.7840    2.8300 O.3    66  TYR66      -0.2866
     41  N        -11.7460    7.2040    3.8670 N.am   67  HIS67      -0.1973
     42  CA       -10.5820    8.0770    4.0900 C.3    67  HIS67       0.1656
     43  C        -10.8490    9.5510    3.7690 C.2    67  HIS67       0.2291
     44  O         -9.9170   10.3480    3.7300 O.2    67  HIS67      -0.2864
     45  CB        -9.3650    7.5580    3.3230 C.3    67  HIS67       0.0771
     46  CG        -9.6000    7.4350    1.8570 C.ar   67  HIS67       0.0820
     47  ND1       -9.7010    6.2170    1.2250 N.ar   67  HIS67      -0.2267
     48  CD2       -9.7810    8.3750    0.8990 C.ar   67  HIS67       0.1154
     49  CE1       -9.9320    6.4100   -0.0620 C.ar   67  HIS67       0.1986
     50  NE2       -9.9920    7.7110   -0.2840 N.ar   67  HIS67      -0.2212
     51  N        -17.9780    2.1960   12.1810 N.3    75  LEU75      -0.1231
     52  CA       -18.8570    1.1330   11.6970 C.3    75  LEU75       0.1693
     53  C        -18.6110    1.0040   10.1990 C.2    75  LEU75       0.2592
     54  O        -18.7010    1.9970    9.4800 O.2    75  LEU75      -0.2718
     55  CB       -20.3370    1.4890   11.9260 C.3    75  LEU75       0.0284
     56  CG       -20.7990    1.7570   13.3640 C.3    75  LEU75       0.0019
     57  CD1      -22.2870    2.0730   13.3550 C.3    75  LEU75       0.0001
     58  CD2      -20.5030    0.5520   14.2860 C.3    75  LEU75       0.0001
     59  N        -18.3300   -0.1920    9.7080 N.am   76  CYS76      -0.1956
     60  CA       -17.9930   -0.3390    8.2930 C.3    76  CYS76       0.1843
     61  C        -19.1610    0.1140    7.4240 C.2    76  CYS76       0.2625
     62  O        -20.3240   -0.1730    7.7410 O.2    76  CYS76      -0.2714
     63  CB       -17.5100   -1.7520    7.9470 C.3    76  CYS76       0.0997
     64  SG       -18.7780   -3.0320    8.0950 S.3    76  CYS76      -0.0797
     65  N        -18.8120    0.8850    6.3840 N.am   77  PHE77      -0.1974
     66  CA       -19.7200    1.3980    5.3450 C.3    77  PHE77       0.1639
     67  C        -20.6150    2.5570    5.7410 C.2    77  PHE77       0.2290
     68  O        -21.2080    3.1660    4.8600 O.2    77  PHE77      -0.2864
     69  CB       -20.5790    0.2710    4.7180 C.3    77  PHE77       0.0560
     70  CG       -19.7610   -0.7910    4.0430 C.ar   77  PHE77      -0.0200
     71  CD1      -19.5820   -2.0230    4.6540 C.ar   77  PHE77      -0.0042
     72  CD2      -19.1080   -0.5330    2.8390 C.ar   77  PHE77      -0.0042
     73  CE1      -18.7910   -2.9920    4.0670 C.ar   77  PHE77      -0.0003
     74  CE2      -18.3250   -1.5150    2.2370 C.ar   77  PHE77      -0.0003
     75  CZ       -18.1600   -2.7360    2.8570 C.ar   77  PHE77      -0.0000
     76  N        -20.3340    2.9210   -2.2560 N.3    88  SER88      -0.1217
     77  CA       -20.5000    1.5460   -1.7800 C.3    88  SER88       0.1889
     78  C        -21.7950    1.4140   -0.9980 C.2    88  SER88       0.2288
     79  O        -22.4990    0.4240   -1.1370 O.2    88  SER88      -0.2866
     80  CB       -19.3330    1.0870   -0.9060 C.3    88  SER88       0.2089
     81  OG       -18.1280    1.0190   -1.6500 O.3    88  SER88      -0.2183
     82  N        -14.5440   -3.3550   10.3330 N.3   123  ASN123     -0.1240
     83  CA       -13.4370   -3.3000    9.3820 C.3   123  ASN123      0.1653
     84  C        -12.2240   -4.0570    9.9230 C.2   123  ASN123      0.2266
     85  O        -11.9760   -4.0860   11.1370 O.2   123  ASN123     -0.2867
     86  CB       -13.0620   -1.8360    9.0970 C.3   123  ASN123      0.1155
     87  CG       -13.9490   -1.1920    8.0600 C.2   123  ASN123      0.2627
     88  OD1      -14.3320   -1.8240    7.0880 O.2   123  ASN123     -0.2716
     89  ND2      -14.2800    0.0910    8.2690 N.am  123  ASN123     -0.0877
     90  N        -17.9410   -9.9700    1.8680 N.3   164  TRP164     -0.1227
     91  CA       -18.1280   -9.3160    0.5880 C.3   164  TRP164      0.1737
     92  C        -16.7590   -8.9800    0.0210 C.2   164  TRP164      0.2596
     93  O        -16.0900   -8.1400    0.5770 O.2   164  TRP164     -0.2718
     94  CB       -18.9470   -8.0300    0.8000 C.3   164  TRP164      0.0564
     95  CG       -20.3420   -8.2280    1.3740 C.ar  164  TRP164      0.0003
     96  CD1      -21.0690   -9.3800    1.3760 C.ar  164  TRP164      0.0946
     97  CD2      -21.1830   -7.2170    1.9740 C.ar  164  TRP164      0.0152
     98  NE1      -22.3120   -9.1520    1.9350 N.ar  164  TRP164     -0.2442
     99  CE2      -22.4000   -7.8390    2.3180 C.ar  164  TRP164      0.0810
    100  CE3      -21.0160   -5.8550    2.2670 C.ar  164  TRP164      0.0012
    101  CZ2      -23.4630   -7.1360    2.9130 C.ar  164  TRP164      0.0191
    102  CZ3      -22.0740   -5.1590    2.8680 C.ar  164  TRP164      0.0001
    103  CH2      -23.2840   -5.8030    3.1800 C.ar  164  TRP164      0.0015
    104  N        -16.3520   -9.6640   -1.0450 N.am  165  GLY165     -0.1942
    105  CA       -15.0460   -9.4180   -1.6660 C.3   165  GLY165      0.2014
    106  C        -13.9490  -10.2830   -1.0710 C.2   165  GLY165      0.2640
    107  O        -14.0990  -10.8470    0.0210 O.2   165  GLY165     -0.2714
    108  N        -12.8210  -10.3440   -1.7780 N.am  166  SER166     -0.1935
    109  CA       -11.7100  -11.2560   -1.4690 C.3   166  SER166      0.2055
    110  C        -11.0380  -11.0710   -0.1020 C.2   166  SER166      0.2643
    111  O        -10.6860  -12.0540    0.5450 O.2   166  SER166     -0.2714
    112  CB       -10.6380  -11.1640   -2.5630 C.3   166  SER166      0.2130
    113  OG       -10.0280   -9.8860   -2.5440 O.3   166  SER166     -0.2179
    114  N        -10.8180   -9.8290    0.3550 N.am  167  TYR167     -0.1973
    115  CA       -10.1620   -9.6230    1.6710 C.3   167  TYR167      0.1639
    116  C        -11.0240  -10.1610    2.8140 C.2   167  TYR167      0.2290
    117  O        -10.5080  -10.8290    3.7170 O.2   167  TYR167     -0.2864
    118  CB        -9.7770   -8.1550    1.9650 C.3   167  TYR167      0.0560
    119  CG        -8.4520   -7.6860    1.3800 C.ar  167  TYR167     -0.0198
    120  CD1       -8.4210   -6.8160    0.2870 C.ar  167  TYR167     -0.0009
    121  CD2       -7.2360   -8.0980    1.9300 C.ar  167  TYR167     -0.0009
    122  CE1       -7.2130   -6.3760   -0.2520 C.ar  167  TYR167      0.0417
    123  CE2       -6.0200   -7.6670    1.3950 C.ar  167  TYR167      0.0417
    124  CZ        -6.0200   -6.8050    0.3060 C.ar  167  TYR167      0.1957
    125  OH        -4.8330   -6.3680   -0.2350 O.3   167  TYR167     -0.2866
    126  N        -19.2550  -10.6250   -4.0180 N.3   186  ALA186     -0.1231
    127  CA       -18.3290   -9.5400   -4.3730 C.3   186  ALA186      0.1694
    128  C        -18.4740   -8.3090   -3.4630 C.2   186  ALA186      0.2592
    129  O        -19.5140   -8.1220   -2.8180 O.2   186  ALA186     -0.2718
    130  CB       -18.5260   -9.1470   -5.8260 C.3   186  ALA186      0.0304
    131  N        -17.4390   -7.4690   -3.3930 N.am  187  HIS187     -0.1976
    132  CA       -17.4840   -6.1980   -2.6520 C.3   187  HIS187      0.1656
    133  C        -18.5080   -5.2510   -3.3110 C.2   187  HIS187      0.2291
    134  O        -18.6630   -5.2640   -4.5460 O.2   187  HIS187     -0.2864
    135  CB       -16.0920   -5.5450   -2.6080 C.3   187  HIS187      0.0771
    136  CG       -15.9460   -4.4460   -1.5940 C.ar  187  HIS187      0.0820
    137  ND1      -16.3490   -3.1460   -1.8330 N.ar  187  HIS187     -0.2267
    138  CD2      -15.4270   -4.4480   -0.3440 C.ar  187  HIS187      0.1154
    139  CE1      -16.0880   -2.4010   -0.7760 C.ar  187  HIS187      0.1986
    140  NE2      -15.5300   -3.1670    0.1460 N.ar  187  HIS187     -0.2212
    141  N        -18.3970   -2.0670   -3.7520 N.3   189  SER189     -0.1217
    142  CA       -17.8000   -0.9700   -4.5440 C.3   189  SER189      0.1889
    143  C        -18.3040   -1.0120   -5.9830 C.2   189  SER189      0.2288
    144  O        -18.4890   -2.0910   -6.5360 O.2   189  SER189     -0.2866
    145  CB       -16.2670   -1.0670   -4.5880 C.3   189  SER189      0.2089
    146  OG       -15.8130   -0.6640   -5.8810 O.3   189  SER189     -0.2183
    147  N        -16.7610   -0.7630   -8.7210 N.3   191  LEU191     -0.1231
    148  CA       -15.8900   -1.5720   -9.5860 C.3   191  LEU191      0.1693
    149  C        -16.1880   -3.0640   -9.5140 C.2   191  LEU191      0.2592
    150  O        -15.9580   -3.7880  -10.4790 O.2   191  LEU191     -0.2718
    151  CB       -14.4140   -1.3250   -9.2710 C.3   191  LEU191      0.0284
    152  CG       -13.8330    0.0140   -9.7330 C.3   191  LEU191      0.0019
    153  CD1      -12.4280    0.1770   -9.1930 C.3   191  LEU191      0.0001
    154  CD2      -13.8200    0.1730  -11.2550 C.3   191  LEU191      0.0001
    155  N        -16.6820   -3.5210   -8.3590 N.am  192  SER192     -0.1952
    156  CA       -16.9500   -4.9480   -8.1110 C.3   192  SER192      0.1924
    157  C        -18.4210   -5.3310   -7.9490 C.2   192  SER192      0.2314
    158  O        -18.7670   -6.5170   -7.9620 O.2   192  SER192     -0.2863
    159  CB       -16.1850   -5.4110   -6.8650 C.3   192  SER192      0.2116
    160  OG       -16.3860   -4.5360   -5.7720 O.3   192  SER192     -0.2180
@<TRIPOS>BOND
     1   154   152    1
     2   150   149    2
     3   152   151    1
     4   152   153    1
     5   148   149    1
     6   148   151    1
     7   148   147    1
     8   149   155   am
     9   155   156    1
    10   156   157    1
    11   156   159    1
    12   158   157    2
    13   159   160    1
    14   144   143    2
    15   143   142    1
    16   146   145    1
    17   130   127    1
    18   145   142    1
    19   134   133    2
    20   142   141    1
    21   127   126    1
    22   127   128    1
    23   128   131   am
    24   128   129    2
    25   131   132    1
    26   133   132    1
    27   132   135    1
    28   135   136    1
    29   112   113    1
    30   112   109    1
    31    76    77    1
    32   137   136   ar
    33   137   139   ar
    34    77    78    1
    35    77    80    1
    36   108   109    1
    37   108   106   am
    38   105   106    1
    39   105   104    1
    40    81    80    1
    41   136   138   ar
    42   109   110    1
    43    79    78    2
    44   106   107    2
    45   104    92   am
    46   139   140   ar
    47   138   140   ar
    48    50    49   ar
    49    50    48   ar
    50   122   120   ar
    51   122   124   ar
    52   125   124    1
    53   110   114   am
    54   110   111    2
    55    49    47   ar
    56    92    93    2
    57    92    91    1
    58   120   119   ar
    59   124   123   ar
    60   114   115    1
    61    91    94    1
    62    91    90    1
    63    94    95    1
    64    48    46   ar
    65    47    46   ar
    66    95    96   ar
    67    95    97   ar
    68    96    98   ar
    69   119   121   ar
    70   119   118    1
    71   123   121   ar
    72   115   118    1
    73   115   116    1
    74    46    45    1
    75    98    99   ar
    76    97   100   ar
    77    97    99   ar
    78    74    72   ar
    79    74    75   ar
    80   100   102   ar
    81    99   101   ar
    82    37    35   ar
    83    37    39   ar
    84   116   117    2
    85    40    39    1
    86    72    70   ar
    87    35    34   ar
    88    75    73   ar
    89   102   103   ar
    90   101   103   ar
    91    39    38   ar
    92    45    42    1
    93    10     9    1
    94    10    11    1
    95     9     6    1
    96    20    19   ar
    97    44    43    2
    98    43    42    1
    99    41    42    1
   100    41    31   am
   101    18    19    1
   102    18    15    1
   103    70    71   ar
   104    70    69    1
   105    73    71   ar
   106    34    33    1
   107    34    36   ar
   108    11    13   am
   109    11    12    2
   110    19    21   ar
   111    30    33    1
   112    30    31    1
   113    30    29    1
   114    38    36   ar
   115    69    66    1
   116    68    67    2
   117    14    15    1
   118    14     7   am
   119    31    32    2
   120    17    16    2
   121     6     5    1
   122     6     7    1
   123    25    24    2
   124     5     3   am
   125    15    16    1
   126    66    67    1
   127    66    65    1
   128    29    24   am
   129     7     8    2
   130    16    22   am
   131     2     3    1
   132     2     1    1
   133    24    23    1
   134     3     4    2
   135    65    61   am
   136    22    23    1
   137    22    28    1
   138    23    26    1
   139    88    87    2
   140    61    62    2
   141    61    60    1
   142    28    27    1
   143    63    64    1
   144    63    60    1
   145    87    89   am
   146    87    86    1
   147    26    27    1
   148    60    59    1
   149    86    83    1
   150    83    84    1
   151    83    82    1
   152    54    53    2
   153    59    53   am
   154    84    85    2
   155    53    52    1
   156    52    55    1
   157    52    51    1
   158    55    56    1
   159    57    56    1
   160    56    58    1
