@<TRIPOS>MOLECULE
tmp/3fckA00.pdb
 132 132 0 0 0
SMALL
GASTEIGER

@<TRIPOS>ATOM
      1  N        -15.2940    5.6340   -7.5150 N.3    61  GLY61      -0.1210
      2  CA       -14.7200    4.6640   -6.5950 C.3    61  GLY61       0.1956
      3  C        -13.2020    4.6770   -6.5910 C.2    61  GLY61       0.2612
      4  O        -12.5610    5.4680   -7.2910 O.2    61  GLY61      -0.2717
      5  N        -12.6300    3.7970   -5.7800 N.am   62  GLN62      -0.1965
      6  CA       -11.1850    3.7170   -5.6410 C.3    62  GLN62       0.1733
      7  C        -10.6640    2.4540   -6.3260 C.2    62  GLN62       0.2616
      8  O        -10.3320    2.4910   -7.5150 O.2    62  GLN62      -0.2715
      9  CB       -10.7880    3.7850   -4.1590 C.3    62  GLN62       0.0408
     10  CG        -9.2960    3.9230   -3.9260 C.3    62  GLN62       0.0908
     11  CD        -8.9440    4.2720   -2.4930 C.2    62  GLN62       0.2608
     12  OE1       -9.8190    4.5370   -1.6620 O.2    62  GLN62      -0.2717
     13  NE2       -7.6520    4.2960   -2.2000 N.am   62  GLN62      -0.0878
     14  N        -10.6400    1.3510   -5.5760 N.am   63  ASP63      -0.1958
     15  CA       -10.0800    0.0670   -5.9850 C.3    63  ASP63       0.1825
     16  C        -11.2080   -0.9150   -6.3340 C.2    63  ASP63       0.2464
     17  O        -12.2700   -0.8700   -5.7130 O.2    63  ASP63      -0.2730
     18  CB        -9.2820   -0.5000   -4.7980 C.3    63  ASP63       0.1450
     19  CG        -8.0350   -1.2390   -5.2190 C.2    63  ASP63       0.3671
     20  OD1       -7.3330   -0.7530   -6.1280 O.co2  63  ASP63      -0.2456
     21  OD2       -7.7510   -2.2980   -4.6210 O.co2  63  ASP63      -0.2456
     22  N        -10.9810   -1.8180   -7.3120 N.am   64  PRO64      -0.2715
     23  CA       -11.9820   -2.8660   -7.5650 C.3    64  PRO64       0.1536
     24  C        -12.0280   -3.8540   -6.4020 C.2    64  PRO64       0.2598
     25  O        -11.0450   -3.9700   -5.6640 O.2    64  PRO64      -0.2715
     26  CB       -11.4560   -3.5750   -8.8190 C.3    64  PRO64       0.0310
     27  CG       -10.3950   -2.6750   -9.3870 C.3    64  PRO64       0.0237
     28  CD        -9.8250   -1.9400   -8.2160 C.3    64  PRO64       0.0939
     29  N        -13.1530   -4.5490   -6.2370 N.am   65  TYR65      -0.1974
     30  CA       -13.2290   -5.6290   -5.2530 C.3    65  TYR65       0.1639
     31  C        -12.1500   -6.6460   -5.5820 C.2    65  TYR65       0.2290
     32  O        -11.8770   -6.9030   -6.7560 O.2    65  TYR65      -0.2864
     33  CB       -14.5820   -6.3230   -5.3110 C.3    65  TYR65       0.0560
     34  CG       -15.7610   -5.5280   -4.8120 C.ar   65  TYR65      -0.0198
     35  CD1      -15.8310   -5.1040   -3.4850 C.ar   65  TYR65      -0.0009
     36  CD2      -16.8440   -5.2600   -5.6510 C.ar   65  TYR65      -0.0009
     37  CE1      -16.9380   -4.3950   -3.0170 C.ar   65  TYR65       0.0417
     38  CE2      -17.9590   -4.5520   -5.1910 C.ar   65  TYR65       0.0417
     39  CZ       -17.9950   -4.1260   -3.8720 C.ar   65  TYR65       0.1957
     40  OH       -19.0900   -3.4420   -3.3930 O.3    65  TYR65      -0.2866
     41  N        -17.7230   -2.3260  -12.7560 N.3    74  LEU74      -0.1231
     42  CA       -18.5610   -1.2320  -12.2680 C.3    74  LEU74       0.1693
     43  C        -18.2970   -1.0690  -10.7770 C.2    74  LEU74       0.2592
     44  O        -18.3690   -2.0410  -10.0260 O.2    74  LEU74      -0.2718
     45  CB       -20.0420   -1.5540  -12.4920 C.3    74  LEU74       0.0284
     46  CG       -20.5670   -1.8150  -13.9060 C.3    74  LEU74       0.0019
     47  CD1      -22.0640   -2.1350  -13.8510 C.3    74  LEU74       0.0001
     48  CD2      -20.2860   -0.6120  -14.8190 C.3    74  LEU74       0.0001
     49  N        -17.9900    0.1480  -10.3340 N.am   75  CYS75      -0.1956
     50  CA       -17.6810    0.3440   -8.9190 C.3    75  CYS75       0.1843
     51  C        -18.8690   -0.0630   -8.0320 C.2    75  CYS75       0.2625
     52  O        -20.0250    0.1670   -8.3970 O.2    75  CYS75      -0.2714
     53  CB       -17.2350    1.7800   -8.6400 C.3    75  CYS75       0.0997
     54  SG       -18.5350    3.0290   -8.7360 S.3    75  CYS75      -0.0797
     55  N        -18.5640   -0.7230   -6.9080 N.am   76  PHE76      -0.1974
     56  CA       -19.5520   -1.1850   -5.9010 C.3    76  PHE76       0.1639
     57  C        -20.4200   -2.3880   -6.2880 C.2    76  PHE76       0.2290
     58  O        -20.9970   -3.0340   -5.4070 O.2    76  PHE76      -0.2864
     59  CB       -20.4600   -0.0400   -5.4160 C.3    76  PHE76       0.0560
     60  CG       -19.7330    1.0260   -4.6410 C.ar   76  PHE76      -0.0200
     61  CD1      -19.5610    2.2970   -5.1810 C.ar   76  PHE76      -0.0042
     62  CD2      -19.2270    0.7620   -3.3670 C.ar   76  PHE76      -0.0042
     63  CE1      -18.8920    3.2940   -4.4640 C.ar   76  PHE76      -0.0003
     64  CE2      -18.5520    1.7530   -2.6460 C.ar   76  PHE76      -0.0003
     65  CZ       -18.3840    3.0190   -3.2010 C.ar   76  PHE76      -0.0000
     66  N        -21.4780   -6.7680   -0.9820 N.3    85  PRO85      -0.2103
     67  CA       -20.5320   -6.4720    0.1060 C.3    85  PRO85       0.1489
     68  C        -21.0630   -5.3800    1.0600 C.2    85  PRO85       0.2418
     69  O        -22.0490   -4.7030    0.7330 O.2    85  PRO85      -0.2734
     70  CB       -19.2660   -6.0060   -0.6420 C.3    85  PRO85       0.0282
     71  CG       -19.4200   -6.5990   -2.0330 C.3    85  PRO85       0.0208
     72  CD       -20.8930   -6.4670   -2.3000 C.3    85  PRO85       0.0893
     73  N        -20.4480   -5.2370    2.2540 N.am   86  PRO86      -0.2718
     74  CA       -20.9630   -4.3160    3.2820 C.3    86  PRO86       0.1535
     75  C        -21.2320   -2.8790    2.8080 C.2    86  PRO86       0.2599
     76  O        -22.2600   -2.3010    3.1680 O.2    86  PRO86      -0.2715
     77  CB       -19.8700   -4.3590    4.3610 C.3    86  PRO86       0.0310
     78  CG       -19.3200   -5.7650    4.2420 C.3    86  PRO86       0.0237
     79  CD       -19.2660   -5.9810    2.7410 C.3    86  PRO86       0.0939
     80  N        -20.3400   -2.3220    1.9910 N.am   87  SER87      -0.1950
     81  CA       -20.5410   -0.9720    1.4440 C.3    87  SER87       0.1924
     82  C        -21.8270   -0.8880    0.6280 C.2    87  SER87       0.2314
     83  O        -22.6080    0.0620    0.7870 O.2    87  SER87      -0.2863
     84  CB       -19.3460   -0.5490    0.5920 C.3    87  SER87       0.2116
     85  OG       -18.2280   -0.3110    1.4290 O.3    87  SER87      -0.2180
     86  N        -24.9450   -0.9790    2.7190 N.3    90  ASN90      -0.1240
     87  CA       -25.1790    0.3670    3.2590 C.3    90  ASN90       0.1653
     88  C        -25.7760    1.3390    2.2330 C.2    90  ASN90       0.2266
     89  O        -26.6610    2.1420    2.5600 O.2    90  ASN90      -0.2867
     90  CB       -23.9010    0.9340    3.8980 C.3    90  ASN90       0.1155
     91  CG       -23.5110    0.1940    5.1740 C.2    90  ASN90       0.2627
     92  OD1      -24.3340   -0.4960    5.7810 O.2    90  ASN90      -0.2716
     93  ND2      -22.2530    0.3350    5.5840 N.am   90  ASN90      -0.0877
     94  N        -14.4370    3.1860  -11.0170 N.3   122  ASN122     -0.1240
     95  CA       -13.2840    3.0640  -10.1260 C.3   122  ASN122      0.1653
     96  C        -12.0940    3.8680  -10.6580 C.2   122  ASN122      0.2266
     97  O        -11.9150    3.9840  -11.8700 O.2   122  ASN122     -0.2867
     98  CB       -12.8770    1.5940   -9.9520 C.3   122  ASN122      0.1155
     99  CG       -13.7270    0.8680   -8.9240 C.2   122  ASN122      0.2627
    100  OD1      -14.1510    1.4520   -7.9220 O.2   122  ASN122     -0.2716
    101  ND2      -13.9710   -0.4180   -9.1630 N.am  122  ASN122     -0.0877
    102  N        -17.6780    7.8810    2.9850 N.3   186  HIS186     -0.1241
    103  CA       -17.7150    6.6010    2.2880 C.3   186  HIS186      0.1621
    104  C        -18.7370    5.6680    2.9510 C.2   186  HIS186      0.2264
    105  O        -18.8480    5.6620    4.1760 O.2   186  HIS186     -0.2867
    106  CB       -16.3270    5.9660    2.2990 C.3   186  HIS186      0.0745
    107  CG       -16.1800    4.8310    1.3380 C.ar  186  HIS186      0.0817
    108  ND1      -16.5440    3.5390    1.6500 N.ar  186  HIS186     -0.2268
    109  CD2      -15.7160    4.7940    0.0670 C.ar  186  HIS186      0.1154
    110  CE1      -16.3080    2.7540    0.6150 C.ar  186  HIS186      0.1986
    111  NE2      -15.8040    3.4890   -0.3590 N.ar  186  HIS186     -0.2212
    112  N        -18.6480    2.5670    3.4930 N.3   188  SER188     -0.1203
    113  CA       -18.0460    1.4870    4.2860 C.3   188  SER188      0.2005
    114  C        -18.5480    1.5390    5.7320 C.2   188  SER188      0.2461
    115  O        -18.7480    2.6300    6.2700 O.2   188  SER188     -0.2732
    116  CB       -16.5220    1.6020    4.2850 C.3   188  SER188      0.2103
    117  OG       -15.9840    0.9160    5.4080 O.3   188  SER188     -0.2182
    118  N        -18.7530    0.3630    6.3650 N.am  189  PRO189     -0.2717
    119  CA       -19.1830    0.3420    7.7680 C.3   189  PRO189      0.1535
    120  C        -18.3600    1.2500    8.6920 C.2   189  PRO189      0.2598
    121  O        -18.9170    1.8390    9.6120 O.2   189  PRO189     -0.2715
    122  CB       -19.0190   -1.1300    8.1620 C.3   189  PRO189      0.0310
    123  CG       -19.2540   -1.8720    6.8700 C.3   189  PRO189      0.0237
    124  CD       -18.6230   -1.0010    5.8120 C.3   189  PRO189      0.0939
    125  N        -17.0580    1.3850    8.4370 N.am  190  LEU190     -0.1978
    126  CA       -16.1980    2.1870    9.3210 C.3   190  LEU190      0.1596
    127  C        -16.4730    3.6960    9.2580 C.2   190  LEU190      0.2287
    128  O        -16.1460    4.4280   10.1980 O.2   190  LEU190     -0.2864
    129  CB       -14.7140    1.9070    9.0410 C.3   190  LEU190      0.0297
    130  CG       -14.1160    0.5790    9.5120 C.3   190  LEU190      0.0022
    131  CD1      -12.7070    0.4470    8.9650 C.3   190  LEU190      0.0001
    132  CD2      -14.1130    0.4640   11.0250 C.3   190  LEU190      0.0001
@<TRIPOS>BOND
     1    48    46    1
     2    46    47    1
     3    46    45    1
     4    41    42    1
     5    45    42    1
     6    42    43    1
     7    97    96    2
     8    94    95    1
     9    43    49   am
    10    43    44    2
    11    96    95    1
    12    49    50    1
    13    95    98    1
    14    98    99    1
    15    27    26    1
    16    27    28    1
    17   101    99   am
    18    99   100    2
    19    50    53    1
    20    50    51    1
    21    26    23    1
    22    54    53    1
    23    52    51    2
    24    28    22    1
    25    51    55   am
    26    23    22    1
    27    23    24    1
    28     8     7    2
    29     1     2    1
    30    22    16   am
    31     4     3    2
    32    55    56    1
    33    32    31    2
    34     2     3    1
    35     3     5   am
    36    24    29   am
    37    24    25    2
    38    16    15    1
    39    16    17    2
    40     7     6    1
    41     7    14   am
    42    57    56    1
    43    57    58    2
    44    29    30    1
    45    20    19   ar
    46    15    14    1
    47    15    18    1
    48    56    59    1
    49     5     6    1
    50    36    38   ar
    51    36    34   ar
    52     6     9    1
    53    31    30    1
    54    59    60    1
    55    33    30    1
    56    33    34    1
    57    19    18    1
    58    19    21   ar
    59    38    39   ar
    60    61    60   ar
    61    61    63   ar
    62    34    35   ar
    63    60    62   ar
    64    63    65   ar
    65     9    10    1
    66    10    11    1
    67    39    40    1
    68    39    37   ar
    69    35    37   ar
    70    62    64   ar
    71    65    64   ar
    72    11    13   am
    73    11    12    2
    74    72    71    1
    75    72    66    1
    76    71    70    1
    77    66    67    1
    78    70    67    1
    79   111   109   ar
    80   111   110   ar
    81   109   107   ar
    82    67    68    1
    83    84    85    1
    84    84    81    1
    85   110   108   ar
    86    82    83    2
    87    82    81    1
    88    69    68    2
    89    68    73   am
    90   107   108   ar
    91   107   106    1
    92    81    80    1
    93    80    75   am
    94    88    89    2
    95    88    87    1
    96    73    79    1
    97    73    74    1
    98   103   106    1
    99   103   104    1
   100   103   102    1
   101    86    87    1
   102    79    78    1
   103    75    76    2
   104    75    74    1
   105   104   105    2
   106    87    90    1
   107    74    77    1
   108   112   113    1
   109    90    91    1
   110    78    77    1
   111   116   113    1
   112   116   117    1
   113   113   114    1
   114    91    93   am
   115    91    92    2
   116   114   115    2
   117   114   118   am
   118   124   118    1
   119   124   123    1
   120   118   119    1
   121   123   122    1
   122   119   122    1
   123   119   120    1
   124   125   120   am
   125   125   126    1
   126   120   121    2
   127   131   130    1
   128   129   126    1
   129   129   130    1
   130   127   126    1
   131   127   128    2
   132   130   132    1
