@<TRIPOS>MOLECULE
tmp/3fclA00.pdb
 119 117 0 0 0
SMALL
GASTEIGER

@<TRIPOS>ATOM
      1  N         27.9160    5.0770   11.9550 N.3    61  GLY61      -0.1210
      2  CA        28.8460    4.5440   12.9420 C.3    61  GLY61       0.1956
      3  C         28.8350    3.0290   12.9650 C.2    61  GLY61       0.2612
      4  O         28.1890    2.3890   12.1270 O.2    61  GLY61      -0.2717
      5  N         29.5510    2.4580   13.9330 N.am   62  GLN62      -0.1965
      6  CA        29.6690    1.0130   14.0600 C.3    62  GLN62       0.1733
      7  C         28.9350    0.4570   15.2800 C.2    62  GLN62       0.2616
      8  O         27.8640   -0.1300   15.1430 O.2    62  GLN62      -0.2715
      9  CB        31.1430    0.5920   14.0970 C.3    62  GLN62       0.0408
     10  CG        31.3530   -0.9290   14.1740 C.3    62  GLN62       0.0908
     11  CD        32.8140   -1.3400   14.0320 C.2    62  GLN62       0.2608
     12  OE1       33.6970   -0.4990   13.8380 O.2    62  GLN62      -0.2717
     13  NE2       33.0740   -2.6380   14.1350 N.am   62  GLN62      -0.0878
     14  N         29.5420    0.6420   16.4540 N.am   63  ASP63      -0.1958
     15  CA        29.1040    0.0420   17.7100 C.3    63  ASP63       0.1825
     16  C         28.7910    1.2010   18.6610 C.2    63  ASP63       0.2464
     17  O         29.5120    2.1890   18.6570 O.2    63  ASP63      -0.2730
     18  CB        30.2680   -0.7800   18.2970 C.3    63  ASP63       0.1450
     19  CG        29.8030   -1.9950   19.0890 C.2    63  ASP63       0.3671
     20  OD1       29.0190   -2.8020   18.5530 O.co2  63  ASP63      -0.2456
     21  OD2       30.2640   -2.1720   20.2360 O.co2  63  ASP63      -0.2456
     22  N         27.7430    1.0690   19.5050 N.am   64  PRO64      -0.2715
     23  CA        27.4630    2.1170   20.4940 C.3    64  PRO64       0.1536
     24  C         28.5520    2.1540   21.5600 C.2    64  PRO64       0.2599
     25  O         29.2440    1.1520   21.7570 O.2    64  PRO64      -0.2715
     26  CB        26.1270    1.6680   21.1260 C.3    64  PRO64       0.0310
     27  CG        25.5810    0.6150   20.1990 C.3    64  PRO64       0.0237
     28  CD        26.7900   -0.0470   19.6180 C.3    64  PRO64       0.0939
     29  N         28.7130    3.2970   22.2380 N.am   65  TYR65      -0.1960
     30  CA        29.6230    3.3770   23.3850 C.3    65  TYR65       0.1771
     31  C         29.2640    2.2680   24.3690 C.2    65  TYR65       0.2619
     32  O         28.0850    1.9870   24.5740 O.2    65  TYR65      -0.2715
     33  CB        29.4850    4.7190   24.1070 C.3    65  TYR65       0.0574
     34  CG        30.0360    5.9250   23.3690 C.ar   65  TYR65      -0.0198
     35  CD1       31.3990    6.0390   23.0970 C.ar   65  TYR65      -0.0009
     36  CD2       29.1940    6.9680   22.9790 C.ar   65  TYR65      -0.0009
     37  CE1       31.9080    7.1480   22.4400 C.ar   65  TYR65       0.0417
     38  CE2       29.6920    8.0950   22.3230 C.ar   65  TYR65       0.0417
     39  CZ        31.0490    8.1780   22.0610 C.ar   65  TYR65       0.1957
     40  OH        31.5590    9.2850   21.4130 O.3    65  TYR65      -0.2866
     41  N         30.2760    1.6680   24.9970 N.am   66  HIS66      -0.1973
     42  CA        30.0340    0.5510   25.9100 C.3    66  HIS66       0.1656
     43  C         30.2310    0.8390   27.4130 C.2    66  HIS66       0.2291
     44  O         30.1450   -0.0760   28.2430 O.2    66  HIS66      -0.2864
     45  CB        30.8540   -0.6720   25.4820 C.3    66  HIS66       0.0771
     46  CG        32.3290   -0.4290   25.4610 C.ar   66  HIS66       0.0820
     47  ND1       33.0430   -0.2990   24.2890 N.ar   66  HIS66      -0.2267
     48  CD2       33.2280   -0.3040   26.4660 C.ar   66  HIS66       0.1154
     49  CE1       34.3190   -0.1020   24.5720 C.ar   66  HIS66       0.1986
     50  NE2       34.4570   -0.0990   25.8860 N.ar   66  HIS66      -0.2212
     51  N         22.2370    7.7240   19.5270 N.3    74  LEU74      -0.1231
     52  CA        22.7650    8.5580   18.4440 C.3    74  LEU74       0.1693
     53  C         24.2620    8.3210   18.3930 C.2    74  LEU74       0.2592
     54  O         24.9320    8.4430   19.4160 O.2    74  LEU74      -0.2718
     55  CB        22.4920   10.0420   18.7380 C.3    74  LEU74       0.0284
     56  CG        21.0570   10.5270   18.9530 C.3    74  LEU74       0.0019
     57  CD1       21.0560   12.0260   19.2240 C.3    74  LEU74       0.0001
     58  CD2       20.1710   10.2160   17.7490 C.3    74  LEU74       0.0001
     59  N         24.7990    7.9610   17.2280 N.am   75  CYS75      -0.1956
     60  CA        26.2290    7.6520   17.1640 C.3    75  CYS75       0.1843
     61  C         27.0860    8.8470   17.6010 C.2    75  CYS75       0.2625
     62  O         26.7810    9.9900   17.2690 O.2    75  CYS75      -0.2714
     63  CB        26.6630    7.1340   15.7890 C.3    75  CYS75       0.0997
     64  SG        26.5990    8.3320   14.4450 S.3    75  CYS75      -0.0797
     65  N         28.1250    8.5390   18.3780 N.am   76  PHE76      -0.1974
     66  CA        29.1440    9.4840   18.8900 C.3    76  PHE76       0.1639
     67  C         28.6950   10.3930   20.0330 C.2    76  PHE76       0.2290
     68  O         29.5360   10.9950   20.7160 O.2    76  PHE76      -0.2864
     69  CB        29.7820   10.3120   17.7630 C.3    76  PHE76       0.0560
     70  CG        30.5090    9.4790   16.7450 C.ar   76  PHE76      -0.0200
     71  CD1       29.9650    9.2800   15.4890 C.ar   76  PHE76      -0.0042
     72  CD2       31.7440    8.8930   17.0520 C.ar   76  PHE76      -0.0042
     73  CE1       30.6370    8.5000   14.5340 C.ar   76  PHE76      -0.0003
     74  CE2       32.4260    8.1070   16.1120 C.ar   76  PHE76      -0.0003
     75  CZ        31.8720    7.9140   14.8480 C.ar   76  PHE76      -0.0000
     76  N         36.8940   10.3810   20.5290 N.3    87  SER87      -0.1217
     77  CA        36.3830   10.4840   19.1590 C.3    87  SER87       0.1889
     78  C         35.5850   11.7680   18.9680 C.2    87  SER87       0.2288
     79  O         35.7780   12.4770   17.9820 O.2    87  SER87      -0.2866
     80  CB        35.5330    9.2670   18.7910 C.3    87  SER87       0.2089
     81  OG        36.3550    8.1150   18.6680 O.3    87  SER87      -0.2183
     82  N         24.2620    4.1660   14.1350 N.3   122  ASN122     -0.1240
     83  CA        25.1990    3.0550   14.2960 C.3   122  ASN122      0.1653
     84  C         24.6820    1.8160   13.5670 C.2   122  ASN122      0.2266
     85  O         23.4720    1.6010   13.4750 O.2   122  ASN122     -0.2867
     86  CB        25.4200    2.7260   15.7740 C.3   122  ASN122      0.1155
     87  CG        26.3990    3.6780   16.4490 C.2   122  ASN122      0.2627
     88  OD1       27.3920    4.0940   15.8520 O.2   122  ASN122     -0.2716
     89  ND2       26.1240    4.0150   17.7000 N.am  122  ASN122     -0.0877
     90  N         38.4060    7.2200   10.5250 N.3   186  HIS186     -0.1241
     91  CA        37.6330    7.3180   11.7570 C.3   186  HIS186      0.1621
     92  C         38.2460    8.3950   12.6800 C.2   186  HIS186      0.2264
     93  O         39.4650    8.5340   12.7210 O.2   186  HIS186     -0.2867
     94  CB        37.6180    5.9560   12.4520 C.3   186  HIS186      0.0745
     95  CG        36.6530    5.8650   13.5860 C.ar  186  HIS186      0.0817
     96  ND1       36.9020    6.4270   14.8200 N.ar  186  HIS186     -0.2268
     97  CD2       35.4340    5.2860   13.6740 C.ar  186  HIS186      0.1154
     98  CE1       35.8790    6.1940   15.6210 C.ar  186  HIS186      0.1986
     99  NE2       34.9730    5.5050   14.9490 N.ar  186  HIS186     -0.2212
    100  N         38.6030    8.5780   15.9160 N.3   188  SER188     -0.1217
    101  CA        39.3290    8.1240   17.1180 C.3   188  SER188      0.1889
    102  C         40.8040    8.5030   17.0310 C.2   188  SER188      0.2288
    103  O         41.3600    8.5320   15.9420 O.2   188  SER188     -0.2866
    104  CB        39.1440    6.6230   17.3430 C.3   188  SER188      0.2089
    105  OG        39.7280    5.8670   16.2990 O.3   188  SER188     -0.2183
    106  N         43.5420    7.0020   17.3860 N.3   190  LEU190     -0.1231
    107  CA        44.3750    6.0590   16.6340 C.3   190  LEU190      0.1693
    108  C         44.4000    6.3060   15.1260 C.2   190  LEU190      0.2592
    109  O         45.4090    6.0350   14.4700 O.2   190  LEU190     -0.2718
    110  CB        43.9480    4.6140   16.8990 C.3   190  LEU190      0.0284
    111  CG        44.5310    3.8380   18.0780 C.3   190  LEU190      0.0019
    112  CD1       44.0170    2.4080   18.0110 C.3   190  LEU190      0.0001
    113  CD2       46.0680    3.8530   18.1200 C.3   190  LEU190      0.0001
    114  N         43.2940    6.8170   14.5810 N.am  191  SER191     -0.1952
    115  CA        43.1420    6.9580   13.1310 C.3   191  SER191      0.1924
    116  C         42.9400    8.3980   12.6480 C.2   191  SER191      0.2314
    117  O         42.9550    8.6630   11.4400 O.2   191  SER191     -0.2863
    118  CB        41.9750    6.0850   12.6480 C.3   191  SER191      0.2116
    119  OG        40.7960    6.3730   13.3800 O.3   191  SER191     -0.2180
@<TRIPOS>BOND
     1    90    91    1
     2   117   116    2
     3    91    94    1
     4    91    92    1
     5     1     2    1
     6     4     3    2
     7    94    95    1
     8   118   115    1
     9   118   119    1
    10   116   115    1
    11    92    93    2
    12     2     3    1
    13     3     5   am
    14   115   114    1
    15    85    84    2
    16    84    83    1
    17    95    97   ar
    18    95    96   ar
    19    97    99   ar
    20    12    11    2
    21     5     6    1
    22    11    13   am
    23    11    10    1
    24     6     9    1
    25     6     7    1
    26     9    10    1
    27    82    83    1
    28    83    86    1
    29    64    63    1
    30   109   108    2
    31    73    75   ar
    32    73    71   ar
    33   114   108   am
    34    96    98   ar
    35    75    74   ar
    36    99    98   ar
    37   108   107    1
    38     8     7    2
    39     7    14   am
    40    71    70   ar
    41    86    87    1
    42    63    60    1
    43    88    87    2
    44   100   101    1
    45   103   102    2
    46    74    72   ar
    47   105   104    1
    48    87    89   am
    49    14    15    1
    50   107   110    1
    51   107   106    1
    52    70    72   ar
    53    70    69    1
    54   110   111    1
    55   102   101    1
    56   101   104    1
    57    60    59    1
    58    60    61    1
    59    59    53   am
    60    62    61    2
    61    61    65   am
    62    15    18    1
    63    15    16    1
    64    58    56    1
    65    69    66    1
    66    79    78    2
    67   112   111    1
    68   111   113    1
    69    18    19    1
    70    65    66    1
    71    53    52    1
    72    53    54    2
    73    52    55    1
    74    52    51    1
    75    20    19   ar
    76    17    16    2
    77    16    22   am
    78    81    80    1
    79    55    56    1
    80    80    77    1
    81    66    67    1
    82    56    57    1
    83    78    77    1
    84    19    21   ar
    85    77    76    1
    86    22    28    1
    87    22    23    1
    88    28    27    1
    89    67    68    2
    90    27    26    1
    91    23    26    1
    92    23    24    1
    93    40    39    1
    94    24    25    2
    95    24    29   am
    96    39    38   ar
    97    39    37   ar
    98    29    30    1
    99    38    36   ar
   100    37    35   ar
   101    36    34   ar
   102    35    34   ar
   103    34    33    1
   104    30    33    1
   105    30    31    1
   106    47    49   ar
   107    47    46   ar
   108    31    32    2
   109    31    41   am
   110    49    50   ar
   111    41    42    1
   112    46    45    1
   113    46    48   ar
   114    45    42    1
   115    50    48   ar
   116    42    43    1
   117    43    44    2
