@<TRIPOS>MOLECULE
tmp/3fcoA01.pdb
 161 154 0 0 0
SMALL
GASTEIGER

@<TRIPOS>ATOM
      1  N         57.0720   37.9780    2.8300 N.3   101  ILE101     -0.1245
      2  CA        56.3820   36.7000    2.9850 C.3   101  ILE101      0.1561
      3  C         57.4250   35.5910    2.8110 C.2   101  ILE101      0.2260
      4  O         58.5230   35.8340    2.3330 O.2   101  ILE101     -0.2867
      5  CB        55.2890   36.4760    1.9200 C.3   101  ILE101      0.0252
      6  CG1       55.8670   36.6710    0.5120 C.3   101  ILE101      0.0019
      7  CG2       54.0910   37.4130    2.1240 C.3   101  ILE101      0.0019
      8  CD1       55.1080   35.8890   -0.5450 C.3   101  ILE101      0.0001
      9  N         57.0750   30.8490   -1.4030 N.3   104  THR104     -0.1203
     10  CA        55.9490   29.9460   -1.4740 C.3   104  THR104      0.1994
     11  C         55.7450   29.7660   -2.9630 C.2   104  THR104      0.2619
     12  O         56.2080   30.5780   -3.7500 O.2   104  THR104     -0.2717
     13  CB        54.6910   30.6010   -0.7990 C.3   104  THR104      0.1784
     14  OG1       53.4850   30.1940   -1.4460 O.3   104  THR104     -0.2211
     15  CG2       54.7580   32.0820   -0.8970 C.3   104  THR104      0.0376
     16  N         55.0650   28.7200   -3.3710 N.am  105  SER105     -0.1937
     17  CA        54.8210   28.6180   -4.7730 C.3   105  SER105      0.2055
     18  C         53.4210   28.0940   -5.0070 C.2   105  SER105      0.2642
     19  O         52.7240   27.7700   -4.0530 O.2   105  SER105     -0.2714
     20  CB        55.8820   27.7340   -5.4210 C.3   105  SER105      0.2130
     21  OG        55.7950   26.4370   -4.8910 O.3   105  SER105     -0.2179
     22  N         52.9920   28.0120   -6.2600 N.am  106  LEU106     -0.1977
     23  CA        51.6190   27.6450   -6.5400 C.3   106  LEU106      0.1596
     24  C         51.4820   26.1260   -6.6330 C.2   106  LEU106      0.2287
     25  O         52.1040   25.5240   -7.4790 O.2   106  LEU106     -0.2864
     26  CB        51.1660   28.3310   -7.8380 C.3   106  LEU106      0.0297
     27  CG        51.4910   29.8350   -7.9210 C.3   106  LEU106      0.0022
     28  CD1       51.0930   30.3810   -9.2760 C.3   106  LEU106      0.0001
     29  CD2       50.8190   30.6600   -6.8000 C.3   106  LEU106      0.0001
     30  N         46.4160   40.5770   -0.0450 N.3   150  SER150     -0.1202
     31  CA        46.0720   40.0630   -1.3240 C.3   150  SER150      0.2020
     32  C         44.5760   39.7800   -1.4120 C.2   150  SER150      0.2619
     33  O         43.9340   39.4770   -0.3910 O.2   150  SER150     -0.2717
     34  CB        46.7620   38.7350   -1.4880 C.3   150  SER150      0.2103
     35  OG        46.0540   38.0000   -2.4500 O.3   150  SER150     -0.2182
     36  N         44.0240   39.8400   -2.6300 N.am  151  LEU151     -0.1965
     37  CA        42.6770   39.3960   -2.8570 C.3   151  LEU151      0.1728
     38  C         42.4870   38.0400   -2.2250 C.2   151  LEU151      0.2616
     39  O         41.3760   37.6650   -1.8270 O.2   151  LEU151     -0.2715
     40  CB        42.4180   39.2560   -4.3520 C.3   151  LEU151      0.0311
     41  CG        42.3400   40.5490   -5.1600 C.3   151  LEU151      0.0022
     42  CD1       42.3700   40.3060   -6.6990 C.3   151  LEU151      0.0001
     43  CD2       41.0500   41.2260   -4.7430 C.3   151  LEU151      0.0001
     44  N         43.5590   37.2560   -2.1770 N.am  152  ALA152     -0.1977
     45  CA        43.4370   35.9040   -1.6340 C.3   152  ALA152      0.1597
     46  C         43.4190   35.9050   -0.1020 C.2   152  ALA152      0.2287
     47  O         43.3610   34.8390    0.5410 O.2   152  ALA152     -0.2864
     48  CB        44.5510   35.0190   -2.1320 C.3   152  ALA152      0.0319
     49  N         41.0230   31.0320   -3.0530 N.3   157  TYR157     -0.1228
     50  CA        41.5830   30.6490   -4.3540 C.3   157  TYR157      0.1721
     51  C         42.2360   29.2920   -4.2190 C.2   157  TYR157      0.2437
     52  O         42.8130   29.0270   -3.1970 O.2   157  TYR157     -0.2733
     53  CB        42.7140   31.5730   -4.7330 C.3   157  TYR157      0.0547
     54  CG        42.3720   32.9410   -5.2680 C.ar  157  TYR157     -0.0200
     55  CD1       41.9830   33.9630   -4.4010 C.ar  157  TYR157     -0.0009
     56  CD2       42.5610   33.2500   -6.6460 C.ar  157  TYR157     -0.0009
     57  CE1       41.7150   35.2300   -4.8770 C.ar  157  TYR157      0.0417
     58  CE2       42.3030   34.5240   -7.1370 C.ar  157  TYR157      0.0417
     59  CZ        41.8720   35.5070   -6.2420 C.ar  157  TYR157      0.1957
     60  OH        41.6240   36.7840   -6.6580 O.3   157  TYR157     -0.2866
     61  N         42.2040   28.4460   -5.2570 N.am  158  PRO158     -0.2718
     62  CA        43.0360   27.2170   -5.3010 C.3   158  PRO158      0.1535
     63  C         44.5200   27.5250   -5.4130 C.2   158  PRO158      0.2598
     64  O         44.8910   28.5960   -5.8560 O.2   158  PRO158     -0.2715
     65  CB        42.6300   26.5920   -6.6240 C.3   158  PRO158      0.0310
     66  CG        42.4140   27.7780   -7.4730 C.3   158  PRO158      0.0237
     67  CD        41.5540   28.6710   -6.5590 C.3   158  PRO158      0.0939
     68  N         45.3600   26.5840   -4.9890 N.am  159  MET159     -0.1964
     69  CA        46.8010   26.6640   -5.2450 C.3   159  MET159      0.1736
     70  C         47.5930   27.5260   -4.2650 C.2   159  MET159      0.2616
     71  O         48.8280   27.5360   -4.3190 O.2   159  MET159     -0.2715
     72  CB        47.0580   27.2030   -6.6520 C.3   159  MET159      0.0427
     73  CG        46.2490   26.5520   -7.7140 C.3   159  MET159      0.0599
     74  SD        46.7990   24.8820   -8.0000 S.3   159  MET159     -0.1393
     75  CE        45.5170   23.9530   -7.1540 C.3   159  MET159      0.0692
     76  N         46.9010   28.2720   -3.4060 N.am  160  VAL160     -0.1977
     77  CA        47.5690   29.0730   -2.3880 C.3   160  VAL160      0.1596
     78  C         46.9530   28.9320   -0.9690 C.2   160  VAL160      0.2287
     79  O         46.7390   29.9370   -0.2910 O.2   160  VAL160     -0.2864
     80  CB        47.4790   30.5510   -2.7640 C.3   160  VAL160      0.0276
     81  CG1       48.4900   30.9140   -3.8450 C.3   160  VAL160      0.0022
     82  CG2       46.0380   30.9220   -3.1690 C.3   160  VAL160      0.0022
     83  N         49.1360   30.0570    2.1060 N.3   163  TYR163     -0.1241
     84  CA        49.3750   31.5150    1.9870 C.3   163  TYR163      0.1605
     85  C         48.0900   32.2520    2.3090 C.2   163  TYR163      0.2264
     86  O         48.0240   33.2580    2.9900 O.2   163  TYR163     -0.2867
     87  CB        49.7910   31.7550    0.5480 C.3   163  TYR163      0.0534
     88  CG        49.7900   33.1710    0.0310 C.ar  163  TYR163     -0.0201
     89  CD1       50.9590   33.9260    0.0680 C.ar  163  TYR163     -0.0009
     90  CD2       48.6790   33.7170   -0.6130 C.ar  163  TYR163     -0.0009
     91  CE1       51.0080   35.1770   -0.4240 C.ar  163  TYR163      0.0417
     92  CE2       48.7420   34.9970   -1.1180 C.ar  163  TYR163      0.0417
     93  CZ        49.9180   35.7140   -1.0210 C.ar  163  TYR163      0.1957
     94  OH        50.0640   37.0170   -1.4870 O.3   163  TYR163     -0.2866
     95  N         45.7960   43.2630   -2.5690 N.3   195  LEU195     -0.1231
     96  CA        46.3990   43.3350   -3.9040 C.3   195  LEU195      0.1693
     97  C         45.9760   42.1960   -4.7830 C.2   195  LEU195      0.2593
     98  O         46.0360   41.0350   -4.3420 O.2   195  LEU195     -0.2718
     99  CB        47.9230   43.2650   -3.8090 C.3   195  LEU195      0.0284
    100  CG        48.5910   44.2930   -2.9150 C.3   195  LEU195      0.0019
    101  CD1       50.0920   44.4190   -3.2280 C.3   195  LEU195      0.0001
    102  CD2       47.8490   45.5940   -3.1540 C.3   195  LEU195      0.0001
    103  N         45.5860   42.5050   -6.0280 N.am  196  GLY196     -0.1942
    104  CA        45.5110   41.4540   -7.0810 C.3   196  GLY196      0.2014
    105  C         46.9100   41.1050   -7.6200 C.2   196  GLY196      0.2639
    106  O         47.9250   41.5560   -7.0940 O.2   196  GLY196     -0.2714
    107  N         46.9830   40.2880   -8.6710 N.am  197  LEU197     -0.1963
    108  CA        48.2630   39.8910   -9.2670 C.3   197  LEU197      0.1728
    109  C         49.0710   41.0930   -9.6850 C.2   197  LEU197      0.2616
    110  O         48.5760   41.9580  -10.3930 O.2   197  LEU197     -0.2715
    111  CB        47.9990   39.0250  -10.4990 C.3   197  LEU197      0.0311
    112  CG        49.1870   38.5120  -11.3340 C.3   197  LEU197      0.0022
    113  CD1       50.0050   37.4910  -10.5450 C.3   197  LEU197      0.0001
    114  CD2       48.6750   37.8820  -12.5910 C.3   197  LEU197      0.0001
    115  N         50.3220   41.1250   -9.2440 N.am  198  ILE198     -0.1977
    116  CA        51.2420   42.2290   -9.4990 C.3   198  ILE198      0.1596
    117  C         52.4990   41.7260  -10.2580 C.2   198  ILE198      0.2287
    118  O         53.0720   40.6590   -9.9190 O.2   198  ILE198     -0.2864
    119  CB        51.6620   42.8350   -8.1790 C.3   198  ILE198      0.0276
    120  CG1       50.4190   43.1170   -7.3370 C.3   198  ILE198      0.0022
    121  CG2       52.5020   44.1190   -8.3740 C.3   198  ILE198      0.0022
    122  CD1       49.5250   44.2020   -7.8650 C.3   198  ILE198      0.0001
    123  N         55.4730   41.5020  -10.2830 N.3   200  THR200     -0.1218
    124  CA        56.7870   41.3580   -9.7440 C.3   200  THR200      0.1862
    125  C         57.4340   40.1370  -10.3940 C.2   200  THR200      0.2287
    126  O         56.7710   39.2080  -10.8600 O.2   200  THR200     -0.2866
    127  CB        56.8060   41.1800   -8.1990 C.3   200  THR200      0.1770
    128  OG1       56.2050   39.9300   -7.8270 O.3   200  THR200     -0.2211
    129  CG2       56.1170   42.3390   -7.4880 C.3   200  THR200      0.0375
    130  N         58.8580   37.5110   -9.2040 N.3   202  THR202     -0.1203
    131  CA        58.6140   36.1950   -8.6350 C.3   202  THR202      0.1994
    132  C         57.2580   35.6800   -9.0140 C.2   202  THR202      0.2617
    133  O         57.0760   34.4750   -9.2400 O.2   202  THR202     -0.2717
    134  CB        58.5960   36.3150   -7.1040 C.3   202  THR202      0.1784
    135  OG1       59.7990   36.9810   -6.6460 O.3   202  THR202     -0.2211
    136  CG2       58.3840   34.9580   -6.4460 C.3   202  THR202      0.0376
    137  N         56.3000   36.6070   -9.0790 N.am  203  ALA203     -0.1979
    138  CA        54.9380   36.2820   -9.4500 C.3   203  ALA203      0.1597
    139  C         54.8910   35.8780  -10.9160 C.2   203  ALA203      0.2287
    140  O         54.2970   34.8590  -11.2850 O.2   203  ALA203     -0.2864
    141  CB        54.0340   37.4900   -9.2020 C.3   203  ALA203      0.0319
    142  N         56.0590   32.6230  -11.6760 N.3   206  ALA206     -0.1231
    143  CA        55.2770   31.4830  -11.2470 C.3   206  ALA206      0.1694
    144  C         54.1220   31.3000  -12.1880 C.2   206  ALA206      0.2591
    145  O         53.5120   30.2370  -12.2650 O.2   206  ALA206     -0.2718
    146  CB        54.7930   31.6800   -9.8210 C.3   206  ALA206      0.0304
    147  N         53.7920   32.3500  -12.9010 N.am  207  VAL207     -0.1980
    148  CA        52.6340   32.2610  -13.7800 C.3   207  VAL207      0.1595
    149  C         53.0050   32.3760  -15.2660 C.2   207  VAL207      0.2287
    150  O         52.3650   33.1190  -15.9860 O.2   207  VAL207     -0.2864
    151  CB        51.6300   33.3880  -13.4530 C.3   207  VAL207      0.0276
    152  CG1       50.9880   33.1520  -12.1200 C.3   207  VAL207      0.0022
    153  CG2       52.3550   34.7450  -13.4830 C.3   207  VAL207      0.0022
    154  N         46.2890   35.5870  -17.3430 N.3   211  MET211     -0.1245
    155  CA        46.0810   36.3620  -16.1240 C.3   211  MET211      0.1570
    156  C         46.6790   37.7390  -16.2830 C.2   211  MET211      0.2261
    157  O         47.8520   37.8470  -16.5950 O.2   211  MET211     -0.2867
    158  CB        46.8250   35.7120  -14.9660 C.3   211  MET211      0.0387
    159  CG        46.6470   34.2080  -14.8450 C.3   211  MET211      0.0595
    160  SD        46.7420   33.8210  -13.0940 S.3   211  MET211     -0.1393
    161  CE        45.5110   34.9680  -12.4160 C.3   211  MET211      0.0692
@<TRIPOS>BOND
     1   154   155    1
     2   157   156    2
     3   156   155    1
     4   155   158    1
     5   150   149    2
     6   149   148    1
     7   158   159    1
     8   159   160    1
     9   148   151    1
    10   148   147    1
    11   153   151    1
    12   151   152    1
    13   160   161    1
    14   147   144   am
    15   114   112    1
    16   145   144    2
    17   144   143    1
    18   142   143    1
    19   112   113    1
    20   112   111    1
    21   140   139    2
    22   143   146    1
    23   139   138    1
    24   126   125    2
    25   111   108    1
    26   125   124    1
    27   110   109    2
    28   123   124    1
    29   117   118    2
    30   117   116    1
    31   124   127    1
    32   109   108    1
    33   109   115   am
    34   116   115    1
    35   116   119    1
    36   138   141    1
    37   138   137    1
    38    28    27    1
    39   108   107    1
    40   133   132    2
    41   130   131    1
    42   137   132   am
    43   132   131    1
    44   107   105   am
    45   131   134    1
    46   121   119    1
    47   127   128    1
    48   127   129    1
    49   119   120    1
    50    74    73    1
    51    74    75    1
    52    27    26    1
    53    27    29    1
    54   122   120    1
    55    26    23    1
    56    73    72    1
    57   105   106    2
    58   105   104    1
    59    25    24    2
    60    66    65    1
    61    66    67    1
    62    58    56   ar
    63    58    59   ar
    64   134   135    1
    65   134   136    1
    66   104   103    1
    67    42    41    1
    68    60    59    1
    69    72    69    1
    70    56    54   ar
    71    24    23    1
    72    65    62    1
    73    67    61    1
    74    23    22    1
    75    22    18   am
    76    59    57   ar
    77   103    97   am
    78    64    63    2
    79    20    21    1
    80    20    17    1
    81    63    62    1
    82    63    68   am
    83    62    61    1
    84    54    53    1
    85    54    55   ar
    86    61    51   am
    87    69    68    1
    88    69    70    1
    89    41    43    1
    90    41    40    1
    91    18    17    1
    92    18    19    2
    93    57    55   ar
    94    97    98    2
    95    97    96    1
    96    17    16    1
    97    53    50    1
    98    50    51    1
    99    50    49    1
   100    40    37    1
   101    71    70    2
   102    70    76   am
   103    51    52    2
   104    96    99    1
   105    96    95    1
   106    81    80    1
   107    99   100    1
   108    12    11    2
   109    76    77    1
   110    16    11   am
   111   101   100    1
   112    82    80    1
   113   102   100    1
   114    11    10    1
   115    37    36    1
   116    37    38    1
   117    80    77    1
   118    36    32   am
   119    35    34    1
   120    77    78    1
   121    38    44   am
   122    38    39    2
   123    44    45    1
   124    48    45    1
   125    45    46    1
   126    34    31    1
   127    94    93    1
   128    10     9    1
   129    10    13    1
   130    14    13    1
   131    32    31    1
   132    32    33    2
   133    31    30    1
   134    92    93   ar
   135    92    90   ar
   136    93    91   ar
   137    78    79    2
   138    15    13    1
   139    90    88   ar
   140     8     6    1
   141    91    89   ar
   142    46    47    2
   143    88    89   ar
   144    88    87    1
   145     6     5    1
   146    87    84    1
   147     5     7    1
   148     5     2    1
   149    84    83    1
   150    84    85    1
   151    85    86    2
   152     4     3    2
   153     3     2    1
   154     1     2    1
