@<TRIPOS>MOLECULE
tmp/3fcqA00.pdb
 145 140 0 0 0
SMALL
GASTEIGER

@<TRIPOS>ATOM
      1  N         32.3800   33.5860    1.3080 N.3   111  ASN111     -0.1225
      2  CA        33.5170   34.4400    1.6050 C.3   111  ASN111      0.1785
      3  C         33.7420   35.5130    0.5590 C.2   111  ASN111      0.2597
      4  O         34.8990   35.8260    0.2790 O.2   111  ASN111     -0.2718
      5  CB        34.8140   33.6010    1.7090 C.3   111  ASN111      0.1169
      6  CG        34.8400   32.8050    2.9970 C.2   111  ASN111      0.2627
      7  OD1       34.5260   33.3020    4.0860 O.2   111  ASN111     -0.2716
      8  ND2       35.2250   31.5350    2.8980 N.am  111  ASN111     -0.0877
      9  N         32.7020   36.0890   -0.0390 N.am  112  ASN112     -0.1960
     10  CA        32.9320   37.1230   -1.0390 C.3   112  ASN112      0.1819
     11  C         31.9070   38.2500   -0.9230 C.2   112  ASN112      0.2621
     12  O         30.9000   38.1060   -0.2250 O.2   112  ASN112     -0.2715
     13  CB        32.8110   36.5640   -2.4550 C.3   112  ASN112      0.1195
     14  CG        33.6150   35.3120   -2.7300 C.2   112  ASN112      0.2630
     15  OD1       34.8220   35.3970   -2.9640 O.2   112  ASN112     -0.2716
     16  ND2       32.9620   34.1530   -2.7040 N.am  112  ASN112     -0.0877
     17  N         32.1760   39.3270   -1.6460 N.am  113  ALA113     -0.1963
     18  CA        31.2180   40.4080   -1.8730 C.3   113  ALA113      0.1728
     19  C         31.3490   40.8390   -3.3330 C.2   113  ALA113      0.2616
     20  O         32.4330   40.6750   -3.9120 O.2   113  ALA113     -0.2715
     21  CB        31.4150   41.5770   -0.9370 C.3   113  ALA113      0.0334
     22  N         30.2870   41.3560   -3.9430 N.am  114  PHE114     -0.1974
     23  CA        30.3910   41.6980   -5.3650 C.3   114  PHE114      0.1639
     24  C         29.2980   42.6720   -5.7920 C.2   114  PHE114      0.2290
     25  O         28.3220   42.9500   -5.0900 O.2   114  PHE114     -0.2864
     26  CB        30.3460   40.4120   -6.1840 C.3   114  PHE114      0.0560
     27  CG        29.1270   39.5220   -6.0670 C.ar  114  PHE114     -0.0200
     28  CD1       29.0040   38.5840   -5.0480 C.ar  114  PHE114     -0.0042
     29  CD2       28.1080   39.6180   -7.0040 C.ar  114  PHE114     -0.0042
     30  CE1       27.8970   37.7490   -4.9620 C.ar  114  PHE114     -0.0003
     31  CE2       26.9990   38.7980   -6.9160 C.ar  114  PHE114     -0.0003
     32  CZ        26.8880   37.8620   -5.9000 C.ar  114  PHE114     -0.0000
     33  N         36.5200   34.9320    6.7090 N.3   130  PHE130     -0.1241
     34  CA        35.8460   36.2140    6.7810 C.3   130  PHE130      0.1605
     35  C         34.6860   36.1890    7.7800 C.2   130  PHE130      0.2264
     36  O         34.0810   35.1300    7.9360 O.2   130  PHE130     -0.2867
     37  CB        35.1960   36.5780    5.4560 C.3   130  PHE130      0.0534
     38  CG        36.0640   37.2590    4.4220 C.ar  130  PHE130     -0.0203
     39  CD1       36.4810   38.5610    4.6300 C.ar  130  PHE130     -0.0042
     40  CD2       36.4230   36.5780    3.2670 C.ar  130  PHE130     -0.0042
     41  CE1       37.2700   39.1980    3.6900 C.ar  130  PHE130     -0.0003
     42  CE2       37.2330   37.2110    2.3270 C.ar  130  PHE130     -0.0003
     43  CZ        37.6340   38.5030    2.5640 C.ar  130  PHE130     -0.0000
     44  N         30.9940   40.5520    5.2260 N.3   133  LEU133     -0.1245
     45  CA        31.9320   41.4190    4.5280 C.3   133  LEU133      0.1561
     46  C         31.5340   42.8820    4.5330 C.2   133  LEU133      0.2260
     47  O         32.3890   43.7530    4.3100 O.2   133  LEU133     -0.2867
     48  CB        32.1090   40.9330    3.0720 C.3   133  LEU133      0.0270
     49  CG        33.1150   39.7670    2.9670 C.3   133  LEU133      0.0019
     50  CD1       32.4210   38.4560    3.2890 C.3   133  LEU133      0.0001
     51  CD2       33.7800   39.6930    1.6120 C.3   133  LEU133      0.0001
     52  N         35.5600   47.5090    1.7420 N.3   139  VAL139     -0.1245
     53  CA        34.8740   46.5210    0.9160 C.3   139  VAL139      0.1561
     54  C         33.5810   47.0910    0.3450 C.2   139  VAL139      0.2260
     55  O         33.3190   46.9680   -0.8630 O.2   139  VAL139     -0.2867
     56  CB        34.5260   45.2530    1.7270 C.3   139  VAL139      0.0252
     57  CG1       33.6770   44.3080    0.8880 C.3   139  VAL139      0.0019
     58  CG2       35.7880   44.5570    2.2270 C.3   139  VAL139      0.0019
     59  N         34.5240   49.5730   -2.2550 N.3   142  HIS142     -0.1226
     60  CA        35.0840   48.8480   -3.4070 C.3   142  HIS142      0.1752
     61  C         33.9590   48.4010   -4.3320 C.2   142  HIS142      0.2595
     62  O         33.9990   48.5540   -5.5590 O.2   142  HIS142     -0.2718
     63  CB        35.9080   47.6500   -2.9210 C.3   142  HIS142      0.0759
     64  CG        36.4750   46.7110   -3.9520 C.ar  142  HIS142      0.0818
     65  ND1       37.8310   46.6270   -4.1910 N.ar  142  HIS142     -0.2268
     66  CD2       35.9240   45.8050   -4.7930 C.ar  142  HIS142      0.1154
     67  CE1       38.0740   45.7310   -5.1360 C.ar  142  HIS142      0.1986
     68  NE2       36.9220   45.2070   -5.5270 N.ar  142  HIS142     -0.2212
     69  N         32.9500   47.7980   -3.7010 N.am  143  GLU143     -0.1979
     70  CA        31.8330   47.2670   -4.4790 C.3   143  GLU143      0.1602
     71  C         31.0630   48.3970   -5.1600 C.2   143  GLU143      0.2287
     72  O         30.7490   48.2940   -6.3500 O.2   143  GLU143     -0.2864
     73  CB        30.8890   46.4340   -3.6150 C.3   143  GLU143      0.0415
     74  CG        31.5170   45.2650   -2.8620 C.3   143  GLU143      0.1163
     75  CD        32.3750   44.3680   -3.7360 C.2   143  GLU143      0.3649
     76  OE1       32.2470   44.3340   -4.9740 O.co2 143  GLU143     -0.2457
     77  OE2       33.2170   43.6670   -3.1300 O.co2 143  GLU143     -0.2457
     78  N         32.6610   49.5740   -8.2140 N.3   146  HIS146     -0.1241
     79  CA        32.5340   48.7410   -9.4130 C.3   146  HIS146      0.1621
     80  C         31.3640   49.2530  -10.2590 C.2   146  HIS146      0.2264
     81  O         31.3950   49.2580  -11.4880 O.2   146  HIS146     -0.2867
     82  CB        32.3170   47.2720   -9.0890 C.3   146  HIS146      0.0745
     83  CG        33.5740   46.4720   -8.8650 C.ar  146  HIS146      0.0817
     84  ND1       34.6500   46.4980   -9.7140 N.ar  146  HIS146     -0.2268
     85  CD2       33.9120   45.6150   -7.8710 C.ar  146  HIS146      0.1154
     86  CE1       35.6170   45.6950   -9.2670 C.ar  146  HIS146      0.1986
     87  NE2       35.1780   45.1440   -8.1500 N.ar  146  HIS146     -0.2212
     88  N         36.2630   43.2480  -17.4420 N.3   157  TYR157     -0.1241
     89  CA        36.7800   42.5840  -16.2380 C.3   157  TYR157      0.1605
     90  C         37.6970   41.4300  -16.5800 C.2   157  TYR157      0.2264
     91  O         37.4840   40.2810  -16.1770 O.2   157  TYR157     -0.2867
     92  CB        35.6060   42.0990  -15.3810 C.3   157  TYR157      0.0534
     93  CG        35.9590   41.9430  -13.9100 C.ar  157  TYR157     -0.0201
     94  CD1       36.3670   43.0500  -13.1830 C.ar  157  TYR157     -0.0009
     95  CD2       35.8770   40.7020  -13.2770 C.ar  157  TYR157     -0.0009
     96  CE1       36.6940   42.9410  -11.8380 C.ar  157  TYR157      0.0417
     97  CE2       36.2020   40.5900  -11.9270 C.ar  157  TYR157      0.0417
     98  CZ        36.6070   41.7060  -11.2230 C.ar  157  TYR157      0.1957
     99  OH        36.9410   41.6360   -9.8810 O.3   157  TYR157     -0.2866
    100  N         39.7760   46.5670  -10.8940 N.3   166  GLU166     -0.1245
    101  CA        39.9860   46.1860   -9.4980 C.3   166  GLU166      0.1567
    102  C         40.7450   47.2420   -8.7080 C.2   166  GLU166      0.2260
    103  O         40.3930   47.5860   -7.5770 O.2   166  GLU166     -0.2867
    104  CB        40.7500   44.8630   -9.4570 C.3   166  GLU166      0.0388
    105  CG        39.8390   43.6410   -9.4040 C.3   166  GLU166      0.1160
    106  CD        38.9250   43.6720   -8.1820 C.2   166  GLU166      0.3649
    107  OE1       39.4480   43.8100   -7.0510 O.co2 166  GLU166     -0.2457
    108  OE2       37.6980   43.5410   -8.3970 O.co2 166  GLU166     -0.2457
    109  N         43.3360   46.3380    2.3460 N.3   188  ILE188     -0.1245
    110  CA        41.9730   46.0840    1.8820 C.3   188  ILE188      0.1561
    111  C         41.3540   44.9510    2.6950 C.2   188  ILE188      0.2260
    112  O         41.9070   43.8390    2.6870 O.2   188  ILE188     -0.2867
    113  CB        41.9010   45.6770    0.3950 C.3   188  ILE188      0.0252
    114  CG1       42.5680   46.6690   -0.5570 C.3   188  ILE188      0.0019
    115  CG2       40.4520   45.3810    0.0040 C.3   188  ILE188      0.0019
    116  CD1       41.8930   48.0280   -0.6330 C.3   188  ILE188      0.0001
    117  N         43.3330   41.2600    2.9880 N.3   202  LEU202     -0.1231
    118  CA        43.1340   40.5960    1.7110 C.3   202  LEU202      0.1693
    119  C         44.2180   40.9900    0.7130 C.2   202  LEU202      0.2591
    120  O         44.8090   40.1900   -0.0270 O.2   202  LEU202     -0.2718
    121  CB        41.7510   40.9840    1.1920 C.3   202  LEU202      0.0284
    122  CG        41.0640   40.1170    0.1420 C.3   202  LEU202      0.0019
    123  CD1       41.2130   38.6380    0.4380 C.3   202  LEU202      0.0001
    124  CD2       39.5940   40.5150    0.0240 C.3   202  LEU202      0.0001
    125  N         44.4480   42.3010    0.6680 N.am  203  ARG203     -0.1980
    126  CA        45.4690   42.8860   -0.1820 C.3   203  ARG203      0.1597
    127  C         46.1210   44.0730    0.5180 C.2   203  ARG203      0.2287
    128  O         45.4920   44.6530    1.3980 O.2   203  ARG203     -0.2864
    129  CB        44.8650   43.4080   -1.4920 C.3   203  ARG203      0.0334
    130  CG        44.4080   42.3130   -2.4430 C.3   203  ARG203      0.0492
    131  CD        43.9120   42.9380   -3.7450 C.3   203  ARG203      0.2205
    132  NE        42.6260   43.6220   -3.6040 N.pl3 203  ARG203     -0.0865
    133  CZ        41.4640   42.9980   -3.5090 C.cat 203  ARG203      0.5346
    134  NH1       41.4270   41.6720   -3.5220 N.pl3 203  ARG203      0.1354
    135  NH2       40.3480   43.7190   -3.4010 N.pl3 203  ARG203      0.1354
    136  N         42.7120   40.3410   -9.6180 N.3   231  HIS231     -0.1241
    137  CA        42.9220   40.6710   -8.2160 C.3   231  HIS231      0.1621
    138  C         44.3990   40.5710   -7.8020 C.2   231  HIS231      0.2264
    139  O         44.7060   40.7670   -6.6320 O.2   231  HIS231     -0.2867
    140  CB        42.1230   39.7410   -7.2910 C.3   231  HIS231      0.0745
    141  CG        40.6450   39.9520   -7.3470 C.ar  231  HIS231      0.0817
    142  ND1       39.8060   39.1740   -8.1150 N.ar  231  HIS231     -0.2268
    143  CD2       39.8520   40.8660   -6.7280 C.ar  231  HIS231      0.1154
    144  CE1       38.5480   39.5980   -7.9780 C.ar  231  HIS231      0.1986
    145  NE2       38.5630   40.6190   -7.1370 N.ar  231  HIS231     -0.2212
@<TRIPOS>BOND
     1    88    89    1
     2    90    89    1
     3    90    91    2
     4    89    92    1
     5    92    93    1
     6    93    95   ar
     7    93    94   ar
     8    95    97   ar
     9    94    96   ar
    10    97    98   ar
    11    96    98   ar
    12    81    80    2
    13    98    99    1
    14   100   101    1
    15    80    79    1
    16    84    86   ar
    17    84    83   ar
    18   136   137    1
    19   101   104    1
    20   101   102    1
    21   104   105    1
    22    79    82    1
    23    79    78    1
    24   105   106    1
    25    86    87   ar
    26    82    83    1
    27    83    85   ar
    28   102   103    2
    29   108   106   ar
    30   137   138    1
    31   137   140    1
    32   106   107   ar
    33    87    85   ar
    34   142   144   ar
    35   142   141   ar
    36   144   145   ar
    37   138   139    2
    38   141   140    1
    39   141   143   ar
    40   145   143   ar
    41    29    31   ar
    42    29    27   ar
    43    31    32   ar
    44    72    71    2
    45    26    27    1
    46    26    23    1
    47    27    28   ar
    48    32    30   ar
    49    24    23    1
    50    24    25    2
    51    62    61    2
    52    68    67   ar
    53    68    66   ar
    54    23    22    1
    55    71    70    1
    56    67    65   ar
    57    28    30   ar
    58    76    75   ar
    59    66    64   ar
    60    70    69    1
    61    70    73    1
    62    61    69   am
    63    61    60    1
    64    65    64   ar
    65    64    63    1
    66    22    19   am
    67    20    19    2
    68   131   132    1
    69   131   130    1
    70    75    77   ar
    71    75    74    1
    72    73    74    1
    73   132   133    2
    74   134   133    1
    75   133   135    1
    76    60    63    1
    77    60    59    1
    78    19    18    1
    79    15    14    2
    80    14    16   am
    81    14    13    1
    82    13    10    1
    83   130   129    1
    84    18    17    1
    85    18    21    1
    86    17    11   am
    87   129   126    1
    88    10    11    1
    89    10     9    1
    90    11    12    2
    91    55    54    2
    92   116   114    1
    93   114   113    1
    94   126   127    1
    95   126   125    1
    96     9     3   am
    97   120   119    2
    98   115   113    1
    99   124   122    1
   100   122   123    1
   101   122   121    1
   102     4     3    2
   103    54    53    1
   104   113   110    1
   105   127   128    2
   106     3     2    1
   107   125   119   am
   108   119   118    1
   109    57    56    1
   110    53    56    1
   111    53    52    1
   112   121   118    1
   113     1     2    1
   114     2     5    1
   115    51    49    1
   116     5     6    1
   117   118   117    1
   118    56    58    1
   119   110   109    1
   120   110   111    1
   121    42    43   ar
   122    42    40   ar
   123    43    41   ar
   124   112   111    2
   125     8     6   am
   126    49    48    1
   127    49    50    1
   128     6     7    2
   129    48    45    1
   130    40    38   ar
   131    41    39   ar
   132    47    46    2
   133    38    39   ar
   134    38    37    1
   135    45    46    1
   136    45    44    1
   137    37    34    1
   138    33    34    1
   139    34    35    1
   140    35    36    2
