@<TRIPOS>MOLECULE
tmp/3fcrA00.pdb
 126 120 0 0 0
SMALL
GASTEIGER

@<TRIPOS>ATOM
      1  N         14.2040   55.8190    6.2850 N.3    58  LEU58      -0.1231
      2  CA        14.2030   57.2510    6.6340 C.3    58  LEU58       0.1693
      3  C         13.4500   57.3800    7.9330 C.2    58  LEU58       0.2592
      4  O         12.2950   57.8120    7.9760 O.2    58  LEU58      -0.2718
      5  CB        13.5530   58.1100    5.5680 C.3    58  LEU58       0.0284
      6  CG        14.2900   58.3070    4.2520 C.3    58  LEU58       0.0019
      7  CD1       13.3090   58.9300    3.2280 C.3    58  LEU58       0.0001
      8  CD2       15.5880   59.1830    4.3960 C.3    58  LEU58       0.0001
      9  N         14.1110   56.9840    8.9980 N.am   59  TYR59      -0.1976
     10  CA        13.5480   56.9770   10.3510 C.3    59  TYR59       0.1639
     11  C         12.2250   56.2290   10.3530 C.2    59  TYR59       0.2290
     12  O         11.3380   56.5590   11.1660 O.2    59  TYR59      -0.2864
     13  CB        13.1780   58.3870   10.9280 C.3    59  TYR59       0.0560
     14  CG        14.0470   59.5430   10.6570 C.ar   59  TYR59      -0.0198
     15  CD1       13.9320   60.2380    9.4490 C.ar   59  TYR59      -0.0009
     16  CD2       14.9490   60.0100   11.6180 C.ar   59  TYR59      -0.0009
     17  CE1       14.7190   61.3270    9.1770 C.ar   59  TYR59       0.0417
     18  CE2       15.7480   61.1280   11.3570 C.ar   59  TYR59       0.0417
     19  CZ        15.6310   61.7630   10.1200 C.ar   59  TYR59       0.1957
     20  OH        16.3910   62.8580    9.7780 O.3    59  TYR59      -0.2866
     21  N          0.9590   60.4410    3.8540 N.3   116  GLY116     -0.1210
     22  CA         2.2940   60.7730    4.3540 C.3   116  GLY116      0.1956
     23  C          2.2780   61.9210    5.3440 C.2   116  GLY116      0.2612
     24  O          1.2460   62.5810    5.5510 O.2   116  GLY116     -0.2717
     25  N          3.4260   62.1580    5.9700 N.am  117  GLY117     -0.1942
     26  CA         3.5880   63.2260    6.9430 C.3   117  GLY117      0.2014
     27  C          3.2800   64.6040    6.3800 C.2   117  GLY117      0.2639
     28  O          2.7320   65.4190    7.0520 O.2   117  GLY117     -0.2714
     29  N          3.6780   64.8940    5.1460 N.am  118  SER118     -0.1949
     30  CA         3.3910   66.1980    4.5580 C.3   118  SER118      0.1924
     31  C          1.9060   66.4710    4.3850 C.2   118  SER118      0.2314
     32  O          1.4520   67.5890    4.6550 O.2   118  SER118     -0.2863
     33  CB         4.0460   66.3410    3.1690 C.3   118  SER118      0.2116
     34  OG         5.4570   66.3560    3.2900 O.3   118  SER118     -0.2180
     35  N          0.3270   67.2200    7.8540 N.3   121  ASN121     -0.1240
     36  CA         0.5530   68.6170    8.2650 C.3   121  ASN121      0.1653
     37  C         -0.2660   69.6100    7.3900 C.2   121  ASN121      0.2266
     38  O         -0.7130   70.6620    7.8600 O.2   121  ASN121     -0.2867
     39  CB         2.0420   68.9610    8.2660 C.3   121  ASN121      0.1155
     40  CG         2.7670   68.4310    9.4620 C.2   121  ASN121      0.2627
     41  OD1        2.2260   68.3970   10.5950 O.2   121  ASN121     -0.2716
     42  ND2        4.0130   68.0270    9.2480 N.am  121  ASN121     -0.0877
     43  N         11.5820   70.2930   10.3640 N.3   150  TYR150     -0.1227
     44  CA        11.2160   69.5760    9.1550 C.3   150  TYR150      0.1736
     45  C          9.7670   69.0970    9.3370 C.2   150  TYR150      0.2595
     46  O          9.4800   68.3050   10.2340 O.2   150  TYR150     -0.2718
     47  CB        12.1330   68.3710    8.8300 C.3   150  TYR150      0.0548
     48  CG        11.7710   67.8620    7.4820 C.ar  150  TYR150     -0.0200
     49  CD1       12.1710   68.5470    6.3630 C.ar  150  TYR150     -0.0009
     50  CD2       10.9100   66.7520    7.3100 C.ar  150  TYR150     -0.0009
     51  CE1       11.7760   68.1300    5.1160 C.ar  150  TYR150      0.0417
     52  CE2       10.5310   66.3270    6.0330 C.ar  150  TYR150      0.0417
     53  CZ        10.9460   67.0280    4.9570 C.ar  150  TYR150      0.1957
     54  OH        10.6080   66.6390    3.6800 O.3   150  TYR150     -0.2866
     55  N          8.8990   69.5590    8.4410 N.am  151  HIS151     -0.1961
     56  CA         7.4470   69.3170    8.4960 C.3   151  HIS151      0.1787
     57  C          6.8280   68.9040    7.1710 C.2   151  HIS151      0.2621
     58  O          5.5810   68.7550    7.0690 O.2   151  HIS151     -0.2715
     59  CB         6.7510   70.5600    9.1020 C.3   151  HIS151      0.0785
     60  CG         7.3070   70.9420   10.4300 C.ar  151  HIS151      0.0821
     61  ND1        7.1180   70.1800   11.5680 N.ar  151  HIS151     -0.2267
     62  CD2        8.0780   71.9870   10.8100 C.ar  151  HIS151      0.1154
     63  CE1        7.7520   70.7300   12.5800 C.ar  151  HIS151      0.1986
     64  NE2        8.3200   71.8430   12.1560 N.ar  151  HIS151     -0.2212
     65  N          7.7080   68.6650    6.1940 N.am  152  GLY152     -0.1940
     66  CA         7.3290   68.2390    4.8780 C.3   152  GLY152      0.2014
     67  C          7.9920   68.9640    3.7510 C.2   152  GLY152      0.2639
     68  O          8.7400   69.9510    3.9560 O.2   152  GLY152     -0.2714
     69  N          7.6170   68.5040    2.5620 N.am  153  SER153     -0.1949
     70  CA         8.2170   68.9280    1.3180 C.3   153  SER153      0.1924
     71  C          7.2430   69.5600    0.3100 C.2   153  SER153      0.2314
     72  O          7.5440   69.6430   -0.8920 O.2   153  SER153     -0.2863
     73  CB         8.9200   67.7110    0.6930 C.3   153  SER153      0.2116
     74  OG         9.7070   68.0610   -0.4230 O.3   153  SER153     -0.2180
     75  N          8.4800   69.6150   16.2720 N.3   224  GLU224     -0.1245
     76  CA         8.8790   68.2180   16.5240 C.3   224  GLU224      0.1567
     77  C          9.3600   68.2350   17.9800 C.2   224  GLU224      0.2260
     78  O         10.0110   69.2040   18.3690 O.2   224  GLU224     -0.2867
     79  CB        10.0650   67.8010   15.6630 C.3   224  GLU224      0.0388
     80  CG         9.8180   67.7550   14.2110 C.3   224  GLU224      0.1160
     81  CD        11.1050   67.9270   13.3770 C.2   224  GLU224      0.3649
     82  OE1       11.5190   69.0970   13.1510 O.co2 224  GLU224     -0.2457
     83  OE2       11.6710   66.9000   12.9240 O.co2 224  GLU224     -0.2457
     84  N         15.2970   65.7200   10.9550 N.3   229  THR229     -0.1218
     85  CA        16.0670   66.1150    9.7690 C.3   229  THR229      0.1862
     86  C         16.9390   67.3590    9.9710 C.2   229  THR229      0.2287
     87  O         18.0070   67.4790    9.3170 O.2   229  THR229     -0.2866
     88  CB        15.1910   66.1850    8.5120 C.3   229  THR229      0.1770
     89  OG1       14.7120   64.8600    8.2560 O.3   229  THR229     -0.2211
     90  CG2       15.9720   66.6620    7.2830 C.3   229  THR229      0.0375
     91  N          4.5290   67.6450   15.9570 N.3   257  ASP257     -0.1239
     92  CA         4.8290   66.8810   14.7500 C.3   257  ASP257      0.1674
     93  C          5.6050   65.6410   15.2150 C.2   257  ASP257      0.2266
     94  O          6.8220   65.6910   15.4340 O.2   257  ASP257     -0.2867
     95  CB         5.5980   67.6820   13.6730 C.3   257  ASP257      0.1410
     96  CG         5.7910   66.9040   12.3780 C.2   257  ASP257      0.3668
     97  OD1        5.6850   65.6690   12.4200 O.co2 257  ASP257     -0.2456
     98  OD2        6.0330   67.5110   11.2740 O.co2 257  ASP257     -0.2456
     99  N          5.9340   62.7350   13.5050 N.3   259  VAL259     -0.1231
    100  CA         6.1570   61.8380   12.3740 C.3   259  VAL259      0.1692
    101  C          7.3630   60.8710   12.5960 C.2   259  VAL259      0.2591
    102  O          7.3280   59.7150   12.1750 O.2   259  VAL259     -0.2718
    103  CB         6.3000   62.6230   11.0500 C.3   259  VAL259      0.0266
    104  CG1        6.8550   61.7400    9.9330 C.3   259  VAL259      0.0020
    105  CG2        4.9470   63.2380   10.6090 C.3   259  VAL259      0.0020
    106  N          8.4190   61.3700   13.2520 N.am  260  VAL260     -0.1980
    107  CA         9.5740   60.5560   13.5850 C.3   260  VAL260      0.1595
    108  C          9.4300   59.9030   14.9660 C.2   260  VAL260      0.2287
    109  O          9.7130   58.7190   15.1390 O.2   260  VAL260     -0.2864
    110  CB        10.8800   61.3780   13.5330 C.3   260  VAL260      0.0276
    111  CG1       12.0170   60.6500   14.3230 C.3   260  VAL260      0.0022
    112  CG2       11.2730   61.6940   12.0560 C.3   260  VAL260      0.0022
    113  N          2.9650   59.3700   11.0710 N.3   284  ALA284     -0.1231
    114  CA         3.2910   58.6920    9.7740 C.3   284  ALA284      0.1694
    115  C          4.4660   57.7280   10.0570 C.2   284  ALA284      0.2591
    116  O          4.5750   57.2790   11.1820 O.2   284  ALA284     -0.2718
    117  CB         3.6620   59.6950    8.6460 C.3   284  ALA284      0.0304
    118  N          5.2940   57.3980    9.0410 N.am  285  LYS285     -0.1980
    119  CA         6.4970   56.5270    9.2060 C.3   285  LYS285      0.1596
    120  C          6.2790   55.2600   10.0750 C.2   285  LYS285      0.2287
    121  O          5.8950   54.1980    9.5460 O.2   285  LYS285     -0.2864
    122  CB         7.6810   57.3420    9.7930 C.3   285  LYS285      0.0298
    123  CG         8.2470   58.4330    8.8900 C.3   285  LYS285      0.0038
    124  CD         9.4170   59.2010    9.5640 C.3   285  LYS285      0.0206
    125  CE         9.9410   60.3220    8.6740 C.3   285  LYS285      0.1093
    126  NZ        10.4570   59.8300    7.3800 N.3   285  LYS285     -0.1314
@<TRIPOS>BOND
     1    72    71    2
     2    74    73    1
     3    71    70    1
     4    73    70    1
     5    70    69    1
     6    69    67   am
     7    33    34    1
     8    33    30    1
     9     7     6    1
    10    54    53    1
    11    67    68    2
    12    67    66    1
    13    21    22    1
    14     6     8    1
    15     6     5    1
    16    22    23    1
    17    31    30    1
    18    31    32    2
    19    30    29    1
    20    66    65    1
    21    53    51   ar
    22    53    52   ar
    23    51    49   ar
    24    29    27   am
    25    23    24    2
    26    23    25   am
    27     5     2    1
    28    25    26    1
    29    52    50   ar
    30    65    57   am
    31     1     2    1
    32    49    48   ar
    33    27    26    1
    34    27    28    2
    35     2     3    1
    36    58    57    2
    37    57    56    1
    38    90    88    1
    39    50    48   ar
    40   126   125    1
    41    37    38    2
    42    37    36    1
    43    48    47    1
    44    35    36    1
    45     3     4    2
    46     3     9   am
    47    89    88    1
    48    36    39    1
    49    39    40    1
    50    55    56    1
    51    55    45   am
    52    56    59    1
    53    88    85    1
    54   117   114    1
    55   125   124    1
    56    47    44    1
    57   123   124    1
    58   123   122    1
    59     9    10    1
    60   118   119    1
    61   118   115   am
    62    59    60    1
    63    44    45    1
    64    44    43    1
    65    17    15   ar
    66    17    19   ar
    67   119   122    1
    68   119   120    1
    69    42    40   am
    70    87    86    2
    71    45    46    2
    72    15    14   ar
    73    40    41    2
    74   121   120    2
    75    85    86    1
    76    85    84    1
    77   114   115    1
    78   114   113    1
    79    20    19    1
    80   104   103    1
    81   115   116    2
    82    19    18   ar
    83    10    11    1
    84    10    13    1
    85    11    12    2
    86    60    62   ar
    87    60    61   ar
    88   105   103    1
    89    14    13    1
    90    14    16   ar
    91    62    64   ar
    92   103   100    1
    93    98    96   ar
    94    18    16   ar
    95    61    63   ar
    96   112   110    1
    97    64    63   ar
    98   102   101    2
    99   100   101    1
   100   100    99    1
   101    96    97   ar
   102    96    95    1
   103   101   106   am
   104    83    81   ar
   105    82    81   ar
   106   106   107    1
   107    81    80    1
   108   110   107    1
   109   110   111    1
   110   107   108    1
   111    95    92    1
   112    80    79    1
   113    92    93    1
   114    92    91    1
   115   108   109    2
   116    93    94    2
   117    79    76    1
   118    75    76    1
   119    76    77    1
   120    77    78    2
