@<TRIPOS>MOLECULE
tmp/3fd3A00.pdb
 101 95 0 0 0
SMALL
GASTEIGER

@<TRIPOS>ATOM
      1  N         12.9810   29.8960   23.8630 N.3     1  ARG1       -0.1231
      2  CA        13.5850   28.5460   23.6980 C.3     1  ARG1        0.1694
      3  C         15.0670   28.6770   23.3160 C.2     1  ARG1        0.2592
      4  O         15.4710   29.6680   22.7160 O.2     1  ARG1       -0.2718
      5  CB        12.8140   27.7530   22.6200 C.3     1  ARG1        0.0321
      6  CG        11.3400   27.4650   22.9640 C.3     1  ARG1        0.0489
      7  CD        10.4470   27.4970   21.7050 C.3     1  ARG1        0.2205
      8  NE         9.0660   27.0470   21.9260 N.pl3   1  ARG1       -0.0865
      9  CZ         8.7400   25.7890   22.2050 C.cat   1  ARG1        0.5346
     10  NH1        7.4700   25.4350   22.3650 N.pl3   1  ARG1        0.1354
     11  NH2        9.6960   24.8730   22.3120 N.pl3   1  ARG1        0.1354
     12  N         15.8700   27.6800   23.6710 N.am    2  VAL2       -0.1966
     13  CA        17.2720   27.6190   23.2470 C.3     2  VAL2        0.1727
     14  C         17.3420   26.8530   21.9160 C.2     2  VAL2        0.2617
     15  O         16.7170   25.8000   21.7760 O.2     2  VAL2       -0.2715
     16  CB        18.1370   26.9370   24.3130 C.3     2  VAL2        0.0290
     17  CG1       19.5420   26.6630   23.7920 C.3     2  VAL2        0.0023
     18  CG2       18.1660   27.8290   25.6080 C.3     2  VAL2        0.0023
     19  N         18.0990   27.3730   20.9600 N.am    3  THR3       -0.1937
     20  CA        18.2930   26.6830   19.6870 C.3     3  THR3        0.2028
     21  C         19.6380   25.9570   19.6470 C.2     3  THR3        0.2642
     22  O         20.6710   26.5710   19.9230 O.2     3  THR3       -0.2714
     23  CB        18.2010   27.6430   18.5160 C.3     3  THR3        0.1808
     24  OG1       16.8840   28.2110   18.4970 O.3     3  THR3       -0.2208
     25  CG2       18.4760   26.9060   17.1790 C.3     3  THR3        0.0379
     26  N         19.5980   24.6630   19.3160 N.am    4  LEU4       -0.1977
     27  CA        20.7730   23.8000   19.2240 C.3     4  LEU4        0.1596
     28  C         21.1990   23.6610   17.7790 C.2     4  LEU4        0.2287
     29  O         20.4140   23.1860   16.9480 O.2     4  LEU4       -0.2864
     30  CB        20.4500   22.4050   19.7690 C.3     4  LEU4        0.0297
     31  CG        19.9290   22.3160   21.1990 C.3     4  LEU4        0.0022
     32  CD1       19.7530   20.8690   21.5850 C.3     4  LEU4        0.0001
     33  CD2       20.9260   23.0360   22.1360 C.3     4  LEU4        0.0001
     34  N         13.8290   22.4870   23.5060 N.3    30  TYR30      -0.1241
     35  CA        14.8290   22.9340   22.5610 C.3    30  TYR30       0.1605
     36  C         14.2900   23.0520   21.1490 C.2    30  TYR30       0.2264
     37  O         13.4150   22.2870   20.7160 O.2    30  TYR30      -0.2867
     38  CB        16.0130   21.9750   22.5410 C.3    30  TYR30       0.0534
     39  CG        16.8350   22.0200   23.7960 C.ar   30  TYR30      -0.0201
     40  CD1       17.7420   23.0550   24.0080 C.ar   30  TYR30      -0.0009
     41  CD2       16.7580   21.0060   24.7400 C.ar   30  TYR30      -0.0009
     42  CE1       18.5360   23.0990   25.1510 C.ar   30  TYR30       0.0417
     43  CE2       17.5700   21.0320   25.8870 C.ar   30  TYR30       0.0417
     44  CZ        18.4560   22.0870   26.0740 C.ar   30  TYR30       0.1957
     45  OH        19.2630   22.1620   27.1980 O.3    30  TYR30      -0.2866
     46  N         35.1030   25.3740   15.2840 N.3    48  GLY48      -0.1210
     47  CA        34.7580   26.7900   15.4280 C.3    48  GLY48       0.1956
     48  C         33.5530   27.0610   16.3130 C.2    48  GLY48       0.2612
     49  O         33.1450   28.2100   16.4550 O.2    48  GLY48      -0.2717
     50  N         32.9730   26.0110   16.8910 N.am   49  GLY49      -0.1956
     51  CA        31.7490   26.1330   17.6850 C.3    49  GLY49       0.1869
     52  C         30.5160   26.5530   16.9060 C.2    49  GLY49       0.2309
     53  O         29.5410   27.0130   17.5020 O.2    49  GLY49      -0.2863
     54  N         27.2060   22.3350   17.7400 N.3    52  LEU52      -0.1245
     55  CA        27.5290   21.6700   19.0030 C.3    52  LEU52       0.1561
     56  C         27.6840   20.1640   18.8790 C.2    52  LEU52       0.2260
     57  O         28.2370   19.5220   19.7650 O.2    52  LEU52      -0.2867
     58  CB        26.4430   21.9560   20.0460 C.3    52  LEU52       0.0270
     59  CG        26.3430   23.4120   20.4450 C.3    52  LEU52       0.0019
     60  CD1       25.2390   23.6000   21.4970 C.3    52  LEU52       0.0001
     61  CD2       27.6910   23.8540   20.9890 C.3    52  LEU52       0.0001
     62  N         30.3620   18.5310   21.2550 N.3   179  ASN179     -0.1240
     63  CA        31.2000   19.4590   22.0170 C.3   179  ASN179      0.1653
     64  C         31.1840   19.0510   23.4880 C.2   179  ASN179      0.2266
     65  O         30.1170   18.9250   24.0920 O.2   179  ASN179     -0.2867
     66  CB        30.6380   20.8640   21.8430 C.3   179  ASN179      0.1155
     67  CG        31.4300   21.9100   22.5410 C.2   179  ASN179      0.2627
     68  OD1       31.6170   21.8550   23.7740 O.2   179  ASN179     -0.2716
     69  ND2       31.8890   22.9160   21.7800 N.am  179  ASN179     -0.0877
     70  N         31.7680   20.4980   26.2360 N.3   181  LEU181     -0.1231
     71  CA        31.1350   21.4450   27.1570 C.3   181  LEU181      0.1693
     72  C         29.6060   21.4210   27.1370 C.2   181  LEU181      0.2591
     73  O         28.9710   21.8660   28.1130 O.2   181  LEU181     -0.2718
     74  CB        31.6470   22.8640   26.8960 C.3   181  LEU181      0.0284
     75  CG        33.1600   23.0860   27.1020 C.3   181  LEU181      0.0019
     76  CD1       33.5670   24.5030   26.6860 C.3   181  LEU181      0.0001
     77  CD2       33.5610   22.8120   28.5330 C.3   181  LEU181      0.0001
     78  N         29.0440   20.8990   26.0520 N.am  182  ALA182     -0.1980
     79  CA        27.6000   20.7650   25.8820 C.3   182  ALA182      0.1597
     80  C         27.1320   19.3440   26.1590 C.2   182  ALA182      0.2287
     81  O         25.9230   19.1210   26.2670 O.2   182  ALA182     -0.2864
     82  CB        27.2160   21.1810   24.4550 C.3   182  ALA182      0.0319
     83  N         24.6180   18.3890   29.1650 N.3   185  ARG185     -0.1231
     84  CA        23.3810   19.0860   28.9010 C.3   185  ARG185      0.1694
     85  C         22.5690   18.3940   27.8200 C.2   185  ARG185      0.2591
     86  O         21.3550   18.2380   27.9730 O.2   185  ARG185     -0.2718
     87  CB        23.6780   20.5250   28.5070 C.3   185  ARG185      0.0321
     88  CG        23.9190   21.4130   29.7150 C.3   185  ARG185      0.0489
     89  CD        24.3600   22.7970   29.2950 C.3   185  ARG185      0.2205
     90  NE        25.7990   22.8980   29.0610 N.pl3 185  ARG185     -0.0865
     91  CZ        26.4180   24.0600   29.0790 C.cat 185  ARG185      0.5346
     92  NH1       27.7230   24.1450   28.8810 N.pl3 185  ARG185      0.1354
     93  NH2       25.7030   25.1500   29.3140 N.pl3 185  ARG185      0.1354
     94  N         23.2600   17.9340   26.7730 N.am  186  LEU186     -0.1980
     95  CA        22.6340   17.2810   25.6120 C.3   186  LEU186      0.1596
     96  C         22.6020   15.7580   25.7050 C.2   186  LEU186      0.2287
     97  O         22.3880   15.1030   24.7010 O.2   186  LEU186     -0.2864
     98  CB        23.3590   17.7010   24.3530 C.3   186  LEU186      0.0297
     99  CG        23.3160   19.2320   24.1310 C.3   186  LEU186      0.0022
    100  CD1       23.8050   19.4960   22.7630 C.3   186  LEU186      0.0001
    101  CD2       21.9030   19.8420   24.3990 C.3   186  LEU186      0.0001
@<TRIPOS>BOND
     1    46    47    1
     2    47    48    1
     3    48    49    2
     4    48    50   am
     5    50    51    1
     6    52    53    2
     7    52    51    1
     8    29    28    2
     9    25    23    1
    10    54    55    1
    11    28    27    1
    12    24    23    1
    13    23    20    1
    14    56    55    1
    15    56    57    2
    16    55    58    1
    17    27    26    1
    18    27    30    1
    19    26    21   am
    20    21    20    1
    21    21    22    2
    22    20    19    1
    23    30    31    1
    24    58    59    1
    25    59    61    1
    26    59    60    1
    27    37    36    2
    28    19    14   am
    29    36    35    1
    30    31    32    1
    31    31    33    1
    32    62    63    1
    33     7     8    1
    34     7     6    1
    35    15    14    2
    36    69    67   am
    37    66    63    1
    38    66    67    1
    39    14    13    1
    40     8     9    2
    41    63    64    1
    42     9    11    1
    43     9    10    1
    44    38    35    1
    45    38    39    1
    46    67    68    2
    47    35    34    1
    48     5     6    1
    49     5     2    1
    50     4     3    2
    51   100    99    1
    52    13    12    1
    53    13    16    1
    54     3    12   am
    55     3     2    1
    56    64    65    2
    57     2     1    1
    58    17    16    1
    59    39    40   ar
    60    39    41   ar
    61    40    42   ar
    62    99    98    1
    63    99   101    1
    64    16    18    1
    65    98    95    1
    66    82    79    1
    67    97    96    2
    68    41    43   ar
    69    42    44   ar
    70    95    96    1
    71    95    94    1
    72    79    78    1
    73    79    80    1
    74    43    44   ar
    75    78    72   am
    76    44    45    1
    77    80    81    2
    78    70    71    1
    79    76    75    1
    80    94    85   am
    81    74    75    1
    82    74    71    1
    83    75    77    1
    84    72    71    1
    85    72    73    2
    86    85    86    2
    87    85    84    1
    88    87    84    1
    89    87    88    1
    90    92    91    1
    91    84    83    1
    92    90    91    2
    93    90    89    1
    94    91    93    1
    95    89    88    1
