@<TRIPOS>MOLECULE
tmp/3fd5B01.pdb
 132 122 0 0 0
SMALL
GASTEIGER

@<TRIPOS>ATOM
      1  N         60.6770   20.3930   60.9320 N.3    27  LYS27      -0.1245
      2  CA        60.7230   21.8170   60.5490 C.3    27  LYS27       0.1561
      3  C         59.6210   22.1560   59.5500 C.2    27  LYS27       0.2260
      4  O         59.3350   21.3750   58.6400 O.2    27  LYS27      -0.2867
      5  CB        62.0810   22.2070   59.9410 C.3    27  LYS27       0.0271
      6  CG        63.2390   22.3030   60.9190 C.3    27  LYS27       0.0035
      7  CD        64.5280   22.7480   60.2340 C.3    27  LYS27       0.0206
      8  CE        64.4510   24.1800   59.7080 C.3    27  LYS27       0.1093
      9  NZ        65.6620   24.4830   58.8930 N.3    27  LYS27      -0.1314
     10  N         57.9210   28.0640   54.6510 N.3    33  LEU33      -0.1245
     11  CA        58.5420   29.0370   55.5380 C.3    33  LEU33       0.1561
     12  C         58.7670   30.3630   54.8360 C.2    33  LEU33       0.2260
     13  O         58.3730   31.4160   55.3350 O.2    33  LEU33      -0.2867
     14  CB        59.8680   28.5170   56.0800 C.3    33  LEU33       0.0270
     15  CG        60.4540   29.3360   57.2260 C.3    33  LEU33       0.0019
     16  CD1       59.6660   29.0600   58.5000 C.3    33  LEU33       0.0001
     17  CD2       61.9320   29.0340   57.4120 C.3    33  LEU33       0.0001
     18  N         56.9130   34.1900   56.0180 N.3    37  LEU37      -0.1245
     19  CA        57.7740   35.2470   56.5480 C.3    37  LEU37       0.1561
     20  C         57.9130   36.4610   55.6150 C.2    37  LEU37       0.2260
     21  O         58.8360   37.2620   55.7740 O.2    37  LEU37      -0.2867
     22  CB        59.1690   34.6840   56.8810 C.3    37  LEU37       0.0270
     23  CG        59.3030   33.4310   57.7700 C.3    37  LEU37       0.0019
     24  CD1       60.7700   32.9990   57.8980 C.3    37  LEU37       0.0001
     25  CD2       58.6850   33.6280   59.1490 C.3    37  LEU37       0.0001
     26  N         58.1710   40.2070   57.0640 N.3    40  LEU40      -0.1245
     27  CA        59.2940   40.5220   57.9700 C.3    40  LEU40       0.1561
     28  C         60.4510   41.2770   57.3180 C.2    40  LEU40       0.2260
     29  O         60.7600   41.0710   56.1500 O.2    40  LEU40      -0.2867
     30  CB        59.8230   39.2550   58.6570 C.3    40  LEU40       0.0270
     31  CG        58.9770   38.7430   59.8250 C.3    40  LEU40       0.0019
     32  CD1       57.6380   38.3960   59.2790 C.3    40  LEU40       0.0001
     33  CD2       59.5920   37.5350   60.5170 C.3    40  LEU40       0.0001
     34  N         70.1500   39.7940   57.3390 N.3    46  GLY46      -0.1210
     35  CA        68.8200   39.6710   57.8960 C.3    46  GLY46       0.1956
     36  C         68.3760   38.2570   57.6270 C.2    46  GLY46       0.2612
     37  O         69.2060   37.3780   57.3630 O.2    46  GLY46      -0.2717
     38  N         67.0710   38.0360   57.6710 N.am   47  ILE47      -0.1965
     39  CA        66.5180   36.7080   57.4610 C.3    47  ILE47       0.1727
     40  C         67.0770   36.0760   56.1910 C.2    47  ILE47       0.2617
     41  O         67.1840   36.7420   55.1520 O.2    47  ILE47      -0.2715
     42  CB        64.9850   36.7880   57.3250 C.3    47  ILE47       0.0290
     43  CG1       64.3570   37.2700   58.6400 C.3    47  ILE47       0.0022
     44  CG2       64.4290   35.4600   56.8740 C.3    47  ILE47       0.0023
     45  CD1       62.8910   37.5950   58.5330 C.3    47  ILE47       0.0001
     46  N         67.4320   34.7970   56.2630 N.am   48  GLY48      -0.1940
     47  CA        67.7730   34.0620   55.0570 C.3    48  GLY48       0.2014
     48  C         68.9800   33.1670   55.1910 C.2    48  GLY48       0.2639
     49  O         69.0800   32.1570   54.4890 O.2    48  GLY48      -0.2714
     50  N         69.9060   33.5360   56.0780 N.am   49  MET49      -0.1963
     51  CA        71.0460   32.6690   56.3890 C.3    49  MET49       0.1736
     52  C         71.0210   32.0700   57.8150 C.2    49  MET49       0.2616
     53  O         69.9430   31.8710   58.4000 O.2    49  MET49      -0.2715
     54  CB        72.3770   33.3620   56.0740 C.3    49  MET49       0.0427
     55  CG        72.6400   33.5090   54.5740 C.3    49  MET49       0.0599
     56  SD        72.6350   31.9540   53.6220 S.3    49  MET49      -0.1393
     57  CE        74.0960   31.1080   54.2700 C.3    49  MET49       0.0692
     58  N         72.2130   31.7840   58.3450 N.am   50  ASP50      -0.1971
     59  CA        72.3880   30.9810   59.5580 C.3    50  ASP50       0.1709
     60  C         72.4060   31.8590   60.7750 C.2    50  ASP50       0.2293
     61  O         72.1020   31.4360   61.8850 O.2    50  ASP50      -0.2864
     62  CB        73.7050   30.1960   59.4800 C.3    50  ASP50       0.1436
     63  CG        73.7240   29.2300   58.3120 C.2    50  ASP50       0.3671
     64  OD1       73.0090   28.2160   58.3790 O.co2  50  ASP50      -0.2456
     65  OD2       74.4140   29.5020   57.3100 O.co2  50  ASP50      -0.2456
     66  N         68.9580   31.3790   66.6660 N.3    67  THR67      -0.1203
     67  CA        68.1760   30.5480   67.5670 C.3    67  THR67       0.1994
     68  C         67.7770   29.2800   66.8410 C.2    67  THR67       0.2617
     69  O         67.7640   29.2480   65.6130 O.2    67  THR67      -0.2717
     70  CB        66.9390   31.2950   68.1960 C.3    67  THR67       0.1784
     71  OG1       66.4300   30.5430   69.3090 O.3    67  THR67      -0.2211
     72  CG2       65.8220   31.5190   67.1850 C.3    67  THR67       0.0376
     73  N         67.4820   28.2380   67.6130 N.am   68  ASP68      -0.1973
     74  CA        67.0460   26.9510   67.0920 C.3    68  ASP68       0.1709
     75  C         66.3990   26.1620   68.2100 C.2    68  ASP68       0.2293
     76  O         66.6750   26.3910   69.3880 O.2    68  ASP68      -0.2864
     77  CB        68.2320   26.1440   66.5400 C.3    68  ASP68       0.1436
     78  CG        68.4820   26.4120   65.0630 C.2    68  ASP68       0.3671
     79  OD1       67.4980   26.4690   64.3050 O.co2  68  ASP68      -0.2456
     80  OD2       69.6570   26.5770   64.6680 O.co2  68  ASP68      -0.2456
     81  N         75.4140   27.3070   64.0850 N.3    91  ASP91      -0.1239
     82  CA        75.1340   28.4310   63.1990 C.3    91  ASP91       0.1674
     83  C         76.0570   29.6270   63.3450 C.2    91  ASP91       0.2266
     84  O         76.3130   30.3080   62.3500 O.2    91  ASP91      -0.2867
     85  CB        73.6960   28.8460   63.2910 C.3    91  ASP91       0.1410
     86  CG        72.8520   27.9450   62.4870 C.2    91  ASP91       0.3668
     87  OD1       73.1400   27.8490   61.2820 O.co2  91  ASP91      -0.2456
     88  OD2       71.9320   27.2980   63.0280 O.co2  91  ASP91      -0.2456
     89  N         75.7030   25.4220   57.4690 N.3   246  ASP246     -0.1239
     90  CA        75.7540   24.1150   58.1350 C.3   246  ASP246      0.1674
     91  C         74.5890   23.2790   57.6370 C.2   246  ASP246      0.2266
     92  O         73.5920   23.8110   57.1320 O.2   246  ASP246     -0.2867
     93  CB        75.7550   24.2220   59.6690 C.3   246  ASP246      0.1410
     94  CG        74.5740   24.9910   60.1980 C.2   246  ASP246      0.3668
     95  OD1       74.2430   26.0440   59.6140 O.co2 246  ASP246     -0.2456
     96  OD2       73.9820   24.5480   61.2070 O.co2 246  ASP246     -0.2456
     97  N         71.7090   21.1640   58.5290 N.3   248  THR248     -0.1218
     98  CA        70.7900   20.7720   59.5670 C.3   248  THR248      0.1862
     99  C         69.4530   20.2900   58.9330 C.2   248  THR248      0.2287
    100  O         69.4770   19.4440   58.0290 O.2   248  THR248     -0.2866
    101  CB        70.6860   21.8800   60.6240 C.3   248  THR248      0.1770
    102  OG1       70.5490   23.1480   59.9700 O.3   248  THR248     -0.2211
    103  CG2       71.9780   21.9170   61.4370 C.3   248  THR248      0.0375
    104  N         66.8980   21.0370   56.7720 N.3   250  PHE250     -0.1241
    105  CA        66.4600   20.9650   55.3700 C.3   250  PHE250      0.1605
    106  C         67.2770   19.9930   54.4920 C.2   250  PHE250      0.2264
    107  O         67.0150   19.8950   53.2970 O.2   250  PHE250     -0.2867
    108  CB        66.4380   22.3550   54.7100 C.3   250  PHE250      0.0534
    109  CG        65.3620   23.2810   55.2510 C.ar  250  PHE250     -0.0203
    110  CD1       64.1890   22.7730   55.7920 C.ar  250  PHE250     -0.0042
    111  CD2       65.5150   24.6590   55.1860 C.ar  250  PHE250     -0.0042
    112  CE1       63.1940   23.6280   56.2670 C.ar  250  PHE250     -0.0003
    113  CE2       64.5190   25.5150   55.6590 C.ar  250  PHE250     -0.0003
    114  CZ        63.3660   24.9990   56.2000 C.ar  250  PHE250     -0.0000
    115  N         70.0230   23.1190   52.2220 N.3   255  HIS255     -0.1241
    116  CA        70.9570   24.1180   52.7250 C.3   255  HIS255      0.1621
    117  C         72.0120   24.5410   51.6970 C.2   255  HIS255      0.2264
    118  O         72.4310   25.7040   51.6850 O.2   255  HIS255     -0.2867
    119  CB        71.6010   23.6550   54.0220 C.3   255  HIS255      0.0745
    120  CG        70.6150   23.4440   55.1280 C.ar  255  HIS255      0.0817
    121  ND1       69.9430   24.4830   55.7320 N.ar  255  HIS255     -0.2268
    122  CD2       70.1690   22.3120   55.7240 C.ar  255  HIS255      0.1154
    123  CE1       69.1390   24.0030   56.6630 C.ar  255  HIS255      0.1986
    124  NE2       69.2590   22.6890   56.6820 N.ar  255  HIS255     -0.2212
    125  N         70.3370   27.0210   49.7460 N.3   258  ASN258     -0.1240
    126  CA        70.1990   28.2400   50.5330 C.3   258  ASN258      0.1653
    127  C         71.4930   29.0480   50.5660 C.2   258  ASN258      0.2266
    128  O         71.4730   30.2820   50.5520 O.2   258  ASN258     -0.2867
    129  CB        69.7460   27.9310   51.9570 C.3   258  ASN258      0.1155
    130  CG        69.3340   29.1740   52.7120 C.2   258  ASN258      0.2627
    131  OD1       68.4840   29.9430   52.2540 O.2   258  ASN258     -0.2716
    132  ND2       69.9350   29.3820   53.8800 N.am  258  ASN258     -0.0877
@<TRIPOS>BOND
     1   125   126    1
     2   126   127    1
     3   126   129    1
     4   128   127    2
     5   118   117    2
     6   117   116    1
     7   129   130    1
     8   115   116    1
     9   131   130    2
    10   130   132   am
    11   116   119    1
    12   107   106    2
    13    56    57    1
    14    56    55    1
    15   119   120    1
    16    49    48    2
    17   106   105    1
    18    55    54    1
    19    10    11    1
    20   108   109    1
    21   108   105    1
    22    12    13    2
    23    12    11    1
    24    47    48    1
    25    47    46    1
    26   120   122   ar
    27   120   121   ar
    28    41    40    2
    29   111   109   ar
    30   111   113   ar
    31    48    50   am
    32   109   110   ar
    33   105   104    1
    34    11    14    1
    35    20    21    2
    36    20    19    1
    37   113   114   ar
    38   122   124   ar
    39   121   123   ar
    40   110   112   ar
    41    18    19    1
    42    54    51    1
    43    50    51    1
    44    14    15    1
    45    29    28    2
    46    40    46   am
    47    40    39    1
    48   114   112   ar
    49    51    52    1
    50    19    22    1
    51   123   124   ar
    52    44    42    1
    53    22    23    1
    54    26    27    1
    55    92    91    2
    56    15    17    1
    57    15    16    1
    58    65    63   ar
    59    28    27    1
    60    42    39    1
    61    42    43    1
    62    34    35    1
    63    37    36    2
    64    39    38    1
    65    89    90    1
    66    36    38   am
    67    36    35    1
    68    91    90    1
    69    23    24    1
    70    23    25    1
    71    52    58   am
    72    52    53    2
    73    27    30    1
    74   100    99    2
    75    90    93    1
    76    63    64   ar
    77    63    62    1
    78    58    59    1
    79    97    98    1
    80    45    43    1
    81     4     3    2
    82    30    31    1
    83     9     8    1
    84    99    98    1
    85    32    31    1
    86    62    59    1
    87     3     2    1
    88    59    60    1
    89    98   101    1
    90    95    94   ar
    91    93    94    1
    92     8     7    1
    93    31    33    1
    94     5     2    1
    95     5     6    1
    96   102   101    1
    97    94    96   ar
    98     7     6    1
    99     2     1    1
   100   101   103    1
   101    60    61    2
   102    87    86   ar
   103    84    83    2
   104    86    88   ar
   105    86    85    1
   106    82    85    1
   107    82    83    1
   108    82    81    1
   109    79    78   ar
   110    80    78   ar
   111    78    77    1
   112    69    68    2
   113    77    74    1
   114    66    67    1
   115    68    67    1
   116    68    73   am
   117    74    73    1
   118    74    75    1
   119    72    70    1
   120    67    70    1
   121    70    71    1
   122    75    76    2
