@<TRIPOS>MOLECULE
tmp/3fd6A00.pdb
 131 121 0 0 0
SMALL
GASTEIGER

@<TRIPOS>ATOM
      1  N         54.4350   27.3570   82.4380 N.3    26  LYS26      -0.1245
      2  CA        55.8430   27.3380   82.8310 C.3    26  LYS26       0.1561
      3  C         56.1140   26.2520   83.8880 C.2    26  LYS26       0.2260
      4  O         55.2220   25.8960   84.6620 O.2    26  LYS26      -0.2867
      5  CB        56.2820   28.7110   83.3570 C.3    26  LYS26       0.0271
      6  CG        56.4280   29.7900   82.2840 C.3    26  LYS26       0.0035
      7  CD        56.7020   31.1720   82.8860 C.3    26  LYS26       0.0206
      8  CE        58.1480   31.3420   83.3490 C.3    26  LYS26       0.1093
      9  NZ        58.2080   32.4240   84.3870 N.3    26  LYS26      -0.1314
     10  N         62.5580   24.8230   88.7780 N.3    32  LEU32      -0.1245
     11  CA        63.5770   25.4200   87.9020 C.3    32  LEU32       0.1561
     12  C         64.8470   25.8110   88.6740 C.2    32  LEU32       0.2260
     13  O         65.9700   25.5050   88.2610 O.2    32  LEU32      -0.2867
     14  CB        63.0100   26.6310   87.1650 C.3    32  LEU32       0.0270
     15  CG        63.9230   27.4620   86.2450 C.3    32  LEU32       0.0019
     16  CD1       64.1390   26.7820   84.9150 C.3    32  LEU32       0.0001
     17  CD2       63.3130   28.8430   86.0110 C.3    32  LEU32       0.0001
     18  N         68.1680   24.2370   87.4890 N.3    36  LEU36      -0.1245
     19  CA        69.2010   25.2210   87.1570 C.3    36  LEU36       0.1561
     20  C         70.2700   25.3010   88.2420 C.2    36  LEU36       0.2260
     21  O         70.6720   26.3870   88.6430 O.2    36  LEU36      -0.2867
     22  CB        68.5810   26.6070   86.9160 C.3    36  LEU36       0.0270
     23  CG        67.5220   26.6970   85.8050 C.3    36  LEU36       0.0019
     24  CD1       67.1690   28.1470   85.4730 C.3    36  LEU36       0.0001
     25  CD2       67.9820   25.9750   84.5440 C.3    36  LEU36       0.0001
     26  N         74.2890   25.0530   86.6620 N.3    39  LEU39      -0.1245
     27  CA        74.7190   26.3490   86.1380 C.3    39  LEU39       0.1561
     28  C         75.1730   27.3130   87.2360 C.2    39  LEU39       0.2260
     29  O         74.5170   27.4780   88.2710 O.2    39  LEU39      -0.2867
     30  CB        73.6050   26.9880   85.2960 C.3    39  LEU39       0.0270
     31  CG        72.9380   26.0770   84.2620 C.3    39  LEU39       0.0019
     32  CD1       72.2270   26.9130   83.2270 C.3    39  LEU39       0.0001
     33  CD2       73.9540   25.1520   83.5850 C.3    39  LEU39       0.0001
     34  N         74.2290   37.0840   86.3230 N.3    44  GLY44      -0.1210
     35  CA        74.0030   35.7500   85.7890 C.3    44  GLY44       0.1956
     36  C         72.5290   35.3650   85.8220 C.2    44  GLY44       0.2612
     37  O         71.6530   36.2230   85.9020 O.2    44  GLY44      -0.2717
     38  N         72.2590   34.0650   85.7550 N.am   45  ILE45      -0.1965
     39  CA        70.8930   33.5510   85.8230 C.3    45  ILE45       0.1727
     40  C         70.2130   34.0580   87.0890 C.2    45  ILE45       0.2617
     41  O         70.8670   34.2930   88.1010 O.2    45  ILE45      -0.2715
     42  CB        70.8790   32.0000   85.8740 C.3    45  ILE45       0.0290
     43  CG1       71.4600   31.3990   84.5890 C.3    45  ILE45       0.0022
     44  CG2       69.4600   31.4830   86.1340 C.3    45  ILE45       0.0023
     45  CD1       71.8220   29.9100   84.7060 C.3    45  ILE45       0.0001
     46  N         68.8980   34.2060   87.0460 N.am   46  GLY46      -0.1940
     47  CA        68.1400   34.4990   88.2570 C.3    46  GLY46       0.2014
     48  C         67.2110   35.6880   88.1130 C.2    46  GLY46       0.2639
     49  O         66.1150   35.6850   88.7010 O.2    46  GLY46      -0.2714
     50  N         67.6370   36.6850   87.3270 N.am   47  MET47      -0.1963
     51  CA        66.8480   37.8980   87.1130 C.3    47  MET47       0.1736
     52  C         66.3090   38.0080   85.6660 C.2    47  MET47       0.2616
     53  O         66.1370   36.9920   84.9740 O.2    47  MET47      -0.2715
     54  CB        67.6110   39.1680   87.5260 C.3    47  MET47       0.0427
     55  CG        67.6640   39.4670   89.0290 C.3    47  MET47       0.0599
     56  SD        66.1260   39.2880   89.9770 S.3    47  MET47      -0.1393
     57  CE        65.0880   40.5780   89.2880 C.3    47  MET47       0.0692
     58  N         66.0440   39.2390   85.2210 N.am   48  ASP48      -0.1971
     59  CA        65.2480   39.4780   84.0240 C.3    48  ASP48       0.1709
     60  C         66.0910   39.5760   82.7580 C.2    48  ASP48       0.2293
     61  O         65.6080   39.3510   81.6620 O.2    48  ASP48      -0.2864
     62  CB        64.3930   40.7460   84.1740 C.3    48  ASP48       0.1436
     63  CG        63.4120   40.6510   85.3460 C.2    48  ASP48       0.3671
     64  OD1       62.4190   39.9180   85.2160 O.co2  48  ASP48      -0.2456
     65  OD2       63.6390   41.2970   86.3990 O.co2  48  ASP48      -0.2456
     66  N         68.0680   38.5150   76.5900 N.3    64  THR64      -0.1203
     67  CA        66.9450   37.8440   77.2430 C.3    64  THR64       0.1994
     68  C         66.1370   37.0750   76.1890 C.2    64  THR64       0.2618
     69  O         66.1100   37.4800   75.0310 O.2    64  THR64      -0.2717
     70  CB        66.0620   38.8850   78.0250 C.3    64  THR64       0.1784
     71  OG1       65.0450   38.2150   78.7770 O.3    64  THR64      -0.2211
     72  CG2       65.4340   39.9200   77.0760 C.3    64  THR64       0.0376
     73  N         65.5070   35.9630   76.5840 N.am   65  THR65      -0.1952
     74  CA        64.7040   35.1450   75.6650 C.3    65  THR65       0.1897
     75  C         63.3530   34.7760   76.2890 C.2    65  THR65       0.2313
     76  O         63.2340   34.7220   77.5140 O.2    65  THR65      -0.2863
     77  CB        65.4840   33.8640   75.1420 C.3    65  THR65       0.1794
     78  OG1       64.7460   33.2160   74.0930 O.3    65  THR65      -0.2208
     79  CG2       65.7710   32.8590   76.2410 C.3    65  THR65       0.0378
     80  N         61.4990   42.0590   79.4350 N.3    89  ASP89      -0.1239
     81  CA        62.6510   41.7590   80.2670 C.3    89  ASP89       0.1674
     82  C         63.7500   42.8080   80.1810 C.2    89  ASP89       0.2266
     83  O         64.3610   43.1610   81.2000 O.2    89  ASP89      -0.2867
     84  CB        63.1880   40.3720   79.9300 C.3    89  ASP89       0.1410
     85  CG        62.3930   39.2960   80.6190 C.2    89  ASP89       0.3668
     86  OD1       62.3060   39.3970   81.8460 O.co2  89  ASP89      -0.2456
     87  OD2       61.8260   38.4030   79.9540 O.co2  89  ASP89      -0.2456
     88  N         59.7690   42.8850   85.7580 N.3   233  ASP233     -0.1239
     89  CA        58.4520   42.7770   85.1120 C.3   233  ASP233      0.1674
     90  C         57.6320   41.6130   85.6770 C.2   233  ASP233      0.2266
     91  O         58.1860   40.6380   86.2110 O.2   233  ASP233     -0.2867
     92  CB        58.5470   42.6770   83.5810 C.3   233  ASP233      0.1410
     93  CG        59.3650   41.4740   83.1130 C.2   233  ASP233      0.3668
     94  OD1       60.4330   41.2400   83.6920 O.co2 233  ASP233     -0.2456
     95  OD2       58.9650   40.7750   82.1530 O.co2 233  ASP233     -0.2456
     96  N         55.3850   38.5260   85.0250 N.3   235  THR235     -0.1218
     97  CA        54.9870   37.5310   84.0170 C.3   235  THR235      0.1862
     98  C         54.4650   36.2240   84.6660 C.2   235  THR235      0.2287
     99  O         53.7220   36.2720   85.6450 O.2   235  THR235     -0.2866
    100  CB        56.1060   37.2750   82.9500 C.3   235  THR235      0.1770
    101  OG1       57.3950   37.1950   83.5780 O.3   235  THR235     -0.2211
    102  CG2       56.1140   38.3870   81.9090 C.3   235  THR235      0.0375
    103  N         55.0510   33.8690   86.8730 N.3   237  PHE237     -0.1241
    104  CA        55.0000   33.4740   88.2950 C.3   237  PHE237      0.1605
    105  C         54.0260   34.3570   89.1130 C.2   237  PHE237      0.2264
    106  O         53.7530   34.0870   90.3040 O.2   237  PHE237     -0.2867
    107  CB        56.4180   33.4720   88.9250 C.3   237  PHE237      0.0534
    108  CG        57.3590   32.3980   88.3640 C.ar  237  PHE237     -0.0203
    109  CD1       56.8670   31.1790   87.8830 C.ar  237  PHE237     -0.0042
    110  CD2       58.7310   32.6070   88.3400 C.ar  237  PHE237     -0.0042
    111  CE1       57.7430   30.1830   87.3800 C.ar  237  PHE237     -0.0003
    112  CE2       59.6120   31.6420   87.8360 C.ar  237  PHE237     -0.0003
    113  CZ        59.1250   30.4260   87.3630 C.ar  237  PHE237     -0.0000
    114  N         57.2660   37.1330   91.1950 N.3   242  HIS242     -0.1241
    115  CA        58.3120   38.0110   90.7200 C.3   242  HIS242      0.1621
    116  C         58.7490   39.0100   91.7970 C.2   242  HIS242      0.2264
    117  O         59.9220   39.3890   91.8560 O.2   242  HIS242     -0.2867
    118  CB        57.8640   38.6940   89.4260 C.3   242  HIS242      0.0745
    119  CG        57.4830   37.7260   88.3470 C.ar  242  HIS242      0.0817
    120  ND1       58.4170   37.0710   87.5710 N.ar  242  HIS242     -0.2268
    121  CD2       56.2740   37.2830   87.9340 C.ar  242  HIS242      0.1154
    122  CE1       57.7980   36.2710   86.7220 C.ar  242  HIS242      0.1986
    123  NE2       56.4970   36.3800   86.9230 N.ar  242  HIS242     -0.2212
    124  N         61.3250   37.1500   93.9930 N.3   245  ASN245     -0.1240
    125  CA        62.6070   37.0150   93.2920 C.3   245  ASN245      0.1653
    126  C         63.3730   38.3520   93.2440 C.2   245  ASN245      0.2266
    127  O         64.5970   38.3770   93.3920 O.2   245  ASN245     -0.2867
    128  CB        62.3560   36.4690   91.8720 C.3   245  ASN245      0.1155
    129  CG        63.6430   36.1330   91.1040 C.2   245  ASN245      0.2627
    130  OD1       64.4930   35.3650   91.5640 O.2   245  ASN245     -0.2716
    131  ND2       63.7630   36.6940   89.9000 N.am  245  ASN245     -0.0877
@<TRIPOS>BOND
     1    78    77    1
     2    69    68    2
     3    77    74    1
     4    77    79    1
     5    74    75    1
     6    74    73    1
     7    68    73   am
     8    68    67    1
     9    75    76    2
    10    66    67    1
    11    72    70    1
    12    67    70    1
    13    70    71    1
    14    80    81    1
    15    84    81    1
    16    84    85    1
    17    87    85   ar
    18    82    81    1
    19    82    83    2
    20    85    86   ar
    21    61    60    2
    22   102   100    1
    23    95    93   ar
    24     6     7    1
    25     6     5    1
    26     1     2    1
    27    60    59    1
    28     2     5    1
    29     2     3    1
    30     7     8    1
    31   100   101    1
    32   100    97    1
    33    93    92    1
    34    93    94   ar
    35    32    31    1
    36     8     9    1
    37    92    89    1
    38    33    31    1
    39     3     4    2
    40    97    98    1
    41    97    96    1
    42    59    62    1
    43    59    58    1
    44    62    63    1
    45    31    30    1
    46    25    23    1
    47    43    45    1
    48    43    42    1
    49    98    99    2
    50    16    15    1
    51    53    52    2
    52    89    90    1
    53    89    88    1
    54    64    63   ar
    55    58    52   am
    56    30    27    1
    57    63    65   ar
    58    24    23    1
    59    52    51    1
    60    90    91    2
    61    38    36   am
    62    38    39    1
    63    35    36    1
    64    35    34    1
    65    23    22    1
    66    36    37    2
    67    39    42    1
    68    39    40    1
    69    42    44    1
    70    17    15    1
    71    27    26    1
    72    27    28    1
    73    15    14    1
    74   122   123   ar
    75   122   120   ar
    76   103   104    1
    77    22    19    1
    78   123   121   ar
    79    46    40   am
    80    46    47    1
    81    40    41    2
    82    51    50    1
    83    51    54    1
    84    19    18    1
    85    19    20    1
    86    14    11    1
    87    28    29    2
    88    50    48   am
    89   113   111   ar
    90   113   112   ar
    91   111   109   ar
    92    54    55    1
    93   120   119   ar
    94   112   110   ar
    95   109   108   ar
    96    11    12    1
    97    11    10    1
    98   121   119   ar
    99    48    47    1
   100    48    49    2
   101    20    21    2
   102    13    12    2
   103   104   107    1
   104   104   105    1
   105   110   108   ar
   106   119   118    1
   107   108   107    1
   108    55    56    1
   109   105   106    2
   110    57    56    1
   111   118   115    1
   112   131   129   am
   113   115   114    1
   114   115   116    1
   115   129   130    2
   116   129   128    1
   117   116   117    2
   118   128   125    1
   119   126   125    1
   120   126   127    2
   121   125   124    1
