@<TRIPOS>MOLECULE
tmp/3fdcB00.pdb
 192 183 0 0 0
SMALL
GASTEIGER

@<TRIPOS>ATOM
      1  N         25.8480   -5.3670  -18.2000 N.3    10  ASN10      -0.1240
      2  CA        24.9940   -6.4150  -18.7310 C.3    10  ASN10       0.1653
      3  C         24.2510   -6.0570  -20.0050 C.2    10  ASN10       0.2266
      4  O         24.0470   -4.8850  -20.3230 O.2    10  ASN10      -0.2867
      5  CB        23.9950   -6.8980  -17.6750 C.3    10  ASN10       0.1155
      6  CG        22.8460   -5.9510  -17.4670 C.2    10  ASN10       0.2627
      7  OD1       22.2240   -5.5050  -18.4160 O.2    10  ASN10      -0.2716
      8  ND2       22.5360   -5.6630  -16.2100 N.am   10  ASN10      -0.0877
      9  N         21.3220   -5.8320  -20.7930 N.3    12  LEU12      -0.1245
     10  CA        20.2300   -4.8770  -20.7140 C.3    12  LEU12       0.1561
     11  C         20.7520   -3.4570  -20.6140 C.2    12  LEU12       0.2260
     12  O         19.9930   -2.5090  -20.7790 O.2    12  LEU12      -0.2867
     13  CB        19.3320   -5.1630  -19.5180 C.3    12  LEU12       0.0270
     14  CG        18.1430   -6.0600  -19.8220 C.3    12  LEU12       0.0019
     15  CD1       17.1560   -6.0310  -18.6690 C.3    12  LEU12       0.0001
     16  CD2       17.4750   -5.5660  -21.0850 C.3    12  LEU12       0.0001
     17  N         22.7600   -2.2880  -17.8090 N.3    14  SER14      -0.1217
     18  CA        23.2220   -2.0090  -16.4490 C.3    14  SER14       0.1889
     19  C         24.6900   -2.2280  -16.1760 C.2    14  SER14       0.2288
     20  O         25.4280   -2.7730  -16.9890 O.2    14  SER14      -0.2866
     21  CB        22.4440   -2.8290  -15.4340 C.3    14  SER14       0.2089
     22  OG        21.1010   -2.4220  -15.4060 O.3    14  SER14      -0.2183
     23  N         24.7810   -2.1680   -7.6030 N.3    31  TYR31      -0.1241
     24  CA        24.2490   -2.6090   -8.8740 C.3    31  TYR31       0.1605
     25  C         23.3060   -1.5650   -9.4760 C.2    31  TYR31       0.2264
     26  O         22.1250   -1.4920   -9.1290 O.2    31  TYR31      -0.2867
     27  CB        23.5380   -3.9460   -8.6440 C.3    31  TYR31       0.0534
     28  CG        22.9870   -4.6240   -9.8750 C.ar   31  TYR31      -0.0201
     29  CD1       21.7420   -4.2660  -10.4000 C.ar   31  TYR31      -0.0009
     30  CD2       23.7030   -5.6330  -10.5080 C.ar   31  TYR31      -0.0009
     31  CE1       21.2350   -4.8970  -11.5180 C.ar   31  TYR31       0.0417
     32  CE2       23.2020   -6.2660  -11.6230 C.ar   31  TYR31       0.0417
     33  CZ        21.9740   -5.8950  -12.1250 C.ar   31  TYR31       0.1957
     34  OH        21.5020   -6.5100  -13.2590 O.3    31  TYR31      -0.2866
     35  N         20.9370   -0.5120  -12.0330 N.3    33  THR33      -0.1218
     36  CA        20.1420   -1.0780  -13.1030 C.3    33  THR33       0.1862
     37  C         19.9990   -0.0150  -14.1800 C.2    33  THR33       0.2287
     38  O         20.0320    1.1900  -13.8960 O.2    33  THR33      -0.2866
     39  CB        18.7380   -1.5130  -12.6130 C.3    33  THR33       0.1770
     40  OG1       17.8670   -1.6870  -13.7380 O.3    33  THR33      -0.2211
     41  CG2       18.1490   -0.4800  -11.6890 C.3    33  THR33       0.0375
     42  N         17.4160   -0.3580  -16.3190 N.3    35  VAL35      -0.1231
     43  CA        16.0220   -0.5060  -16.7090 C.3    35  VAL35       0.1692
     44  C         15.1370   -0.6020  -15.4810 C.2    35  VAL35       0.2593
     45  O         15.5640   -1.1140  -14.4540 O.2    35  VAL35      -0.2718
     46  CB        15.8150   -1.7810  -17.5230 C.3    35  VAL35       0.0266
     47  CG1       16.7670   -1.8220  -18.6820 C.3    35  VAL35       0.0020
     48  CG2       16.0410   -2.9790  -16.6480 C.3    35  VAL35       0.0020
     49  N         13.8990   -0.1290  -15.5940 N.am   36  THR36      -0.1939
     50  CA        12.9640   -0.1750  -14.4740 C.3    36  THR36       0.2028
     51  C         11.5510   -0.4680  -14.9300 C.2    36  THR36       0.2642
     52  O         11.1240    0.0090  -15.9800 O.2    36  THR36      -0.2714
     53  CB        12.9040    1.1520  -13.7250 C.3    36  THR36       0.1808
     54  OG1       14.2260    1.5830  -13.3920 O.3    36  THR36      -0.2208
     55  CG2       12.1090    0.9880  -12.4570 C.3    36  THR36       0.0379
     56  N         10.8250   -1.2390  -14.1280 N.am   37  ALA37      -0.1963
     57  CA         9.4440   -1.5890  -14.4380 C.3    37  ALA37       0.1728
     58  C          8.5090   -0.7260  -13.6060 C.2    37  ALA37       0.2616
     59  O          7.3100   -1.0070  -13.5050 O.2    37  ALA37      -0.2715
     60  CB         9.1920   -3.0600  -14.1490 C.3    37  ALA37       0.0334
     61  N          9.0780    0.3220  -13.0060 N.am   38  THR38      -0.1951
     62  CA         8.3150    1.2620  -12.1840 C.3    38  THR38       0.1897
     63  C          8.4350    2.7020  -12.6870 C.2    38  THR38       0.2313
     64  O          8.9200    2.9680  -13.7930 O.2    38  THR38      -0.2863
     65  CB         8.7570    1.2510  -10.6860 C.3    38  THR38       0.1794
     66  OG1        7.7660    1.9210   -9.8930 O.3    38  THR38      -0.2208
     67  CG2       10.0780    1.9850  -10.4980 C.3    38  THR38       0.0378
     68  N          9.8650    5.0500  -10.5970 N.3    40  ASN40      -0.1240
     69  CA        10.7730    5.6880   -9.6540 C.3    40  ASN40       0.1653
     70  C         12.1370    6.0520  -10.2070 C.2    40  ASN40       0.2266
     71  O         12.5140    5.6600  -11.3120 O.2    40  ASN40      -0.2867
     72  CB        10.9620    4.8140   -8.4110 C.3    40  ASN40       0.1155
     73  CG         9.7370    4.8030   -7.5070 C.2    40  ASN40       0.2627
     74  OD1        9.2670    5.8550   -7.0650 O.2    40  ASN40      -0.2716
     75  ND2        9.2190    3.6080   -7.2200 N.am   40  ASN40      -0.0877
     76  N         16.9550   -3.5390   -4.1340 N.3    66  TRP66      -0.1241
     77  CA        16.6890   -2.2440   -4.7640 C.3    66  TRP66       0.1605
     78  C         16.3290   -1.1880   -3.7370 C.2    66  TRP66       0.2264
     79  O         15.5890   -1.4700   -2.7900 O.2    66  TRP66      -0.2867
     80  CB        15.5410   -2.3610   -5.7710 C.3    66  TRP66       0.0550
     81  CG        15.7390   -3.4220   -6.8210 C.ar   66  TRP66       0.0003
     82  CD1       15.0180   -4.5690   -6.9710 C.ar   66  TRP66       0.0946
     83  CD2       16.7330   -3.4350   -7.8490 C.ar   66  TRP66       0.0152
     84  NE1       15.5040   -5.2930   -8.0250 N.ar   66  TRP66      -0.2442
     85  CE2       16.5570   -4.6180   -8.5820 C.ar   66  TRP66       0.0810
     86  CE3       17.7540   -2.5590   -8.2210 C.ar   66  TRP66       0.0012
     87  CZ2       17.3630   -4.9530   -9.6620 C.ar   66  TRP66       0.0191
     88  CZ3       18.5580   -2.8920   -9.2980 C.ar   66  TRP66       0.0001
     89  CH2       18.3570   -4.0790  -10.0040 C.ar   66  TRP66       0.0015
     90  N         15.0450    2.0840   -4.6650 N.3    68  PHE68      -0.1227
     91  CA        13.8990    2.8710   -5.1010 C.3    68  PHE68       0.1736
     92  C         12.5960    2.0670   -5.2250 C.2    68  PHE68       0.2596
     93  O         11.7510    2.3710   -6.0720 O.2    68  PHE68      -0.2718
     94  CB        14.2020    3.5730   -6.4430 C.3    68  PHE68       0.0547
     95  CG        14.4290    2.6310   -7.5990 C.ar   68  PHE68      -0.0202
     96  CD1       15.6750    2.0590   -7.8160 C.ar   68  PHE68      -0.0042
     97  CD2       13.3890    2.3070   -8.4640 C.ar   68  PHE68      -0.0042
     98  CE1       15.8790    1.1830   -8.8790 C.ar   68  PHE68      -0.0003
     99  CE2       13.5840    1.4320   -9.5260 C.ar   68  PHE68      -0.0003
    100  CZ        14.8270    0.8690   -9.7330 C.ar   68  PHE68      -0.0000
    101  N         12.4210    1.0470   -4.3880 N.am   69  SER69      -0.1938
    102  CA        11.1960    0.2530   -4.4480 C.3    69  SER69       0.2055
    103  C         11.1350   -0.9600   -3.5280 C.2    69  SER69       0.2643
    104  O         12.1580   -1.5140   -3.1210 O.2    69  SER69      -0.2714
    105  CB        10.9190   -0.1860   -5.8940 C.3    69  SER69       0.2130
    106  OG        12.0880   -0.6520   -6.5420 O.3    69  SER69      -0.2179
    107  N          9.9050   -1.3480   -3.2080 N.am   70  GLU70      -0.1963
    108  CA         9.6120   -2.4890   -2.3500 C.3    70  GLU70       0.1733
    109  C          9.7670   -3.7470   -3.1980 C.2    70  GLU70       0.2617
    110  O          8.7840   -4.4070   -3.5350 O.2    70  GLU70      -0.2715
    111  CB         8.1710   -2.3800   -1.8300 C.3    70  GLU70       0.0429
    112  CG         7.9170   -1.1830   -0.9010 C.3    70  GLU70       0.1163
    113  CD         6.6150   -0.4160   -1.2110 C.2    70  GLU70       0.3649
    114  OE1        6.5690    0.3340   -2.2180 O.co2  70  GLU70      -0.2457
    115  OE2        5.6370   -0.5630   -0.4410 O.co2  70  GLU70      -0.2457
    116  N         11.0040   -4.0790   -3.5430 N.am   71  SER71      -0.1950
    117  CA        11.2490   -5.2380   -4.3840 C.3    71  SER71       0.1924
    118  C         12.6300   -5.8220   -4.2290 C.2    71  SER71       0.2314
    119  O         13.5420   -5.1840   -3.7170 O.2    71  SER71      -0.2863
    120  CB        11.0660   -4.8600   -5.8510 C.3    71  SER71       0.2116
    121  OG         9.8180   -4.2360   -6.0530 O.3    71  SER71      -0.2180
    122  N         15.4500   -8.6720   -6.3660 N.3    73  THR73      -0.1218
    123  CA        15.7580   -9.4280   -7.5540 C.3    73  THR73       0.1862
    124  C         16.8120  -10.4130   -7.1090 C.2    73  THR73       0.2287
    125  O         17.6200  -10.0920   -6.2530 O.2    73  THR73      -0.2866
    126  CB        16.3250   -8.5230   -8.6490 C.3    73  THR73       0.1770
    127  OG1       15.2480   -7.8730   -9.3360 O.3    73  THR73      -0.2211
    128  CG2       17.1400   -9.3240   -9.6290 C.3    73  THR73       0.0375
    129  N         19.7000  -13.0930   -8.7050 N.3    75  PHE75      -0.1241
    130  CA        20.3940  -13.6500   -9.8510 C.3    75  PHE75       0.1605
    131  C         21.1410  -14.8770   -9.3920 C.2    75  PHE75       0.2264
    132  O         21.5600  -14.9610   -8.2440 O.2    75  PHE75      -0.2867
    133  CB        21.4400  -12.6830  -10.4280 C.3    75  PHE75       0.0534
    134  CG        20.8880  -11.3910  -10.9650 C.ar   75  PHE75      -0.0203
    135  CD1       20.3990  -10.4110  -10.1070 C.ar   75  PHE75      -0.0042
    136  CD2       20.9530  -11.1130  -12.3230 C.ar   75  PHE75      -0.0042
    137  CE1       19.9970   -9.1700  -10.5940 C.ar   75  PHE75      -0.0003
    138  CE2       20.5530   -9.8810  -12.8170 C.ar   75  PHE75      -0.0003
    139  CZ        20.0770   -8.9070  -11.9490 C.ar   75  PHE75      -0.0000
    140  N         17.5440  -14.5970  -13.2910 N.3    93  TRP93      -0.1241
    141  CA        17.0430  -13.9080  -12.1150 C.3    93  TRP93       0.1605
    142  C         15.5530  -14.0110  -12.0260 C.2    93  TRP93       0.2264
    143  O         14.8920  -14.2780  -13.0170 O.2    93  TRP93      -0.2867
    144  CB        17.4130  -12.4220  -12.1450 C.3    93  TRP93       0.0550
    145  CG        17.0430  -11.7620  -13.4300 C.ar   93  TRP93       0.0003
    146  CD1       17.8560  -11.5660  -14.4970 C.ar   93  TRP93       0.0946
    147  CD2       15.7400  -11.3340  -13.8330 C.ar   93  TRP93       0.0152
    148  NE1       17.1490  -11.0570  -15.5450 N.ar   93  TRP93      -0.2442
    149  CE2       15.8400  -10.9040  -15.1690 C.ar   93  TRP93       0.0810
    150  CE3       14.4940  -11.2750  -13.1980 C.ar   93  TRP93       0.0012
    151  CZ2       14.7380  -10.4200  -15.8920 C.ar   93  TRP93       0.0191
    152  CZ3       13.4020  -10.7930  -13.9160 C.ar   93  TRP93       0.0001
    153  CH2       13.5360  -10.3730  -15.2520 C.ar   93  TRP93       0.0015
    154  N         12.5650  -11.5680  -10.6260 N.3    95  LEU95      -0.1245
    155  CA        12.1790  -10.2190  -10.1610 C.3    95  LEU95       0.1561
    156  C         10.8970  -10.2520   -9.3200 C.2    95  LEU95       0.2260
    157  O          9.7920  -10.3240   -9.8680 O.2    95  LEU95      -0.2867
    158  CB        11.9460   -9.2880  -11.3570 C.3    95  LEU95       0.0270
    159  CG        11.1990   -7.9670  -11.1050 C.3    95  LEU95       0.0019
    160  CD1       12.0890   -7.0110  -10.3140 C.3    95  LEU95       0.0001
    161  CD2       10.7890   -7.3420  -12.4360 C.3    95  LEU95       0.0001
    162  N          8.0540   -8.6690   -7.4150 N.3    97  SER97      -0.1202
    163  CA         7.2590   -7.4690   -7.1770 C.3    97  SER97       0.2020
    164  C          6.4950   -7.7360   -5.8780 C.2    97  SER97       0.2619
    165  O          6.3920   -8.8850   -5.4520 O.2    97  SER97      -0.2717
    166  CB         6.2830   -7.2450   -8.3430 C.3    97  SER97       0.2103
    167  OG         6.1840   -5.8760   -8.7190 O.3    97  SER97      -0.2182
    168  N          5.9680   -6.6880   -5.2480 N.am   98  SER98      -0.1951
    169  CA         5.2270   -6.8390   -3.9930 C.3    98  SER98       0.1924
    170  C          3.7450   -6.5770   -4.1550 C.2    98  SER98       0.2314
    171  O          3.3350   -5.6690   -4.8760 O.2    98  SER98      -0.2863
    172  CB         5.7590   -5.8830   -2.9240 C.3    98  SER98       0.2116
    173  OG         5.3210   -4.5560   -3.1670 O.3    98  SER98      -0.2180
    174  N          8.5890  -12.5200  -11.8020 N.3   110  ARG110     -0.1245
    175  CA         9.0730  -12.3930  -13.1630 C.3   110  ARG110      0.1563
    176  C         10.4400  -13.0840  -13.2790 C.2   110  ARG110      0.2260
    177  O         11.2420  -13.0500  -12.3440 O.2   110  ARG110     -0.2867
    178  CB         9.2070  -10.9150  -13.5380 C.3   110  ARG110      0.0307
    179  CG         7.9140  -10.2240  -13.9020 C.3   110  ARG110      0.0489
    180  CD         8.2260   -8.8550  -14.4680 C.3   110  ARG110      0.2205
    181  NE         7.0770   -8.2320  -15.1170 N.pl3 110  ARG110     -0.0865
    182  CZ         6.1230   -7.5480  -14.4900 C.cat 110  ARG110      0.5346
    183  NH1        6.1630   -7.3830  -13.1710 N.pl3 110  ARG110      0.1354
    184  NH2        5.1230   -7.0210  -15.1900 N.pl3 110  ARG110      0.1354
    185  N         20.3590  -12.8450  -18.1920 N.3   114  ASN114     -0.1240
    186  CA        21.2720  -11.7000  -18.1120 C.3   114  ASN114      0.1653
    187  C         22.7400  -12.1070  -18.2370 C.2   114  ASN114      0.2266
    188  O         23.2470  -12.8350  -17.3970 O.2   114  ASN114     -0.2867
    189  CB        21.0950  -10.9730  -16.7700 C.3   114  ASN114      0.1155
    190  CG        20.2980   -9.6840  -16.8900 C.2   114  ASN114      0.2627
    191  OD1       20.6420   -8.8010  -17.6710 O.2   114  ASN114     -0.2716
    192  ND2       19.2380   -9.5660  -16.1020 N.am  114  ASN114     -0.0877
@<TRIPOS>BOND
     1    16    14    1
     2     9    10    1
     3    12    11    2
     4    10    11    1
     5    10    13    1
     6     4     3    2
     7     3     2    1
     8    14    13    1
     9    14    15    1
    10     2     1    1
    11     2     5    1
    12    47    46    1
    13     7     6    2
    14   187   186    1
    15   187   188    2
    16   185   186    1
    17   186   189    1
    18    17    18    1
    19     5     6    1
    20   191   190    2
    21    46    43    1
    22    46    48    1
    23     6     8   am
    24    20    19    2
    25   190   189    1
    26   190   192   am
    27    43    42    1
    28    43    44    1
    29    18    19    1
    30    18    21    1
    31    52    51    2
    32   151   153   ar
    33   151   149   ar
    34    49    44   am
    35    49    50    1
    36   148   149   ar
    37   148   146   ar
    38    44    45    2
    39    21    22    1
    40   153   152   ar
    41   184   182    1
    42   149   147   ar
    43   181   182    2
    44   181   180    1
    45    51    50    1
    46    51    56   am
    47   146   145   ar
    48   182   183    1
    49    50    53    1
    50   180   179    1
    51    57    60    1
    52    57    56    1
    53    57    58    1
    54    37    38    2
    55    37    36    1
    56   152   150   ar
    57   179   178    1
    58   147   145   ar
    59   147   150   ar
    60    64    63    2
    61    40    39    1
    62    53    54    1
    63    53    55    1
    64    58    59    2
    65    58    61   am
    66   178   175    1
    67   145   144    1
    68   140   141    1
    69   176   175    1
    70   176   177    2
    71    34    33    1
    72   175   174    1
    73    36    39    1
    74    36    35    1
    75   143   142    2
    76    61    62    1
    77   138   136   ar
    78   138   139   ar
    79    63    62    1
    80    39    41    1
    81   161   159    1
    82   136   134   ar
    83    62    65    1
    84   144   141    1
    85    33    32   ar
    86    33    31   ar
    87   141   142    1
    88   139   137   ar
    89    32    30   ar
    90    31    29   ar
    91   158   159    1
    92   158   155    1
    93    71    70    2
    94   159   160    1
    95   134   133    1
    96   134   135   ar
    97    65    67    1
    98    65    66    1
    99   154   155    1
   100    68    69    1
   101   137   135   ar
   102    30    28   ar
   103   133   130    1
   104    29    28   ar
   105    70    69    1
   106   155   156    1
   107    89    87   ar
   108    89    88   ar
   109    28    27    1
   110   157   156    2
   111   130   131    1
   112   130   129    1
   113   100    99   ar
   114   100    98   ar
   115    87    85   ar
   116    69    72    1
   117   128   126    1
   118    99    97   ar
   119    25    26    2
   120    25    24    1
   121   131   132    2
   122   127   126    1
   123    88    86   ar
   124    98    96   ar
   125    24    27    1
   126    24    23    1
   127   167   166    1
   128   126   123    1
   129    85    84   ar
   130    85    83   ar
   131    97    95   ar
   132    72    73    1
   133   166   163    1
   134    86    83   ar
   135    84    82   ar
   136    83    81   ar
   137    96    95   ar
   138    95    94    1
   139   123   124    1
   140   123   122    1
   141    73    75   am
   142    73    74    2
   143   162   163    1
   144   163   164    1
   145   124   125    2
   146    82    81   ar
   147    81    80    1
   148   106   105    1
   149    94    91    1
   150    93    92    2
   151   121   120    1
   152   105   102    1
   153   164   165    2
   154   164   168   am
   155   120   117    1
   156    80    77    1
   157   168   169    1
   158    92    91    1
   159    92   101   am
   160    91    90    1
   161   171   170    2
   162    77    76    1
   163    77    78    1
   164   102   101    1
   165   102   103    1
   166   117   118    1
   167   117   116    1
   168   118   119    2
   169   170   169    1
   170   169   172    1
   171    78    79    2
   172   116   109   am
   173   110   109    2
   174   103   107   am
   175   103   104    2
   176   107   108    1
   177   109   108    1
   178   173   172    1
   179   108   111    1
   180   114   113   ar
   181   111   112    1
   182   113   112    1
   183   113   115   ar
