@<TRIPOS>MOLECULE
tmp/3fdcA00.pdb
 185 176 0 0 0
SMALL
GASTEIGER

@<TRIPOS>ATOM
      1  N          9.3650  -25.4330    5.1810 N.3     9  ASN9       -0.1240
      2  CA         8.5270  -25.2580    4.0100 C.3     9  ASN9        0.1653
      3  C          7.7260  -26.5330    3.7480 C.2     9  ASN9        0.2266
      4  O          7.6970  -27.4380    4.5850 O.2     9  ASN9       -0.2867
      5  CB         9.3520  -24.8360    2.7750 C.3     9  ASN9        0.1155
      6  CG        10.3300  -25.8980    2.3100 C.2     9  ASN9        0.2627
      7  OD1       10.0100  -27.0860    2.2720 O.2     9  ASN9       -0.2716
      8  ND2       11.5260  -25.4670    1.9230 N.am    9  ASN9       -0.0877
      9  N          8.2680  -28.9240    1.6090 N.3    11  LEU11      -0.1245
     10  CA         9.0190  -30.0880    1.1390 C.3    11  LEU11       0.1561
     11  C          9.5580  -30.9110    2.2990 C.2    11  LEU11       0.2260
     12  O         10.0460  -32.0220    2.1020 O.2    11  LEU11      -0.2867
     13  CB        10.1800  -29.6540    0.2400 C.3    11  LEU11       0.0270
     14  CG         9.8780  -29.4670   -1.2440 C.3    11  LEU11       0.0019
     15  CD1       11.1600  -29.1660   -1.9980 C.3    11  LEU11       0.0001
     16  CD2        9.2440  -30.7320   -1.7760 C.3    11  LEU11       0.0001
     17  N         11.6730  -29.4130    4.4120 N.3    13  SER13      -0.1217
     18  CA        12.9120  -28.7320    4.7190 C.3    13  SER13       0.1889
     19  C         12.7190  -27.5850    5.7050 C.2    13  SER13       0.2288
     20  O         11.7500  -26.8450    5.6300 O.2    13  SER13      -0.2866
     21  CB        13.5310  -28.2320    3.4230 C.3    13  SER13       0.2089
     22  OG        13.4700  -29.2570    2.4500 O.3    13  SER13      -0.2183
     23  N         20.2100  -23.6970    6.2530 N.3    30  TYR30      -0.1241
     24  CA        19.1710  -24.3640    5.4830 C.3    30  TYR30       0.1605
     25  C         19.3650  -25.8810    5.4850 C.2    30  TYR30       0.2264
     26  O         20.4590  -26.3770    5.2160 O.2    30  TYR30      -0.2867
     27  CB        19.1870  -23.8170    4.0470 C.3    30  TYR30       0.0534
     28  CG        17.8980  -24.0080    3.2900 C.ar   30  TYR30      -0.0201
     29  CD1       17.4570  -25.2790    2.9500 C.ar   30  TYR30      -0.0009
     30  CD2       17.1020  -22.9160    2.9420 C.ar   30  TYR30      -0.0009
     31  CE1       16.2600  -25.4700    2.2890 C.ar   30  TYR30       0.0417
     32  CE2       15.8970  -23.0960    2.2790 C.ar   30  TYR30       0.0417
     33  CZ        15.4840  -24.3800    1.9590 C.ar   30  TYR30       0.1957
     34  OH        14.2890  -24.5860    1.3250 O.3    30  TYR30      -0.2866
     35  N         17.5910  -28.9420    3.6940 N.3    32  THR32      -0.1218
     36  CA        16.6520  -29.4360    2.7090 C.3    32  THR32       0.1862
     37  C         16.3700  -30.8860    3.0310 C.2    32  THR32       0.2287
     38  O         17.0570  -31.4790    3.8560 O.2    32  THR32      -0.2866
     39  CB        17.2350  -29.3170    1.2840 C.3    32  THR32       0.1770
     40  OG1       16.4980  -30.1500    0.3840 O.3    32  THR32      -0.2211
     41  CG2       18.6830  -29.7270    1.2660 C.3    32  THR32       0.0375
     42  N         15.3550  -32.8650    0.2280 N.3    34  VAL34      -0.1231
     43  CA        15.4740  -33.4480   -1.1000 C.3    34  VAL34       0.1692
     44  C         16.7570  -32.9810   -1.7520 C.2    34  VAL34       0.2593
     45  O         17.5470  -32.2600   -1.1570 O.2    34  VAL34      -0.2718
     46  CB        14.3120  -33.0170   -2.0070 C.3    34  VAL34       0.0266
     47  CG1       13.0560  -33.8100   -1.6710 C.3    34  VAL34       0.0020
     48  CG2       14.0680  -31.5250   -1.8510 C.3    34  VAL34       0.0020
     49  N         16.9400  -33.3940   -2.9440 N.am   35  THR35      -0.1939
     50  CA        18.1330  -32.9690   -3.7290 C.3    35  THR35       0.2028
     51  C         17.8750  -33.3390   -5.1670 C.2    35  THR35       0.2642
     52  O         16.9110  -34.1550   -5.3540 O.2    35  THR35      -0.2714
     53  CB        19.3910  -33.5430   -3.1140 C.3    35  THR35       0.1808
     54  OG1       20.5820  -33.0760   -3.7950 O.3    35  THR35      -0.2208
     55  CG2       19.4670  -35.0440   -3.0430 C.3    35  THR35       0.0379
     56  N         18.8210  -33.3480   -6.0160 N.am   36  ALA36      -0.1977
     57  CA        18.6680  -34.0230   -7.3550 C.3    36  ALA36       0.1597
     58  C         18.7370  -35.5310   -7.2650 C.2    36  ALA36       0.2287
     59  O         18.8750  -36.2550   -8.2880 O.2    36  ALA36      -0.2864
     60  CB        19.7490  -33.4050   -8.2580 C.3    36  ALA36       0.0319
     61  N         24.9520  -37.4930   -3.5940 N.3    38  ASN38      -0.1240
     62  CA        25.7170  -37.5560   -2.3570 C.3    38  ASN38       0.1653
     63  C         24.7560  -37.6510   -1.1770 C.2    38  ASN38       0.2266
     64  O         23.7790  -38.3990   -1.2190 O.2    38  ASN38      -0.2867
     65  CB        26.6010  -36.3040   -2.1950 C.3    38  ASN38       0.1155
     66  CG        27.6030  -36.1230   -3.3390 C.2    38  ASN38       0.2627
     67  OD1       28.3380  -37.0470   -3.6930 O.2    38  ASN38      -0.2716
     68  ND2       27.6430  -34.9190   -3.9090 N.am   38  ASN38      -0.0877
     69  N         24.8430  -24.3080   -1.5770 N.3    66  TRP66      -0.1241
     70  CA        24.9950  -25.7340   -1.3370 C.3    66  TRP66       0.1605
     71  C         26.4590  -26.1350   -1.3640 C.2    66  TRP66       0.2264
     72  O         27.1050  -26.1070   -2.4150 O.2    66  TRP66      -0.2867
     73  CB        24.2120  -26.5280   -2.3840 C.3    66  TRP66       0.0550
     74  CG        22.7580  -26.2380   -2.3420 C.ar   66  TRP66       0.0003
     75  CD1       22.0020  -25.7100   -3.3380 C.ar   66  TRP66       0.0946
     76  CD2       21.8950  -26.3800   -1.2130 C.ar   66  TRP66       0.0152
     77  NE1       20.7170  -25.5030   -2.9010 N.ar   66  TRP66      -0.2442
     78  CE2       20.6230  -25.9050   -1.5940 C.ar   66  TRP66       0.0810
     79  CE3       22.0710  -26.8620    0.0930 C.ar   66  TRP66       0.0012
     80  CZ2       19.5290  -25.8930   -0.7230 C.ar   66  TRP66       0.0191
     81  CZ3       20.9800  -26.8530    0.9620 C.ar   66  TRP66       0.0001
     82  CH2       19.7260  -26.3700    0.5470 C.ar   66  TRP66       0.0015
     83  N         27.8670  -29.2540   -0.5570 N.3    68  PHE68      -0.1227
     84  CA        28.0100  -30.5450   -1.2330 C.3    68  PHE68       0.1736
     85  C         27.5220  -30.4330   -2.6780 C.2    68  PHE68       0.2596
     86  O         26.3310  -30.2390   -2.9300 O.2    68  PHE68      -0.2718
     87  CB        27.2170  -31.6240   -0.4890 C.3    68  PHE68       0.0547
     88  CG        25.7550  -31.3110   -0.3450 C.ar   68  PHE68      -0.0202
     89  CD1       25.3300  -30.2280    0.4280 C.ar   68  PHE68      -0.0042
     90  CD2       24.7950  -32.1050   -0.9730 C.ar   68  PHE68      -0.0042
     91  CE1       23.9660  -29.9360    0.5710 C.ar   68  PHE68      -0.0003
     92  CE2       23.4320  -31.8230   -0.8360 C.ar   68  PHE68      -0.0003
     93  CZ        23.0170  -30.7370   -0.0590 C.ar   68  PHE68      -0.0000
     94  N         28.4580  -30.5830   -3.6120 N.am   69  SER69      -0.1938
     95  CA        28.2180  -30.4530   -5.0550 C.3    69  SER69       0.2055
     96  C         28.3020  -28.9490   -5.3180 C.2    69  SER69       0.2643
     97  O         28.0740  -28.1410   -4.4090 O.2    69  SER69      -0.2714
     98  CB        26.8400  -30.9940   -5.4780 C.3    69  SER69       0.2130
     99  OG        25.7900  -30.0840   -5.1850 O.3    69  SER69      -0.2179
    100  N         28.6450  -28.5610   -6.5400 N.am   70  GLU70      -0.1963
    101  CA        28.7640  -27.1430   -6.8420 C.3    70  GLU70       0.1733
    102  C         27.4670  -26.5970   -7.4010 C.2    70  GLU70       0.2613
    103  O         27.2940  -26.4660   -8.6030 O.2    70  GLU70      -0.2715
    104  CB        29.9410  -26.9260   -7.7910 C.3    70  GLU70       0.0429
    105  CG        31.2590  -27.3570   -7.1420 C.3    70  GLU70       0.1163
    106  CD        32.3320  -27.8010   -8.1310 C.2    70  GLU70       0.3649
    107  OE1       32.0470  -28.6770   -8.9860 O.co2  70  GLU70      -0.2457
    108  OE2       33.4700  -27.2830   -8.0370 O.co2  70  GLU70      -0.2457
    109  N         26.5660  -26.3270   -6.5070 N.am   71  SER71      -0.2003
    110  CA        25.1950  -25.8140   -6.7760 C.3    71  SER71       0.1610
    111  C         25.1720  -24.3820   -6.2410 C.3    71  SER71       0.2063
    112  O         26.2750  -23.7730   -6.3480 O.3    71  SER71      -0.2184
    113  CB        24.2290  -26.7730   -6.1370 C.3    71  SER71       0.2063
    114  OG        24.3650  -28.1060   -6.5710 O.3    71  SER71      -0.2184
    115  N         21.3330  -22.1600   -4.4800 N.3    73  THR73      -0.1218
    116  CA        19.9040  -21.8440   -4.7820 C.3    73  THR73       0.1862
    117  C         19.6890  -20.3850   -4.4340 C.2    73  THR73       0.2287
    118  O         20.3790  -19.7830   -3.6210 O.2    73  THR73      -0.2866
    119  CB        18.9580  -22.7570   -4.0070 C.3    73  THR73       0.1770
    120  OG1       19.2950  -24.1290   -4.2820 O.3    73  THR73      -0.2211
    121  CG2       17.5030  -22.5400   -4.4030 C.3    73  THR73       0.0375
    122  N         16.3220  -17.8030   -3.2320 N.3    75  PHE75      -0.1241
    123  CA        14.8930  -17.7340   -2.9820 C.3    75  PHE75       0.1605
    124  C         14.4690  -16.2720   -3.0290 C.2    75  PHE75       0.2264
    125  O         15.1860  -15.3920   -2.5550 O.2    75  PHE75      -0.2867
    126  CB        14.5410  -18.3300   -1.6160 C.3    75  PHE75       0.0534
    127  CG        14.8580  -19.7850   -1.4800 C.ar   75  PHE75      -0.0203
    128  CD1       16.1640  -20.2180   -1.3720 C.ar   75  PHE75      -0.0042
    129  CD2       13.8410  -20.7210   -1.4310 C.ar   75  PHE75      -0.0042
    130  CE1       16.4580  -21.5660   -1.2090 C.ar   75  PHE75      -0.0003
    131  CE2       14.1220  -22.0760   -1.2690 C.ar   75  PHE75      -0.0003
    132  CZ        15.4350  -22.4980   -1.1580 C.ar   75  PHE75      -0.0000
    133  N         12.0110  -20.1380   -6.3910 N.3    93  TRP93      -0.1241
    134  CA        13.4570  -20.2100   -6.4150 C.3    93  TRP93       0.1605
    135  C         13.9890  -20.6220   -7.7580 C.2    93  TRP93       0.2264
    136  O         13.2450  -20.9510   -8.6820 O.2    93  TRP93      -0.2867
    137  CB        13.9660  -21.2090   -5.3730 C.3    93  TRP93       0.0550
    138  CG        13.2480  -22.5310   -5.3970 C.ar   93  TRP93       0.0003
    139  CD1       12.2420  -22.9280   -4.5660 C.ar   93  TRP93       0.0946
    140  CD2       13.4550  -23.6150   -6.3190 C.ar   93  TRP93       0.0152
    141  NE1       11.8100  -24.1880   -4.9100 N.ar   93  TRP93      -0.2442
    142  CE2       12.5380  -24.6290   -5.9850 C.ar   93  TRP93       0.0810
    143  CE3       14.3240  -23.8250   -7.3930 C.ar   93  TRP93       0.0012
    144  CZ2       12.4680  -25.8310   -6.6850 C.ar   93  TRP93       0.0191
    145  CZ3       14.2520  -25.0200   -8.0840 C.ar   93  TRP93       0.0001
    146  CH2       13.3330  -26.0040   -7.7280 C.ar   93  TRP93       0.0015
    147  N         17.3080  -23.0960   -8.9650 N.3    95  LEU95      -0.1245
    148  CA        18.3970  -23.9920   -8.5720 C.3    95  LEU95       0.1561
    149  C         19.4160  -24.0930   -9.7140 C.2    95  LEU95       0.2260
    150  O         19.1410  -24.7020  -10.7480 O.2    95  LEU95      -0.2867
    151  CB        17.8400  -25.3800   -8.2400 C.3    95  LEU95       0.0270
    152  CG        18.8160  -26.5380   -8.0100 C.3    95  LEU95       0.0019
    153  CD1       20.0780  -26.0140   -7.3790 C.3    95  LEU95       0.0001
    154  CD2       18.1720  -27.5900   -7.1150 C.3    95  LEU95       0.0001
    155  N         22.7580  -25.5020  -11.3880 N.3    97  SER97      -0.1202
    156  CA        23.6620  -26.6460  -11.3190 C.3    97  SER97       0.2020
    157  C         25.0020  -26.2960  -11.9910 C.2    97  SER97       0.2619
    158  O         25.0230  -25.5460  -12.9530 O.2    97  SER97      -0.2717
    159  CB        23.0290  -27.8470  -12.0260 C.3    97  SER97       0.2103
    160  OG        21.7940  -28.1820  -11.4330 O.3    97  SER97      -0.2182
    161  N         26.1160  -26.8310  -11.4970 N.am   98  SER98      -0.1951
    162  CA        27.4130  -26.5350  -12.1070 C.3    98  SER98       0.1924
    163  C         27.5230  -27.3220  -13.4040 C.2    98  SER98       0.2314
    164  O         27.3560  -28.5370  -13.4070 O.2    98  SER98      -0.2863
    165  CB        28.5550  -26.9240  -11.1620 C.3    98  SER98       0.2116
    166  OG        29.7670  -26.2710  -11.5000 O.3    98  SER98      -0.2180
    167  N         16.9330  -24.5640  -12.8530 N.3   110  ARG110     -0.1245
    168  CA        15.6410  -25.2100  -12.5640 C.3   110  ARG110      0.1563
    169  C         14.7690  -24.2000  -11.8120 C.2   110  ARG110      0.2260
    170  O         15.2890  -23.4410  -11.0040 O.2   110  ARG110     -0.2867
    171  CB        15.8070  -26.4130  -11.6450 C.3   110  ARG110      0.0307
    172  CG        16.1090  -27.7350  -12.2750 C.3   110  ARG110      0.0489
    173  CD        15.8810  -28.7870  -11.2080 C.3   110  ARG110      0.2205
    174  NE        16.4330  -30.0930  -11.5350 N.pl3 110  ARG110     -0.0865
    175  CZ        17.7270  -30.3290  -11.6740 C.cat 110  ARG110      0.5346
    176  NH1       18.5950  -29.3380  -11.5120 N.pl3 110  ARG110      0.1354
    177  NH2       18.1510  -31.5460  -11.9730 N.pl3 110  ARG110      0.1354
    178  N          8.2620  -22.8080   -3.1360 N.3   114  ASN114     -0.1240
    179  CA         8.3570  -23.2850   -1.7550 C.3   114  ASN114      0.1653
    180  C          7.6200  -22.2990   -0.8520 C.2   114  ASN114      0.2266
    181  O          7.6090  -21.0980   -1.1200 O.2   114  ASN114     -0.2867
    182  CB         9.8220  -23.3930   -1.3020 C.3   114  ASN114      0.1155
    183  CG        10.4370  -24.7460   -1.6030 C.2   114  ASN114      0.2627
    184  OD1        9.9140  -25.7770   -1.2030 O.2   114  ASN114     -0.2716
    185  ND2       11.5580  -24.7410   -2.3020 N.am  114  ASN114     -0.0877
@<TRIPOS>BOND
     1   164   163    2
     2   163   162    1
     3   158   157    2
     4   167   168    1
     5   168   169    1
     6   168   171    1
     7   172   171    1
     8   172   173    1
     9   162   161    1
    10   162   165    1
    11   159   160    1
    12   159   156    1
    13   157   161   am
    14   157   156    1
    15   177   175    1
    16   169   170    2
    17   175   174    2
    18   175   176    1
    19   174   173    1
    20   166   165    1
    21   155   156    1
    22   150   149    2
    23   149   148    1
    24   107   106   ar
    25   147   148    1
    26   136   135    2
    27   103   102    2
    28   148   151    1
    29    59    58    2
    30    60    57    1
    31   151   152    1
    32   106   108   ar
    33   106   105    1
    34   145   146   ar
    35   145   143   ar
    36   152   153    1
    37   152   154    1
    38   104   105    1
    39   104   101    1
    40   135   134    1
    41   146   144   ar
    42   102   101    1
    43   102   109   am
    44   143   140   ar
    45    57    58    1
    46    57    56    1
    47   101   100    1
    48   110   109    1
    49   110   111    1
    50   110   113    1
    51   144   142   ar
    52   114   113    1
    53   100    96   am
    54   134   133    1
    55   134   137    1
    56   112   111    1
    57   140   142   ar
    58   140   138   ar
    59    56    51   am
    60   142   141   ar
    61    98    99    1
    62    98    95    1
    63   138   137    1
    64   138   139   ar
    65    52    51    2
    66    96    95    1
    67    96    97    2
    68    51    50    1
    69    95    94    1
    70   141   139   ar
    71   116   115    1
    72   116   117    1
    73   116   119    1
    74   117   118    2
    75   121   119    1
    76   120   119    1
    77    68    66   am
    78    54    53    1
    79    50    53    1
    80    50    49    1
    81    67    66    2
    82    94    85   am
    83    61    62    1
    84    66    65    1
    85    75    77   ar
    86    75    74   ar
    87   122   123    1
    88   178   179    1
    89    53    55    1
    90   124   123    1
    91   124   125    2
    92   123   126    1
    93    49    44   am
    94    86    85    2
    95    77    78   ar
    96    85    84    1
    97    72    71    2
    98    73    74    1
    99    73    70    1
   100    62    65    1
   101    62    63    1
   102    74    76   ar
   103   185   183   am
   104    46    48    1
   105    46    47    1
   106    46    43    1
   107    15    14    1
   108    16    14    1
   109   179   182    1
   110   179   180    1
   111    44    45    2
   112    44    43    1
   113   126   127    1
   114   183   182    1
   115   183   184    2
   116    78    76   ar
   117    78    80   ar
   118    69    70    1
   119   127   129   ar
   120   127   128   ar
   121   129   131   ar
   122   128   130   ar
   123    71    70    1
   124   131   132   ar
   125    14    13    1
   126    84    83    1
   127    84    87    1
   128    64    63    2
   129    76    79   ar
   130   130   132   ar
   131   181   180    2
   132    43    42    1
   133    90    92   ar
   134    90    88   ar
   135    92    93   ar
   136    80    82   ar
   137    87    88    1
   138    88    89   ar
   139    93    91   ar
   140    79    81   ar
   141    13    10    1
   142    40    39    1
   143    89    91   ar
   144    82    81   ar
   145    10     9    1
   146    10    11    1
   147    41    39    1
   148    39    36    1
   149    34    33    1
   150     8     6   am
   151    33    32   ar
   152    33    31   ar
   153    12    11    2
   154     7     6    2
   155    32    30   ar
   156    31    29   ar
   157     6     5    1
   158    22    21    1
   159    36    37    1
   160    36    35    1
   161     5     2    1
   162    30    28   ar
   163    29    28   ar
   164    37    38    2
   165    28    27    1
   166    21    18    1
   167     3     2    1
   168     3     4    2
   169     2     1    1
   170    27    24    1
   171    17    18    1
   172    18    19    1
   173    26    25    2
   174    24    25    1
   175    24    23    1
   176    20    19    2
