@<TRIPOS>MOLECULE
tmp/3fdhA00.pdb
 100 94 0 0 0
SMALL
GASTEIGER

@<TRIPOS>ATOM
      1  N         17.9270   31.1280   33.5200 N.3   402  PHE402     -0.1241
      2  CA        17.6810   30.7560   32.1150 C.3   402  PHE402      0.1605
      3  C         17.1120   29.3740   32.0750 C.2   402  PHE402      0.2264
      4  O         16.1330   29.0700   31.3760 O.2   402  PHE402     -0.2867
      5  CB        18.9920   30.7840   31.2630 C.3   402  PHE402      0.0534
      6  CG        18.7340   30.5670   29.8040 C.ar  402  PHE402     -0.0203
      7  CD1       18.3650   31.6020   28.9840 C.ar  402  PHE402     -0.0042
      8  CD2       18.7720   29.3190   29.2790 C.ar  402  PHE402     -0.0042
      9  CE1       18.0610   31.3790   27.6710 C.ar  402  PHE402     -0.0003
     10  CE2       18.4910   29.0920   27.9730 C.ar  402  PHE402     -0.0003
     11  CZ        18.1270   30.1180   27.1560 C.ar  402  PHE402     -0.0000
     12  N         13.4760   27.7460   31.1000 N.3   405  LYS405     -0.1245
     13  CA        13.3510   26.5640   30.2650 C.3   405  LYS405      0.1561
     14  C         12.3730   25.5420   30.8450 C.2   405  LYS405      0.2260
     15  O         11.4910   25.0310   30.1360 O.2   405  LYS405     -0.2867
     16  CB        14.6880   25.8590   30.0410 C.3   405  LYS405      0.0271
     17  CG        15.4840   26.4450   28.9630 C.3   405  LYS405      0.0035
     18  CD        16.7460   25.6180   28.6040 C.3   405  LYS405      0.0206
     19  CE        16.4560   24.3300   27.8870 C.3   405  LYS405      0.1093
     20  NZ        15.8780   24.4360   26.5260 N.3   405  LYS405     -0.1314
     21  N          8.9620   26.4590   30.4320 N.3   408  ASN408     -0.1225
     22  CA         8.7130   26.6030   28.9970 C.3   408  ASN408      0.1785
     23  C          8.5170   28.0170   28.5580 C.2   408  ASN408      0.2597
     24  O          7.5880   28.3430   27.8230 O.2   408  ASN408     -0.2718
     25  CB         7.5370   25.7870   28.5080 C.3   408  ASN408      0.1169
     26  CG         7.5610   25.6350   27.0360 C.2   408  ASN408      0.2627
     27  OD1        8.6100   25.8430   26.4140 O.2   408  ASN408     -0.2716
     28  ND2        6.4180   25.2830   26.4420 N.am  408  ASN408     -0.0877
     29  N          9.4040   28.8660   29.0410 N.am  409  GLU409     -0.1965
     30  CA         9.4320   30.2820   28.6890 C.3   409  GLU409      0.1733
     31  C         10.6890   30.5550   27.8650 C.2   409  GLU409      0.2616
     32  O         11.7810   30.0850   28.1780 O.2   409  GLU409     -0.2715
     33  CB         9.3930   31.1390   29.9310 C.3   409  GLU409      0.0429
     34  CG         8.0450   31.0040   30.6930 C.3   409  GLU409      0.1163
     35  CD         8.0480   31.6010   32.0950 C.2   409  GLU409      0.3649
     36  OE1        9.1300   31.9360   32.6280 O.co2 409  GLU409     -0.2457
     37  OE2        6.9400   31.6930   32.6790 O.co2 409  GLU409     -0.2457
     38  N         10.4980   31.3290   26.8150 N.am  410  ASN410     -0.1972
     39  CA        11.5580   31.6410   25.8540 C.3   410  ASN410      0.1688
     40  C         11.7010   33.1570   25.7650 C.2   410  ASN410      0.2292
     41  O         11.3200   33.7320   24.7510 O.2   410  ASN410     -0.2864
     42  CB        11.1870   31.1420   24.4260 C.3   410  ASN410      0.1181
     43  CG        10.8060   29.6340   24.3410 C.2   410  ASN410      0.2629
     44  OD1       10.1590   29.0550   25.2210 O.2   410  ASN410     -0.2716
     45  ND2       11.1740   29.0180   23.2240 N.am  410  ASN410     -0.0877
     46  N         14.6500   34.9650   26.7570 N.3   412  ILE412     -0.1245
     47  CA        16.0590   35.3020   26.4980 C.3   412  ILE412      0.1561
     48  C         16.5280   34.5240   25.2890 C.2   412  ILE412      0.2260
     49  O         16.6050   33.3190   25.3100 O.2   412  ILE412     -0.2867
     50  CB        16.9960   34.9850   27.7050 C.3   412  ILE412      0.0252
     51  CG1       16.5040   35.6370   28.9990 C.3   412  ILE412      0.0019
     52  CG2       18.4730   35.3420   27.3860 C.3   412  ILE412      0.0019
     53  CD1       16.2640   37.0600   28.8890 C.3   412  ILE412      0.0001
     54  N         19.1340   33.0840   22.6810 N.3   414  LEU414     -0.1245
     55  CA        20.5360   32.6490   22.5220 C.3   414  LEU414      0.1561
     56  C         20.7380   32.2810   21.0830 C.2   414  LEU414      0.2260
     57  O         19.8660   31.6770   20.4860 O.2   414  LEU414     -0.2867
     58  CB        20.8490   31.4440   23.4160 C.3   414  LEU414      0.0270
     59  CG        20.6500   31.7460   24.9080 C.3   414  LEU414      0.0019
     60  CD1       21.0870   30.4940   25.6770 C.3   414  LEU414      0.0001
     61  CD2       21.4240   32.9750   25.3030 C.3   414  LEU414      0.0001
     62  N         23.4420   24.8830   20.1680 N.3   419  ASN419     -0.1225
     63  CA        22.4190   24.6940   21.2000 C.3   419  ASN419      0.1785
     64  C         21.2530   23.8050   20.7610 C.2   419  ASN419      0.2598
     65  O         20.3730   23.5020   21.5700 O.2   419  ASN419     -0.2718
     66  CB        21.8670   26.0520   21.6450 C.3   419  ASN419      0.1169
     67  CG        22.7680   26.7510   22.6020 C.2   419  ASN419      0.2627
     68  OD1       23.7460   26.1900   23.0970 O.2   419  ASN419     -0.2716
     69  ND2       22.4270   27.9700   22.9060 N.am  419  ASN419     -0.0877
     70  N         21.2780   23.3840   19.4940 N.am  420  SER420     -0.1938
     71  CA        20.2220   22.5490   18.9290 C.3   420  SER420      0.2055
     72  C         20.2230   21.2220   19.6610 C.2   420  SER420      0.2643
     73  O         19.1800   20.6620   19.9880 O.2   420  SER420     -0.2714
     74  CB        20.4120   22.3320   17.4240 C.3   420  SER420      0.2130
     75  OG        21.7060   21.8110   17.1550 O.3   420  SER420     -0.2179
     76  N         21.4280   20.7390   19.9550 N.am  421  SER421     -0.1949
     77  CA        21.5840   19.5080   20.7160 C.3   421  SER421      0.1924
     78  C         22.6050   19.5920   21.8480 C.2   421  SER421      0.2314
     79  O         22.7180   18.6580   22.6370 O.2   421  SER421     -0.2863
     80  CB        22.0190   18.3870   19.7980 C.3   421  SER421      0.2116
     81  OG        23.3070   18.6710   19.2640 O.3   421  SER421     -0.2180
     82  N         23.0860   22.4120   24.3040 N.3   423  PHE423     -0.1241
     83  CA        22.9340   23.4160   25.3390 C.3   423  PHE423      0.1605
     84  C         23.0660   22.7230   26.6880 C.2   423  PHE423      0.2264
     85  O         22.2860   21.8280   26.9960 O.2   423  PHE423     -0.2867
     86  CB        21.5820   24.1100   25.3050 C.3   423  PHE423      0.0534
     87  CG        21.4610   25.0970   26.3970 C.ar  423  PHE423     -0.0203
     88  CD1       22.1660   26.2860   26.3370 C.ar  423  PHE423     -0.0042
     89  CD2       20.7360   24.8030   27.5370 C.ar  423  PHE423     -0.0042
     90  CE1       22.1490   27.1810   27.3840 C.ar  423  PHE423     -0.0003
     91  CE2       20.6710   25.7010   28.5550 C.ar  423  PHE423     -0.0003
     92  CZ        21.3910   26.8990   28.4960 C.ar  423  PHE423     -0.0000
     93  N         22.4650   21.7140   30.2370 N.3   425  LEU425     -0.1245
     94  CA        21.3740   21.8850   31.2200 C.3   425  LEU425      0.1561
     95  C         21.9060   21.8730   32.6330 C.2   425  LEU425      0.2260
     96  O         21.1860   22.1420   33.5970 O.2   425  LEU425     -0.2867
     97  CB        20.3670   20.7520   31.0820 C.3   425  LEU425      0.0270
     98  CG        19.7440   20.6050   29.7050 C.3   425  LEU425      0.0019
     99  CD1       18.8260   19.3990   29.6460 C.3   425  LEU425      0.0001
    100  CD2       18.9430   21.7760   29.4060 C.3   425  LEU425      0.0001
@<TRIPOS>BOND
     1    75    74    1
     2    74    71    1
     3    71    70    1
     4    71    72    1
     5    81    80    1
     6    70    64   am
     7    72    76   am
     8    72    73    2
     9    80    77    1
    10    76    77    1
    11    62    63    1
    12    57    56    2
    13    77    78    1
    14    64    63    1
    15    64    65    2
    16    56    55    1
    17    63    66    1
    18    66    67    1
    19    78    79    2
    20    55    54    1
    21    55    58    1
    22    67    69   am
    23    67    68    2
    24    45    43   am
    25    58    59    1
    26    82    83    1
    27    43    42    1
    28    43    44    2
    29    42    39    1
    30    41    40    2
    31    59    61    1
    32    59    60    1
    33    48    49    2
    34    48    47    1
    35    86    83    1
    36    86    87    1
    37    83    84    1
    38    40    39    1
    39    39    38    1
    40    88    87   ar
    41    88    90   ar
    42    87    89   ar
    43    27    26    2
    44    28    26   am
    45    47    46    1
    46    47    50    1
    47    20    19    1
    48    84    85    2
    49    38    31   am
    50    26    25    1
    51    11     9   ar
    52    11    10   ar
    53    90    92   ar
    54    52    50    1
    55    89    91   ar
    56     9     7   ar
    57    50    51    1
    58    24    23    2
    59    31    32    2
    60    31    30    1
    61    19    18    1
    62    10     8   ar
    63    92    91   ar
    64    25    22    1
    65    23    22    1
    66    23    29   am
    67    18    17    1
    68    30    29    1
    69    30    33    1
    70    53    51    1
    71    17    16    1
    72     7     6   ar
    73    22    21    1
    74     8     6   ar
    75   100    98    1
    76    99    98    1
    77    98    97    1
    78     6     5    1
    79    33    34    1
    80    16    13    1
    81    15    14    2
    82    93    94    1
    83    13    14    1
    84    13    12    1
    85    34    35    1
    86    97    94    1
    87    94    95    1
    88     5     2    1
    89     4     3    2
    90     3     2    1
    91    35    36   ar
    92    35    37   ar
    93     2     1    1
    94    95    96    2
