@<TRIPOS>MOLECULE
tmp/3fdjA00.pdb
 175 161 0 0 0
SMALL
GASTEIGER

@<TRIPOS>ATOM
      1  N          6.0520   -1.6880   34.0690 N.3    23  LEU23      -0.1245
      2  CA         5.0470   -1.4700   35.0970 C.3    23  LEU23       0.1561
      3  C          3.7170   -1.1560   34.4060 C.2    23  LEU23       0.2260
      4  O          3.6790   -0.9210   33.1890 O.2    23  LEU23      -0.2867
      5  CB         5.4780   -0.3340   36.0390 C.3    23  LEU23       0.0270
      6  CG         6.4390   -0.7990   37.1580 C.3    23  LEU23       0.0019
      7  CD1        7.8450   -0.7920   36.6510 C.3    23  LEU23       0.0001
      8  CD2        6.3250    0.0400   38.4540 C.3    23  LEU23       0.0001
      9  N         -0.7290    2.3080   40.2030 N.3    55  THR55      -0.1203
     10  CA         0.3400    1.6470   39.5010 C.3    55  THR55       0.1994
     11  C          0.6240    0.2900   40.1350 C.2    55  THR55       0.2618
     12  O          0.3190    0.0580   41.3060 O.2    55  THR55      -0.2717
     13  CB         1.6400    2.5060   39.4520 C.3    55  THR55       0.1784
     14  OG1        2.1140    2.7880   40.7810 O.3    55  THR55      -0.2211
     15  CG2        1.3630    3.8250   38.7110 C.3    55  THR55       0.0376
     16  N          1.2210   -0.5960   39.3530 N.am   56  ALA56      -0.1965
     17  CA         1.5760   -1.9300   39.8320 C.3    56  ALA56       0.1728
     18  C          2.9660   -2.3000   39.3450 C.2    56  ALA56       0.2616
     19  O          3.3350   -1.9870   38.2100 O.2    56  ALA56      -0.2715
     20  CB         0.5700   -2.9470   39.3310 C.3    56  ALA56       0.0334
     21  N          3.7110   -3.0150   40.1860 N.am   57  CYS57      -0.1968
     22  CA         5.0380   -3.5010   39.7910 C.3    57  CYS57       0.1712
     23  C          4.8880   -4.7010   38.8360 C.2    57  CYS57       0.2296
     24  O          3.7760   -5.2480   38.6780 O.2    57  CYS57      -0.2864
     25  CB         5.8460   -3.8630   41.0280 C.3    57  CYS57       0.0983
     26  SG         5.2380   -5.3010   41.8330 S.3    57  CYS57      -0.0798
     27  N         13.5830    0.6540   40.3570 N.3    78  ILE78      -0.1231
     28  CA        13.1330    1.8660   41.0280 C.3    78  ILE78       0.1692
     29  C         13.2370    1.6450   42.5480 C.2    78  ILE78       0.2592
     30  O         13.1690    0.5090   43.0430 O.2    78  ILE78      -0.2718
     31  CB        11.6960    2.2070   40.5580 C.3    78  ILE78       0.0266
     32  CG1       11.1140    3.4670   41.2510 C.3    78  ILE78       0.0019
     33  CG2       10.8050    1.0220   40.7630 C.3    78  ILE78       0.0020
     34  CD1        9.9140    4.0360   40.4940 C.3    78  ILE78       0.0001
     35  N         13.4490    2.7370   43.2720 N.am   79  THR79      -0.1953
     36  CA        13.6290    2.7210   44.7090 C.3    79  THR79       0.1897
     37  C         12.6990    1.7800   45.4860 C.2    79  THR79       0.2313
     38  O         11.4560    1.8000   45.3630 O.2    79  THR79      -0.2863
     39  CB        13.5200    4.1480   45.2920 C.3    79  THR79       0.1794
     40  OG1       13.6190    4.0700   46.7160 O.3    79  THR79      -0.2208
     41  CG2       12.2120    4.8340   44.8780 C.3    79  THR79       0.0378
     42  N          8.3150    1.6710   46.1860 N.3    82  SER82      -0.1202
     43  CA         7.6970    0.7070   45.3020 C.3    82  SER82       0.2020
     44  C          8.0530   -0.7010   45.7200 C.2    82  SER82       0.2619
     45  O          9.1560   -0.9470   46.1940 O.2    82  SER82      -0.2717
     46  CB         8.1950    0.9460   43.8800 C.3    82  SER82       0.2103
     47  OG         7.7600   -0.0370   42.9630 O.3    82  SER82      -0.2182
     48  N          7.1230   -1.6230   45.4710 N.am   83  GLY83      -0.1942
     49  CA         7.3740   -3.0620   45.5730 C.3    83  GLY83       0.2014
     50  C          8.1730   -3.6930   44.4300 C.2    83  GLY83       0.2639
     51  O          8.3710   -4.9130   44.3930 O.2    83  GLY83      -0.2714
     52  N          8.6810   -2.8840   43.5130 N.am   84  THR84      -0.1950
     53  CA         9.4120   -3.3990   42.3590 C.3    84  THR84       0.1897
     54  C         10.6600   -4.1820   42.7150 C.2    84  THR84       0.2313
     55  O         10.8550   -5.3050   42.2200 O.2    84  THR84      -0.2863
     56  CB         9.7310   -2.2940   41.3550 C.3    84  THR84       0.1794
     57  OG1        8.5050   -1.7090   40.9030 O.3    84  THR84      -0.2208
     58  CG2       10.4590   -2.8660   40.1430 C.3    84  THR84       0.0378
     59  N         16.3020    5.3880   43.5760 N.3   110  SER110     -0.1202
     60  CA        15.8630    6.4980   42.7790 C.3   110  SER110      0.2020
     61  C         14.9270    6.0430   41.6490 C.2   110  SER110      0.2619
     62  O         14.1380    5.1180   41.8240 O.2   110  SER110     -0.2717
     63  CB        17.1110    7.2050   42.2340 C.3   110  SER110      0.2103
     64  OG        16.7990    8.4810   41.6720 O.3   110  SER110     -0.2182
     65  N         14.9910    6.7330   40.5140 N.am  111  THR111     -0.1952
     66  CA        14.1060    6.4780   39.3790 C.3   111  THR111      0.1897
     67  C         14.6950    7.1390   38.1430 C.2   111  THR111      0.2313
     68  O         15.6540    7.9210   38.2370 O.2   111  THR111     -0.2863
     69  CB        12.6940    7.0380   39.6370 C.3   111  THR111      0.1794
     70  OG1       11.7730    6.4360   38.7170 O.3   111  THR111     -0.2208
     71  CG2       12.6680    8.5860   39.5200 C.3   111  THR111      0.0378
     72  N         19.8570   12.9800   41.9960 N.3   145  LEU145     -0.1245
     73  CA        18.6840   13.2540   41.2000 C.3   145  LEU145      0.1561
     74  C         17.9630   14.4790   41.7240 C.2   145  LEU145      0.2260
     75  O         17.7770   14.6270   42.9330 O.2   145  LEU145     -0.2867
     76  CB        17.7250   12.0580   41.2130 C.3   145  LEU145      0.0270
     77  CG        16.4120   12.2550   40.4410 C.3   145  LEU145      0.0019
     78  CD1       16.0090   10.9420   39.7530 C.3   145  LEU145      0.0001
     79  CD2       15.3060   12.7600   41.3290 C.3   145  LEU145      0.0001
     80  N         14.3330   16.9650   40.6470 N.3   147  CYS147     -0.1235
     81  CA        13.1570   17.0370   39.8060 C.3   147  CYS147      0.1677
     82  C         12.4490   18.3620   40.0140 C.2   147  CYS147      0.2270
     83  O         12.6350   19.0150   41.0300 O.2   147  CYS147     -0.2867
     84  CB        12.2140   15.8690   40.0700 C.3   147  CYS147      0.0956
     85  SG        11.5620   15.8090   41.7100 S.3   147  CYS147     -0.0801
     86  N          8.3680   19.4140   39.4850 N.3   149  LEU149     -0.1245
     87  CA         7.0540   18.8930   39.1600 C.3   149  LEU149      0.1561
     88  C          5.9890   19.9830   39.2340 C.2   149  LEU149      0.2260
     89  O          5.9110   20.7120   40.2170 O.2   149  LEU149     -0.2867
     90  CB         6.7050   17.7440   40.0990 C.3   149  LEU149      0.0270
     91  CG         7.7720   16.6660   40.2370 C.3   149  LEU149      0.0019
     92  CD1        7.2680   15.5330   41.1320 C.3   149  LEU149      0.0001
     93  CD2        8.1950   16.1150   38.8440 C.3   149  LEU149      0.0001
     94  N          1.2870   11.2850   42.6720 N.3   155  LEU155     -0.1245
     95  CA         2.0950   10.9130   43.8260 C.3   155  LEU155      0.1561
     96  C          1.2780   10.9490   45.1190 C.2   155  LEU155      0.2260
     97  O          1.2890    9.9980   45.8960 O.2   155  LEU155     -0.2867
     98  CB         3.3210   11.8260   43.9740 C.3   155  LEU155      0.0270
     99  CG         4.4460   11.6040   42.9730 C.3   155  LEU155      0.0019
    100  CD1        5.2910   12.8850   42.8560 C.3   155  LEU155      0.0001
    101  CD2        5.2960   10.3830   43.3120 C.3   155  LEU155      0.0001
    102  N          2.5720    8.6790   48.0200 N.3   160  ARG160     -0.1245
    103  CA         4.0210    8.7630   47.8160 C.3   160  ARG160      0.1563
    104  C          4.6410   10.1300   48.1040 C.2   160  ARG160      0.2260
    105  O          5.8720   10.2760   48.0740 O.2   160  ARG160     -0.2867
    106  CB         4.3760    8.2320   46.4240 C.3   160  ARG160      0.0307
    107  CG         4.2220    6.7210   46.4580 C.3   160  ARG160      0.0489
    108  CD         4.2060    6.0570   45.1390 C.3   160  ARG160      0.2205
    109  NE         4.3570    4.6240   45.3850 N.pl3 160  ARG160     -0.0865
    110  CZ         3.4590    3.6840   45.1060 C.cat 160  ARG160      0.5346
    111  NH1        3.7290    2.4240   45.4110 N.pl3 160  ARG160      0.1354
    112  NH2        2.3110    3.9780   44.5040 N.pl3 160  ARG160      0.1354
    113  N         16.0680   12.9240   45.2360 N.3   180  ALA180     -0.1245
    114  CA        16.0080   11.5770   45.8030 C.3   180  ALA180      0.1562
    115  C         16.7700   11.6010   47.1270 C.2   180  ALA180      0.2260
    116  O         17.9490   11.9990   47.1820 O.2   180  ALA180     -0.2867
    117  CB        16.5870   10.5420   44.8120 C.3   180  ALA180      0.0290
    118  N         15.8370    6.8380   49.5930 N.3   184  GLY184     -0.1210
    119  CA        15.1480    6.5060   48.3780 C.3   184  GLY184      0.1956
    120  C         13.7120    6.9850   48.3530 C.2   184  GLY184      0.2613
    121  O         12.8430    6.3200   47.7840 O.2   184  GLY184     -0.2717
    122  N         13.4650    8.1630   48.9220 N.am  185  THR185     -0.1938
    123  CA        12.1550    8.7680   48.8680 C.3   185  THR185      0.2028
    124  C         12.2630   10.1660   48.2680 C.2   185  THR185      0.2642
    125  O         13.3610   10.6930   48.0700 O.2   185  THR185     -0.2714
    126  CB        11.5270    8.8510   50.2670 C.3   185  THR185      0.1808
    127  OG1       12.3700    9.6450   51.1130 O.3   185  THR185     -0.2208
    128  CG2       11.3630    7.4500   50.8710 C.3   185  THR185      0.0379
    129  N         11.1240   10.7580   47.9540 N.am  186  LEU186     -0.1977
    130  CA        11.0920   12.0660   47.3240 C.3   186  LEU186      0.1596
    131  C         11.1660   13.1010   48.4310 C.2   186  LEU186      0.2287
    132  O         10.3000   13.1410   49.3050 O.2   186  LEU186     -0.2864
    133  CB         9.8110   12.2530   46.5210 C.3   186  LEU186      0.0297
    134  CG         9.6120   13.5990   45.8360 C.3   186  LEU186      0.0022
    135  CD1       10.7490   13.9840   44.8860 C.3   186  LEU186      0.0001
    136  CD2        8.2820   13.5840   45.0810 C.3   186  LEU186      0.0001
    137  N          5.5300    5.2130   33.2810 N.3   250  LEU250     -0.1231
    138  CA         5.5200    5.2720   34.7370 C.3   250  LEU250      0.1693
    139  C          5.9810    6.6340   35.2170 C.2   250  LEU250      0.2592
    140  O          5.3280    7.2790   36.0460 O.2   250  LEU250     -0.2718
    141  CB         6.4400    4.1790   35.3010 C.3   250  LEU250      0.0284
    142  CG         6.4300    3.9390   36.8170 C.3   250  LEU250      0.0019
    143  CD1        7.1970    5.0100   37.5720 C.3   250  LEU250      0.0001
    144  CD2        4.9720    3.8050   37.3280 C.3   250  LEU250      0.0001
    145  N          7.1180    7.0920   34.7120 N.am  251  CYS251     -0.1970
    146  CA         7.6020    8.4100   35.0890 C.3   251  CYS251      0.1712
    147  C          6.6590    9.5220   34.6180 C.2   251  CYS251      0.2296
    148  O          6.4850   10.5040   35.3280 O.2   251  CYS251     -0.2864
    149  CB         9.0370    8.6530   34.6330 C.3   251  CYS251      0.0983
    150  SG        10.2680    7.6740   35.6270 S.3   251  CYS251     -0.0798
    151  N          3.7540    9.7330   37.2720 N.3   254  TYR254     -0.1227
    152  CA         4.0950   10.2910   38.5780 C.3   254  TYR254      0.1736
    153  C          4.7160   11.6840   38.5270 C.2   254  TYR254      0.2595
    154  O          4.5020   12.4840   39.4470 O.2   254  TYR254     -0.2718
    155  CB         4.9890    9.3190   39.3570 C.3   254  TYR254      0.0548
    156  CG         4.2160    8.2070   40.0300 C.ar  254  TYR254     -0.0200
    157  CD1        3.2480    8.4990   41.0030 C.ar  254  TYR254     -0.0009
    158  CD2        4.4190    6.8590   39.6870 C.ar  254  TYR254     -0.0009
    159  CE1        2.5210    7.4830   41.6240 C.ar  254  TYR254      0.0417
    160  CE2        3.7030    5.8470   40.3170 C.ar  254  TYR254      0.0417
    161  CZ         2.7710    6.1640   41.2830 C.ar  254  TYR254      0.1957
    162  OH         2.0290    5.1760   41.8870 O.3   254  TYR254     -0.2866
    163  N          5.4770   11.9870   37.4800 N.am  255  ALA255     -0.1980
    164  CA         6.0300   13.3490   37.3140 C.3   255  ALA255      0.1597
    165  C          5.0160   14.3380   36.7470 C.2   255  ALA255      0.2287
    166  O          5.1060   15.5440   36.9990 O.2   255  ALA255     -0.2864
    167  CB         7.3030   13.3320   36.4690 C.3   255  ALA255      0.0319
    168  N         12.8740   15.5230   35.2680 N.3   261  ILE261     -0.1245
    169  CA        13.7290   14.8210   36.2240 C.3   261  ILE261      0.1561
    170  C         15.1430   14.7920   35.6520 C.2   261  ILE261      0.2260
    171  O         15.3310   14.5040   34.4740 O.2   261  ILE261     -0.2867
    172  CB        13.2790   13.3710   36.4730 C.3   261  ILE261      0.0252
    173  CG1       11.7610   13.2540   36.6620 C.3   261  ILE261      0.0019
    174  CG2       14.0430   12.7990   37.6680 C.3   261  ILE261      0.0019
    175  CD1       11.2890   11.8020   36.7650 C.3   261  ILE261      0.0001
@<TRIPOS>BOND
     1     4     3    2
     2   137   138    1
     3     1     2    1
     4     3     2    1
     5   171   170    2
     6   147   146    1
     7   147   148    2
     8   149   146    1
     9   149   150    1
    10   145   146    1
    11   145   139   am
    12   138   139    1
    13   138   141    1
    14     2     5    1
    15   139   140    2
    16   168   169    1
    17   141   142    1
    18   170   169    1
    19     5     6    1
    20   169   172    1
    21   167   164    1
    22   172   173    1
    23   172   174    1
    24     7     6    1
    25   173   175    1
    26   165   166    2
    27   165   164    1
    28   142   144    1
    29   142   143    1
    30     6     8    1
    31   151   152    1
    32   164   163    1
    33   163   153   am
    34    67    68    2
    35    67    66    1
    36    19    18    2
    37   153   152    1
    38   153   154    2
    39   152   155    1
    40    24    23    2
    41    15    13    1
    42    70    69    1
    43    23    22    1
    44    93    91    1
    45    87    88    1
    46    87    86    1
    47    87    90    1
    48    88    89    2
    49    20    17    1
    50    18    17    1
    51    18    21   am
    52    16    17    1
    53    16    11   am
    54   155   156    1
    55    66    69    1
    56    66    65    1
    57    13    10    1
    58    13    14    1
    59    10    11    1
    60    10     9    1
    61    71    69    1
    62   158   156   ar
    63   158   160   ar
    64    78    77    1
    65    22    21    1
    66    22    25    1
    67    81    82    1
    68    81    84    1
    69    81    80    1
    70    82    83    2
    71   156   157   ar
    72    84    85    1
    73    90    91    1
    74    11    12    2
    75    58    56    1
    76    91    92    1
    77   160   161   ar
    78    27    28    1
    79    77    76    1
    80    77    79    1
    81    34    32    1
    82    65    61   am
    83    31    33    1
    84    31    28    1
    85    31    32    1
    86    57    56    1
    87   157   159   ar
    88    28    29    1
    89    25    26    1
    90    73    76    1
    91    73    74    1
    92    73    72    1
    93   161   159   ar
    94   161   162    1
    95    56    53    1
    96    61    62    2
    97    61    60    1
    98    64    63    1
    99    74    75    2
   100    55    54    2
   101    63    60    1
   102    53    54    1
   103    53    52    1
   104    29    30    2
   105    29    35   am
   106    94    95    1
   107    60    59    1
   108   100    99    1
   109    47    46    1
   110    99   101    1
   111    99    98    1
   112    35    36    1
   113    52    50   am
   114    95    98    1
   115    95    96    1
   116    46    43    1
   117    51    50    2
   118    50    49    1
   119   112   110    1
   120    36    39    1
   121    36    37    1
   122   117   114    1
   123    41    39    1
   124   135   134    1
   125   136   134    1
   126   110   109    2
   127   110   111    1
   128    96    97    2
   129   108   109    1
   130   108   107    1
   131   113   114    1
   132    39    40    1
   133    43    44    1
   134    43    42    1
   135    38    37    2
   136    48    49    1
   137    48    44   am
   138    44    45    2
   139   114   115    1
   140   134   133    1
   141   106   107    1
   142   106   103    1
   143   133   130    1
   144   115   116    2
   145   130   129    1
   146   130   131    1
   147   121   120    2
   148   103   102    1
   149   103   104    1
   150   129   124   am
   151   125   124    2
   152   105   104    2
   153   124   123    1
   154   120   119    1
   155   120   122   am
   156   119   118    1
   157   131   132    2
   158   123   122    1
   159   123   126    1
   160   126   128    1
   161   126   127    1
