@<TRIPOS>MOLECULE
tmp/3fdnA00.pdb
 154 145 0 0 0
SMALL
GASTEIGER

@<TRIPOS>ATOM
      1  N          6.0920  -27.4130    4.6960 N.3    12  ARG12      -0.1245
      2  CA         5.4190  -27.3420    3.4190 C.3    12  ARG12       0.1563
      3  C          3.9470  -26.9700    3.5480 C.2    12  ARG12       0.2260
      4  O          3.3120  -27.2740    4.5820 O.2    12  ARG12      -0.2867
      5  CB         5.5880  -28.6340    2.6340 C.3    12  ARG12       0.0307
      6  CG         4.8880  -29.8230    3.1940 C.3    12  ARG12       0.0489
      7  CD         4.5140  -30.7340    2.0320 C.3    12  ARG12       0.2205
      8  NE         3.8560  -31.9270    2.5350 N.pl3  12  ARG12      -0.0865
      9  CZ         2.6060  -32.2770    2.2720 C.cat  12  ARG12       0.5346
     10  NH1        1.8450  -31.5360    1.4650 N.pl3  12  ARG12       0.1354
     11  NH2        2.1310  -33.3900    2.8040 N.pl3  12  ARG12       0.1354
     12  N          0.2800  -27.5710    3.2410 N.3    14  LEU14      -0.1231
     13  CA        -0.5450  -28.7690    3.2220 C.3    14  LEU14       0.1693
     14  C         -1.7350  -28.5560    2.3030 C.2    14  LEU14       0.2593
     15  O         -2.1460  -29.4520    1.5650 O.2    14  LEU14      -0.2718
     16  CB        -0.9850  -29.1310    4.6490 C.3    14  LEU14       0.0284
     17  CG         0.1570  -29.5280    5.5980 C.3    14  LEU14       0.0019
     18  CD1       -0.3590  -29.7550    7.0100 C.3    14  LEU14       0.0001
     19  CD2        0.8780  -30.7790    5.0910 C.3    14  LEU14       0.0001
     20  N         -2.2870  -27.3540    2.3350 N.am   15  GLY15      -0.1942
     21  CA        -3.4170  -27.0590    1.4850 C.3    15  GLY15       0.2014
     22  C         -3.7940  -25.5980    1.5210 C.2    15  GLY15       0.2638
     23  O         -3.2300  -24.8120    2.2830 O.2    15  GLY15      -0.2714
     24  N         -4.7490  -25.2530    0.6660 N.am   16  LYS16      -0.1977
     25  CA        -5.3140  -23.9160    0.6070 C.3    16  LYS16       0.1596
     26  C         -6.8400  -23.9790    0.6100 C.2    16  LYS16       0.2287
     27  O         -7.4490  -24.9510    0.1410 O.2    16  LYS16      -0.2864
     28  CB        -4.8000  -23.1820   -0.6310 C.3    16  LYS16       0.0298
     29  CG        -3.4470  -22.5250   -0.4160 C.3    16  LYS16       0.0038
     30  CD        -2.4190  -22.9650   -1.4550 C.3    16  LYS16       0.0206
     31  CE        -0.9940  -22.6810   -0.9660 C.3    16  LYS16       0.1093
     32  NZ         0.0530  -23.1890   -1.9070 N.3    16  LYS16      -0.1314
     33  N         -2.9410  -23.6560    4.8780 N.3    22  VAL22      -0.1245
     34  CA        -2.5070  -24.5340    5.9730 C.3    22  VAL22       0.1561
     35  C         -1.0690  -24.9730    5.7140 C.2    22  VAL22       0.2260
     36  O         -0.7380  -25.3940    4.6090 O.2    22  VAL22      -0.2867
     37  CB        -3.3720  -25.8160    6.1250 C.3    22  VAL22       0.0252
     38  CG1       -2.9770  -26.5660    7.4050 C.3    22  VAL22       0.0019
     39  CG2       -4.8710  -25.4900    6.1430 C.3    22  VAL22       0.0019
     40  N         -0.3030  -28.6330   12.4860 N.3    35  ALA35      -0.1245
     41  CA        -0.6410  -27.8550   11.2930 C.3    35  ALA35       0.1562
     42  C         -1.0130  -26.4520   11.7150 C.2    35  ALA35       0.2260
     43  O         -1.7260  -26.2530   12.7190 O.2    35  ALA35      -0.2867
     44  CB        -1.7760  -28.4870   10.5460 C.3    35  ALA35       0.0290
     45  N         -2.9550  -23.1500   10.4310 N.3    37  LYS37      -0.1245
     46  CA        -3.8250  -22.5300    9.4360 C.3    37  LYS37       0.1561
     47  C         -3.7460  -20.9980    9.5290 C.2    37  LYS37       0.2260
     48  O         -3.9260  -20.4270   10.6030 O.2    37  LYS37      -0.2867
     49  CB        -5.2690  -23.0270    9.5630 C.3    37  LYS37       0.0271
     50  CG        -6.1620  -22.6160    8.3970 C.3    37  LYS37       0.0035
     51  CD        -7.4450  -23.3890    8.3880 C.3    37  LYS37       0.0206
     52  CE        -8.3040  -22.9710    7.2030 C.3    37  LYS37       0.1093
     53  NZ        -9.5850  -23.7030    7.2370 N.3    37  LYS37      -0.1314
     54  N        -10.9000  -33.3590   14.6390 N.3    69  LEU69      -0.1245
     55  CA        -9.5740  -32.7310   14.6030 C.3    69  LEU69       0.1561
     56  C         -9.3790  -31.8140   15.8040 C.2    69  LEU69       0.2260
     57  O        -10.2520  -30.9990   16.1220 O.2    69  LEU69      -0.2867
     58  CB        -9.3420  -31.9380   13.3150 C.3    69  LEU69       0.0270
     59  CG        -7.8690  -31.5960   13.0470 C.3    69  LEU69       0.0019
     60  CD1       -7.1180  -32.8450   12.5100 C.3    69  LEU69       0.0001
     61  CD2       -7.7110  -30.4010   12.1080 C.3    69  LEU69       0.0001
     62  N         -3.3570  -26.4550   14.9390 N.3    85  LEU85      -0.1231
     63  CA        -4.2040  -27.6080   14.6920 C.3    85  LEU85       0.1693
     64  C         -3.4600  -28.9430   14.7170 C.2    85  LEU85       0.2592
     65  O         -2.2750  -29.0180   14.3660 O.2    85  LEU85      -0.2718
     66  CB        -4.8410  -27.4410   13.3020 C.3    85  LEU85       0.0284
     67  CG        -5.7900  -26.2410   13.1000 C.3    85  LEU85       0.0019
     68  CD1       -6.1190  -26.0590   11.6210 C.3    85  LEU85       0.0001
     69  CD2       -7.0770  -26.4070   13.9020 C.3    85  LEU85       0.0001
     70  N         -4.1930  -29.9990   15.0500 N.am   86  GLU86      -0.1966
     71  CA        -3.7010  -31.3720   14.9090 C.3    86  GLU86       0.1733
     72  C         -3.2650  -31.6370   13.4730 C.2    86  GLU86       0.2616
     73  O         -3.9200  -31.2260   12.5260 O.2    86  GLU86      -0.2715
     74  CB        -4.7600  -32.3700   15.3800 C.3    86  GLU86       0.0429
     75  CG        -4.4880  -33.8820   15.0920 C.3    86  GLU86       0.1163
     76  CD        -5.5820  -34.7970   15.6350 C.2    86  GLU86       0.3649
     77  OE1       -6.6640  -34.2980   16.0590 O.co2  86  GLU86      -0.2457
     78  OE2       -5.3720  -36.0290   15.6280 O.co2  86  GLU86      -0.2457
     79  N         -2.1360  -32.3160   13.3310 N.am   87  TYR87      -0.1960
     80  CA        -1.6660  -32.7730   12.0170 C.3    87  TYR87       0.1771
     81  C         -2.1770  -34.1850   11.7590 C.2    87  TYR87       0.2619
     82  O         -1.8870  -35.1090   12.5140 O.2    87  TYR87      -0.2715
     83  CB        -0.1260  -32.7010   11.9820 C.3    87  TYR87       0.0574
     84  CG         0.5420  -33.4190   10.8310 C.ar   87  TYR87      -0.0198
     85  CD1        0.1490  -33.2000    9.5070 C.ar   87  TYR87      -0.0009
     86  CD2        1.6060  -34.2960   11.0850 C.ar   87  TYR87      -0.0009
     87  CE1        0.8000  -33.8590    8.4560 C.ar   87  TYR87       0.0417
     88  CE2        2.2500  -34.9600   10.0660 C.ar   87  TYR87       0.0417
     89  CZ         1.8500  -34.7460    8.7610 C.ar   87  TYR87       0.1957
     90  OH         2.5230  -35.3960    7.7480 O.3    87  TYR87      -0.2866
     91  N         -2.9750  -34.3310   10.7000 N.am   88  ALA88      -0.1964
     92  CA        -3.5460  -35.6030   10.2690 C.3    88  ALA88       0.1713
     93  C         -2.7680  -36.0340    9.0310 C.2    88  ALA88       0.2458
     94  O         -2.9750  -35.4940    7.9350 O.2    88  ALA88      -0.2730
     95  CB        -5.0300  -35.4260    9.9240 C.3    88  ALA88       0.0333
     96  N         -1.8300  -36.9810    9.2090 N.am   89  PRO89      -0.2716
     97  CA        -0.8190  -37.2180    8.1750 C.3    89  PRO89       0.1536
     98  C         -1.3200  -37.7670    6.8680 C.2    89  PRO89       0.2598
     99  O         -0.6380  -37.5960    5.8600 O.2    89  PRO89      -0.2715
    100  CB         0.1360  -38.2300    8.8180 C.3    89  PRO89       0.0310
    101  CG        -0.1780  -38.2570   10.2370 C.3    89  PRO89       0.0237
    102  CD        -1.6080  -37.8210   10.3910 C.3    89  PRO89       0.0939
    103  N         -2.4770  -38.4330    6.8670 N.am   90  LEU90      -0.1964
    104  CA        -2.9360  -39.0970    5.6350 C.3    90  LEU90       0.1728
    105  C         -3.8410  -38.2300    4.7560 C.2    90  LEU90       0.2617
    106  O         -4.3220  -38.6820    3.7030 O.2    90  LEU90      -0.2715
    107  CB        -3.5670  -40.4700    5.9170 C.3    90  LEU90       0.0311
    108  CG        -2.7030  -41.5540    6.6080 C.3    90  LEU90       0.0022
    109  CD1       -3.0610  -42.9810    6.2060 C.3    90  LEU90       0.0001
    110  CD2       -1.2040  -41.3280    6.5090 C.3    90  LEU90       0.0001
    111  N         -4.0720  -36.9930    5.1810 N.am   91  GLY91      -0.1940
    112  CA        -4.6880  -36.0040    4.2880 C.3    91  GLY91       0.2014
    113  C         -6.1970  -36.1580    4.1910 C.2    91  GLY91       0.2639
    114  O         -6.8010  -36.7850    5.0470 O.2    91  GLY91      -0.2714
    115  N         -6.7940  -35.6140    3.1270 N.am   92  THR92      -0.1950
    116  CA        -8.2540  -35.5010    3.0290 C.3    92  THR92       0.1897
    117  C         -8.9240  -36.7650    2.4570 C.2    92  THR92       0.2313
    118  O         -8.3450  -37.4830    1.6170 O.2    92  THR92      -0.2863
    119  CB        -8.7080  -34.2860    2.1530 C.3    92  THR92       0.1794
    120  OG1       -8.2760  -34.4930    0.8080 O.3    92  THR92      -0.2208
    121  CG2       -8.1250  -32.9790    2.6550 C.3    92  THR92       0.0378
    122  N         -9.3460  -36.3100   -1.3290 N.3    95  ARG95      -0.1245
    123  CA        -8.2430  -36.7870   -2.1540 C.3    95  ARG95       0.1563
    124  C         -8.2210  -38.3180   -2.2840 C.2    95  ARG95       0.2260
    125  O         -7.9790  -38.8460   -3.3640 O.2    95  ARG95      -0.2867
    126  CB        -6.9060  -36.2410   -1.6450 C.3    95  ARG95       0.0307
    127  CG        -5.6700  -36.5880   -2.5080 C.3    95  ARG95       0.0489
    128  CD        -5.7990  -36.1460   -3.9760 C.3    95  ARG95       0.2205
    129  NE        -4.8200  -36.8580   -4.7980 N.pl3  95  ARG95      -0.0865
    130  CZ        -4.9590  -37.1230   -6.0970 C.cat  95  ARG95       0.5346
    131  NH1       -6.0340  -36.7170   -6.7690 N.pl3  95  ARG95       0.1354
    132  NH2       -4.0030  -37.7930   -6.7300 N.pl3  95  ARG95       0.1354
    133  N        -13.7480  -32.7710    1.6970 N.3   135  GLU135     -0.1245
    134  CA       -12.5560  -31.8980    1.7590 C.3   135  GLU135      0.1567
    135  C        -12.2460  -31.5390    3.1940 C.2   135  GLU135      0.2260
    136  O        -11.1310  -31.1180    3.5030 O.2   135  GLU135     -0.2867
    137  CB       -12.7540  -30.5400    1.0490 C.3   135  GLU135      0.0388
    138  CG       -13.1970  -30.5690   -0.3670 C.3   135  GLU135      0.1160
    139  CD       -14.6890  -30.4470   -0.4450 C.2   135  GLU135      0.3649
    140  OE1      -15.3600  -31.4830   -0.2430 O.co2 135  GLU135     -0.2457
    141  OE2      -15.1770  -29.3080   -0.6750 O.co2 135  GLU135     -0.2457
    142  N        -10.2870  -35.3060    7.4170 N.3   138  LEU138     -0.1245
    143  CA        -8.8610  -35.6630    7.3320 C.3   138  LEU138      0.1561
    144  C         -8.6400  -37.0850    7.8570 C.2   138  LEU138      0.2260
    145  O         -9.5160  -37.6520    8.4970 O.2   138  LEU138     -0.2867
    146  CB        -8.0140  -34.6340    8.1160 C.3   138  LEU138      0.0270
    147  CG        -7.9890  -33.2000    7.5310 C.3   138  LEU138      0.0019
    148  CD1       -7.4500  -32.1540    8.5700 C.3   138  LEU138      0.0001
    149  CD2       -7.1960  -33.1290    6.2250 C.3   138  LEU138      0.0001
    150  N        -12.7420  -32.0350   10.3340 N.3   148  ALA148     -0.1245
    151  CA       -11.7420  -30.9900   10.4340 C.3   148  ALA148      0.1562
    152  C        -12.2850  -29.5640   10.2400 C.2   148  ALA148      0.2260
    153  O        -11.5860  -28.5760   10.5020 O.2   148  ALA148     -0.2867
    154  CB       -10.5990  -31.2640    9.4560 C.3   148  ALA148      0.0290
@<TRIPOS>BOND
     1   131   130    1
     2   132   130    1
     3   130   129    2
     4   129   128    1
     5   128   127    1
     6   125   124    2
     7   127   126    1
     8   124   123    1
     9   123   126    1
    10   123   122    1
    11    32    31    1
    12    30    31    1
    13    30    29    1
    14   141   139   ar
    15    28    29    1
    16    28    25    1
    17   139   138    1
    18   139   140   ar
    19   138   137    1
    20    27    26    2
    21    25    26    1
    22    25    24    1
    23    24    22   am
    24   120   119    1
    25   137   134    1
    26    10     9    1
    27    21    22    1
    28    21    20    1
    29    22    23    2
    30    15    14    2
    31   118   117    2
    32   133   134    1
    33   134   135    1
    34     7     8    1
    35     7     6    1
    36   119   121    1
    37   119   116    1
    38     9     8    2
    39     9    11    1
    40    14    20   am
    41    14    13    1
    42   117   116    1
    43     5     6    1
    44     5     2    1
    45   116   115    1
    46   115   113   am
    47   135   136    2
    48    13    12    1
    49    13    16    1
    50     2     3    1
    51     2     1    1
    52     3     4    2
    53   106   105    2
    54   113   112    1
    55   113   114    2
    56   112   111    1
    57    36    35    2
    58    16    17    1
    59   105   111   am
    60   105   104    1
    61    33    34    1
    62    19    17    1
    63    17    18    1
    64   104   107    1
    65   104   103    1
    66    35    34    1
    67    99    98    2
    68   107   108    1
    69    34    37    1
    70    37    39    1
    71    37    38    1
    72   109   108    1
    73   149   147    1
    74   110   108    1
    75   103    98   am
    76    98    97    1
    77    52    53    1
    78    52    51    1
    79   143   142    1
    80   143   144    1
    81   143   146    1
    82   147   146    1
    83   147   148    1
    84    90    89    1
    85   144   145    2
    86    94    93    2
    87    97   100    1
    88    97    96    1
    89    51    50    1
    90    50    49    1
    91    87    89   ar
    92    87    85   ar
    93    89    88   ar
    94   100   101    1
    95    93    96   am
    96    93    92    1
    97    96   102    1
    98    46    47    1
    99    46    49    1
   100    46    45    1
   101   154   151    1
   102    85    84   ar
   103    47    48    2
   104    95    92    1
   105    88    86   ar
   106   101   102    1
   107   152   151    1
   108   152   153    2
   109    92    91    1
   110   150   151    1
   111    44    41    1
   112    91    81   am
   113    84    86   ar
   114    84    83    1
   115    41    42    1
   116    41    40    1
   117    68    67    1
   118    42    43    2
   119    81    80    1
   120    81    82    2
   121    83    80    1
   122    80    79    1
   123    61    59    1
   124    60    59    1
   125    73    72    2
   126    59    58    1
   127    67    66    1
   128    67    69    1
   129    66    63    1
   130    58    55    1
   131    79    72   am
   132    72    71    1
   133    65    64    2
   134    55    54    1
   135    55    56    1
   136    63    64    1
   137    63    62    1
   138    64    70   am
   139    71    70    1
   140    71    74    1
   141    75    74    1
   142    75    76    1
   143    78    76   ar
   144    76    77   ar
   145    56    57    2
