@<TRIPOS>MOLECULE
tmp/3fdxB00.pdb
 167 159 0 0 0
SMALL
GASTEIGER

@<TRIPOS>ATOM
      1  N         42.9780   44.6640   14.2190 N.3     7  PRO7       -0.2102
      2  CA        43.2040   43.6500   13.2280 C.3     7  PRO7        0.1504
      3  C         41.9380   42.8520   12.9730 C.2     7  PRO7        0.2576
      4  O         41.2250   42.4200   13.8510 O.2     7  PRO7       -0.2718
      5  CB        44.3210   42.7660   13.8860 C.3     7  PRO7        0.0282
      6  CG        44.5890   43.3700   15.1150 C.3     7  PRO7        0.0208
      7  CD        43.6050   44.4060   15.5350 C.3     7  PRO7        0.0893
      8  N         41.6640   42.6790   11.6880 N.am    8  ILE8       -0.1966
      9  CA        40.5280   41.9480   11.1990 C.3     8  ILE8        0.1727
     10  C         40.9030   40.9030   10.1970 C.2     8  ILE8        0.2616
     11  O         41.6180   41.1990    9.2320 O.2     8  ILE8       -0.2715
     12  CB        39.5310   42.9390   10.4340 C.3     8  ILE8        0.0290
     13  CG1       39.1240   44.0770   11.3620 C.3     8  ILE8        0.0022
     14  CG2       38.3540   42.1280    9.9010 C.3     8  ILE8        0.0023
     15  CD1       38.1310   43.7210   12.2560 C.3     8  ILE8        0.0001
     16  N         40.4270   39.6830   10.4280 N.am    9  ASP9       -0.1971
     17  CA        40.6080   38.6020    9.4640 C.3     9  ASP9        0.1709
     18  C         39.4250   38.6520    8.5190 C.2     9  ASP9        0.2293
     19  O         38.3290   38.3610    8.9020 O.2     9  ASP9       -0.2864
     20  CB        40.7380   37.2120   10.1530 C.3     9  ASP9        0.1436
     21  CG        41.0260   36.1070    9.1960 C.2     9  ASP9        0.3671
     22  OD1       40.7430   36.2230    7.9750 O.co2   9  ASP9       -0.2456
     23  OD2       41.5170   35.0460    9.6610 O.co2   9  ASP9       -0.2456
     24  N         36.8380   35.9170    8.1230 N.3    12  ASP12      -0.1239
     25  CA        35.8730   35.5410    9.1660 C.3    12  ASP12       0.1674
     26  C         34.5640   35.2610    8.4510 C.2    12  ASP12       0.2266
     27  O         33.8030   36.1960    8.1340 O.2    12  ASP12      -0.2867
     28  CB        35.7130   36.6030   10.2620 C.3    12  ASP12       0.1410
     29  CG        36.7800   36.4850   11.3560 C.2    12  ASP12       0.3668
     30  OD1       37.6780   35.6030   11.2510 O.co2  12  ASP12      -0.2456
     31  OD2       36.7100   37.2750   12.3110 O.co2  12  ASP12      -0.2456
     32  N         33.2250   38.6230   13.9870 N.3    16  THR16      -0.1218
     33  CA        33.0680   38.7690   15.4510 C.3    16  THR16       0.1862
     34  C         32.3620   40.1130   15.7160 C.2    16  THR16       0.2287
     35  O         33.0310   41.1240   15.9970 O.2    16  THR16      -0.2866
     36  CB        34.4390   38.6950   16.2520 C.3    16  THR16       0.1770
     37  OG1       35.2110   37.5370   15.8520 O.3    16  THR16      -0.2211
     38  CG2       34.1820   38.6460   17.7610 C.3    16  THR16       0.0375
     39  N         33.0340   42.9090   18.5520 N.3    19  ILE19      -0.1245
     40  CA        34.1470   43.7690   18.4070 C.3    19  ILE19       0.1561
     41  C         33.6070   45.1950   18.1620 C.2    19  ILE19       0.2260
     42  O         34.2460   46.1580   18.5170 O.2    19  ILE19      -0.2867
     43  CB        35.0430   43.2410   17.2360 C.3    19  ILE19       0.0252
     44  CG1       36.0130   42.2010   17.7500 C.3    19  ILE19       0.0019
     45  CG2       35.8870   44.3170   16.6330 C.3    19  ILE19       0.0019
     46  CD1       37.1780   42.8410   18.3430 C.3    19  ILE19       0.0001
     47  N         43.5830   46.7050   10.1300 N.3    37  LEU37      -0.1231
     48  CA        44.6020   45.9290    9.4910 C.3    37  LEU37       0.1693
     49  C         44.0900   44.5570    9.1110 C.2    37  LEU37       0.2593
     50  O         43.5370   43.8400    9.9710 O.2    37  LEU37      -0.2718
     51  CB        45.8240   45.7680   10.4040 C.3    37  LEU37       0.0284
     52  CG        46.8950   44.7780    9.9700 C.3    37  LEU37       0.0019
     53  CD1       47.6410   45.2110    8.7110 C.3    37  LEU37       0.0001
     54  CD2       47.9050   44.5800   11.2080 C.3    37  LEU37       0.0001
     55  N         44.3280   44.1510    7.8800 N.am   38  THR38      -0.1939
     56  CA        44.1570   42.7500    7.5350 C.3    38  THR38       0.2028
     57  C         45.4700   42.1990    6.9520 C.2    38  THR38       0.2642
     58  O         46.2120   42.9030    6.2740 O.2    38  THR38      -0.2714
     59  CB        42.9630   42.4860    6.6670 C.3    38  THR38       0.1808
     60  OG1       42.6260   41.0910    6.7120 O.3    38  THR38      -0.2208
     61  CG2       43.2350   42.9030    5.2410 C.3    38  THR38       0.0379
     62  N         45.7590   40.9500    7.3320 N.am   39  VAL39      -0.1977
     63  CA        47.0170   40.2970    6.9310 C.3    39  VAL39       0.1596
     64  C         46.6700   39.1220    6.0300 C.2    39  VAL39       0.2287
     65  O         45.8540   38.2300    6.4120 O.2    39  VAL39      -0.2864
     66  CB        47.8800   39.8360    8.1660 C.3    39  VAL39       0.0276
     67  CG1       49.2380   39.3200    7.6530 C.3    39  VAL39       0.0022
     68  CG2       48.0600   40.9810    9.1470 C.3    39  VAL39       0.0022
     69  N         47.7480   35.9370    4.5770 N.3    41  PRO41      -0.2116
     70  CA        48.6440   34.9100    5.1140 C.3    41  PRO41       0.1372
     71  C         49.2680   34.0870    4.0150 C.2    41  PRO41       0.2244
     72  O         48.9900   32.8940    3.9560 O.2    41  PRO41      -0.2868
     73  CB        47.6920   34.0400    5.9610 C.3    41  PRO41       0.0268
     74  CG        46.3180   34.7070    5.8500 C.3    41  PRO41       0.0207
     75  CD        46.3820   35.4240    4.5330 C.3    41  PRO41       0.0892
     76  N         50.0270   36.6240   10.4670 N.3    76  PRO76      -0.2116
     77  CA        49.2050   37.6810   11.0930 C.3    76  PRO76       0.1372
     78  C         49.8020   38.2410   12.3820 C.2    76  PRO76       0.2244
     79  O         49.9400   39.4330   12.5520 O.2    76  PRO76      -0.2868
     80  CB        47.8770   36.9850   11.3350 C.3    76  PRO76       0.0268
     81  CG        47.7950   35.9850   10.2980 C.3    76  PRO76       0.0207
     82  CD        49.1740   35.4870   10.0770 C.3    76  PRO76       0.0892
     83  N         50.7110   42.1570   12.7770 N.3    80  ILE80      -0.1245
     84  CA        50.0110   42.8880   13.7840 C.3    80  ILE80       0.1561
     85  C         51.0020   43.5380   14.7370 C.2    80  ILE80       0.2260
     86  O         50.9340   44.7230   15.0570 O.2    80  ILE80      -0.2867
     87  CB        49.0220   41.9850   14.5440 C.3    80  ILE80       0.0252
     88  CG1       47.8960   41.4820   13.6230 C.3    80  ILE80       0.0019
     89  CG2       48.4680   42.7420   15.7880 C.3    80  ILE80       0.0019
     90  CD1       47.0990   40.3110   14.1150 C.3    80  ILE80       0.0001
     91  N         41.4060   42.9740   19.8010 N.3    94  ILE94      -0.1231
     92  CA        41.3620   41.6960   19.0910 C.3    94  ILE94       0.1692
     93  C         40.3430   40.7730   19.6640 C.2    94  ILE94       0.2591
     94  O         40.1880   40.7230   20.9000 O.2    94  ILE94      -0.2718
     95  CB        42.7420   40.9810   19.1380 C.3    94  ILE94       0.0266
     96  CG1       43.3680   41.0550   20.5480 C.3    94  ILE94       0.0019
     97  CG2       43.6680   41.5650   18.1470 C.3    94  ILE94       0.0020
     98  CD1       44.2860   39.9210   20.8030 C.3    94  ILE94       0.0001
     99  N         39.6430   40.0040   18.8570 N.am   95  ALA95      -0.1980
    100  CA        38.7340   38.9920   19.4030 C.3    95  ALA95       0.1597
    101  C         39.5500   37.7810   19.9100 C.2    95  ALA95       0.2287
    102  O         40.6760   37.5870   19.4910 O.2    95  ALA95      -0.2864
    103  CB        37.7260   38.5020   18.3810 C.3    95  ALA95       0.0319
    104  N         39.0080   34.5830   19.5340 N.3    97  HIS97      -0.1226
    105  CA        39.1360   33.5570   18.4940 C.3    97  HIS97       0.1752
    106  C         38.0120   33.7630   17.4760 C.2    97  HIS97       0.2595
    107  O         37.1180   34.6290   17.6800 O.2    97  HIS97      -0.2718
    108  CB        39.0820   32.1250   19.0700 C.3    97  HIS97       0.0759
    109  CG        37.9030   31.8320   19.9240 C.ar   97  HIS97       0.0818
    110  ND1       36.6110   31.7880   19.4270 N.ar   97  HIS97      -0.2268
    111  CD2       37.7980   31.6710   21.2630 C.ar   97  HIS97       0.1154
    112  CE1       35.7790   31.5240   20.4230 C.ar   97  HIS97       0.1986
    113  NE2       36.4710   31.4540   21.5490 N.ar   97  HIS97      -0.2212
    114  N         38.0310   32.9770   16.4100 N.am   98  ARG98      -0.1980
    115  CA        36.9530   33.0260   15.4010 C.3    98  ARG98       0.1597
    116  C         35.6210   32.6990   16.0270 C.2    98  ARG98       0.2287
    117  O         35.5350   31.8190   16.8990 O.2    98  ARG98      -0.2864
    118  CB        37.2170   32.0360   14.2500 C.3    98  ARG98       0.0334
    119  CG        37.7010   32.6890   12.9740 C.3    98  ARG98       0.0492
    120  CD        38.0010   31.6370   11.9260 C.3    98  ARG98       0.2205
    121  NE        39.0120   30.7410   12.4480 N.pl3  98  ARG98      -0.0865
    122  CZ        39.1970   29.4780   12.0780 C.cat  98  ARG98       0.5346
    123  NH1       40.1530   28.7700   12.6790 N.pl3  98  ARG98       0.1354
    124  NH2       38.4320   28.9050   11.1470 N.pl3  98  ARG98       0.1354
    125  N         34.3450   28.7350   16.3890 N.3   101  ILE101     -0.1245
    126  CA        35.2630   27.6930   16.8740 C.3   101  ILE101      0.1561
    127  C         35.5240   27.8890   18.3620 C.2   101  ILE101      0.2260
    128  O         36.0310   28.9320   18.7460 O.2   101  ILE101     -0.2867
    129  CB        36.6250   27.7860   16.1640 C.3   101  ILE101      0.0252
    130  CG1       36.4490   27.9820   14.6580 C.3   101  ILE101      0.0019
    131  CG2       37.4900   26.5570   16.4680 C.3   101  ILE101      0.0019
    132  CD1       37.6700   28.5190   14.0420 C.3   101  ILE101      0.0001
    133  N         39.6410   26.2620   21.2920 N.3   104  TYR104     -0.1241
    134  CA        40.7480   26.9980   21.8550 C.3   104  TYR104      0.1605
    135  C         40.1910   28.2600   22.5010 C.2   104  TYR104      0.2264
    136  O         39.5360   29.0310   21.8290 O.2   104  TYR104     -0.2867
    137  CB        41.7830   27.3410   20.7880 C.3   104  TYR104      0.0534
    138  CG        42.2390   26.1180   19.9910 C.ar  104  TYR104     -0.0201
    139  CD1       43.2210   25.2460   20.4580 C.ar  104  TYR104     -0.0009
    140  CD2       41.6390   25.8190   18.7900 C.ar  104  TYR104     -0.0009
    141  CE1       43.6120   24.1120   19.7020 C.ar  104  TYR104      0.0417
    142  CE2       41.9930   24.6880   18.0540 C.ar  104  TYR104      0.0417
    143  CZ        42.9910   23.8470   18.5000 C.ar  104  TYR104      0.1957
    144  OH        43.3410   22.7260   17.7270 O.3   104  TYR104     -0.2866
    145  N         42.7890   32.0200   20.3570 N.3   107  GLY107     -0.1210
    146  CA        43.3940   31.6210   19.1270 C.3   107  GLY107      0.1956
    147  C         44.8670   31.9490   19.1300 C.2   107  GLY107      0.2613
    148  O         45.3340   32.6790   20.0130 O.2   107  GLY107     -0.2717
    149  N         45.5880   31.4450   18.1360 N.am  108  SER108     -0.1938
    150  CA        47.0510   31.5980   18.1700 C.3   108  SER108      0.2055
    151  C         47.5180   33.0280   18.0150 C.2   108  SER108      0.2643
    152  O         48.4960   33.4470   18.6400 O.2   108  SER108     -0.2714
    153  CB        47.7380   30.7170   17.1340 C.3   108  SER108      0.2130
    154  OG        47.2680   31.0100   15.8310 O.3   108  SER108     -0.2179
    155  N         46.8250   33.7730   17.1580 N.am  109  ASN109     -0.1957
    156  CA        47.1880   35.1710   16.9800 C.3   109  ASN109      0.1819
    157  C         46.7970   36.0220   18.1920 C.2   109  ASN109      0.2621
    158  O         47.6040   36.8570   18.6510 O.2   109  ASN109     -0.2715
    159  CB        46.6200   35.6850   15.6470 C.3   109  ASN109      0.1195
    160  CG        47.1850   34.9010   14.4680 C.2   109  ASN109      0.2630
    161  OD1       46.4810   34.1610   13.7720 O.2   109  ASN109     -0.2716
    162  ND2       48.4910   34.9730   14.3360 N.am  109  ASN109     -0.0877
    163  N         45.6120   35.8180   18.7490 N.am  110  ALA110     -0.1977
    164  CA        45.2020   36.5090   19.9710 C.3   110  ALA110      0.1597
    165  C         46.2000   36.2580   21.1070 C.2   110  ALA110      0.2287
    166  O         46.6410   37.1990   21.7700 O.2   110  ALA110     -0.2864
    167  CB        43.7850   36.0940   20.4130 C.3   110  ALA110      0.0319
@<TRIPOS>BOND
     1    72    71    2
     2    71    70    1
     3    75    69    1
     4    75    74    1
     5    69    70    1
     6    70    73    1
     7    61    59    1
     8    74    73    1
     9    64    65    2
    10    64    63    1
    11    58    57    2
    12    59    60    1
    13    59    56    1
    14    63    62    1
    15    63    66    1
    16    57    62   am
    17    57    56    1
    18    56    55    1
    19    67    66    1
    20    55    49   am
    21    22    21   ar
    22    24    25    1
    23    27    26    2
    24    66    68    1
    25    26    25    1
    26    18    19    2
    27    18    17    1
    28    53    52    1
    29    49    48    1
    30    49    50    2
    31    25    28    1
    32    21    23   ar
    33    21    20    1
    34    11    10    2
    35    17    20    1
    36    17    16    1
    37    48    47    1
    38    48    51    1
    39    14    12    1
    40    52    51    1
    41    52    54    1
    42    82    81    1
    43    82    76    1
    44    10    16   am
    45    10     9    1
    46    28    29    1
    47    81    80    1
    48    12     9    1
    49    12    13    1
    50    76    77    1
    51    77    80    1
    52    77    78    1
    53   124   122    1
    54     9     8    1
    55    30    29   ar
    56    29    31   ar
    57    13    15    1
    58     8     3   am
    59   120   121    1
    60   120   119    1
    61   122   121    2
    62   122   123    1
    63    78    79    2
    64    83    84    1
    65     3     2    1
    66     3     4    2
    67   119   118    1
    68     2     5    1
    69     2     1    1
    70    88    90    1
    71    88    87    1
    72   161   160    2
    73    84    87    1
    74    84    85    1
    75     5     6    1
    76    32    33    1
    77   132   130    1
    78     1     7    1
    79   118   115    1
    80   162   160   am
    81   160   159    1
    82    87    89    1
    83   130   129    1
    84    85    86    2
    85     6     7    1
    86   115   116    1
    87   115   114    1
    88    33    34    1
    89    33    36    1
    90   159   156    1
    91    34    35    2
    92   154   153    1
    93    37    36    1
    94   116   117    2
    95   129   131    1
    96   129   126    1
    97    36    38    1
    98   125   126    1
    99   114   106   am
   100    45    43    1
   101   126   127    1
   102   156   155    1
   103   156   157    1
   104   153   150    1
   105   155   151   am
   106    43    44    1
   107    43    40    1
   108   106   107    2
   109   106   105    1
   110   144   143    1
   111    44    46    1
   112   151   150    1
   113   151   152    2
   114   142   143   ar
   115   142   140   ar
   116   149   150    1
   117   149   147   am
   118    97    95    1
   119    41    40    1
   120    41    42    2
   121   157   158    2
   122   157   163   am
   123   127   128    2
   124   103   100    1
   125    40    39    1
   126   105   108    1
   127   105   104    1
   128   143   141   ar
   129   163   164    1
   130   140   138   ar
   131    99   100    1
   132    99    93   am
   133   108   109    1
   134    92    95    1
   135    92    93    1
   136    92    91    1
   137   146   147    1
   138   146   145    1
   139   147   148    2
   140    95    96    1
   141   100   101    1
   142   110   109   ar
   143   110   112   ar
   144   102   101    2
   145    93    94    2
   146   141   139   ar
   147   109   111   ar
   148   164   167    1
   149   164   165    1
   150   138   139   ar
   151   138   137    1
   152   112   113   ar
   153    96    98    1
   154   137   134    1
   155   165   166    2
   156   111   113   ar
   157   133   134    1
   158   136   135    2
   159   134   135    1
