@<TRIPOS>MOLECULE
tmp/3fdzA00.pdb
 153 147 0 0 0
SMALL
GASTEIGER

@<TRIPOS>ATOM
      1  N          5.4010  -29.1180   30.2330 N.3     8  ARG8       -0.1231
      2  CA         4.7970  -27.8560   30.5720 C.3     8  ARG8        0.1694
      3  C          4.4430  -27.9430   32.0630 C.2     8  ARG8        0.2592
      4  O          4.1610  -29.0160   32.5660 O.2     8  ARG8       -0.2718
      5  CB         3.5840  -27.5740   29.6870 C.3     8  ARG8        0.0321
      6  CG         2.8110  -26.3350   30.0840 C.3     8  ARG8        0.0489
      7  CD         1.6030  -26.1770   29.2120 C.3     8  ARG8        0.2205
      8  NE         0.8270  -25.0400   29.6710 N.pl3   8  ARG8       -0.0865
      9  CZ        -0.4490  -24.8210   29.3730 C.cat   8  ARG8        0.5346
     10  NH1       -1.1110  -25.6770   28.5950 N.pl3   8  ARG8        0.1354
     11  NH2       -1.0530  -23.7410   29.8630 N.pl3   8  ARG8        0.1354
     12  N          4.5040  -26.8290   32.7720 N.am    9  HIS9       -0.1976
     13  CA         4.1950  -26.8420   34.1800 C.3     9  HIS9        0.1656
     14  C          2.7840  -27.3920   34.3990 C.2     9  HIS9        0.2291
     15  O          1.9170  -27.2720   33.5310 O.2     9  HIS9       -0.2864
     16  CB         4.2830  -25.4240   34.7250 C.3     9  HIS9        0.0771
     17  CG         3.3360  -24.4990   34.0530 C.ar    9  HIS9        0.0820
     18  ND1        2.0030  -24.4320   34.4010 N.ar    9  HIS9       -0.2267
     19  CD2        3.5030  -23.6650   32.9980 C.ar    9  HIS9        0.1154
     20  CE1        1.3980  -23.5670   33.6160 C.ar    9  HIS9        0.1986
     21  NE2        2.2820  -23.0990   32.7460 N.ar    9  HIS9       -0.2212
     22  N         -1.9000  -24.3070   36.5410 N.3    12  SER12      -0.1217
     23  CA        -1.7020  -23.1240   37.3900 C.3    12  SER12       0.1889
     24  C         -3.0430  -22.5120   37.7960 C.2    12  SER12       0.2288
     25  O         -4.1090  -22.8080   37.1890 O.2    12  SER12      -0.2866
     26  CB        -0.8410  -22.0880   36.6590 C.3    12  SER12       0.2089
     27  OG        -1.6120  -21.3920   35.6930 O.3    12  SER12      -0.2183
     28  N         -4.4230  -20.9340   34.7070 N.3    15  ASN15      -0.1240
     29  CA        -4.9300  -21.9920   33.8050 C.3    15  ASN15       0.1653
     30  C         -6.3770  -22.3720   34.1880 C.2    15  ASN15       0.2266
     31  O         -7.2850  -22.3540   33.3580 O.2    15  ASN15      -0.2867
     32  CB        -4.0520  -23.2620   33.8170 C.3    15  ASN15       0.1155
     33  CG        -2.6700  -23.0380   33.2280 C.2    15  ASN15       0.2627
     34  OD1       -1.7630  -23.8560   33.4340 O.2    15  ASN15      -0.2716
     35  ND2       -2.4890  -21.9200   32.5020 N.am   15  ASN15      -0.0877
     36  N         -7.2360  -17.4450   32.5710 N.3    19  ARG19      -0.1231
     37  CA        -6.6520  -16.1050   32.5000 C.3    19  ARG19       0.1694
     38  C         -5.3180  -16.1190   31.7660 C.2    19  ARG19       0.2592
     39  O         -4.4520  -16.9260   32.0680 O.2    19  ARG19      -0.2718
     40  CB        -6.4930  -15.5130   33.9080 C.3    19  ARG19       0.0321
     41  CG        -7.8490  -15.1730   34.5620 C.3    19  ARG19       0.0489
     42  CD        -7.7920  -14.9140   36.0570 C.3    19  ARG19       0.2205
     43  NE        -7.2750  -13.5870   36.3540 N.pl3  19  ARG19      -0.0865
     44  CZ        -7.0700  -13.1120   37.5840 C.cat  19  ARG19       0.5346
     45  NH1       -7.3480  -13.8570   38.6500 N.pl3  19  ARG19       0.1354
     46  NH2       -6.5970  -11.8770   37.7550 N.pl3  19  ARG19       0.1354
     47  N         -5.1620  -15.2330   30.7910 N.am   20  PHE20      -0.1962
     48  CA        -3.8760  -15.0420   30.1680 C.3    20  PHE20       0.1771
     49  C         -2.8690  -14.8060   31.2990 C.2    20  PHE20       0.2620
     50  O         -3.0760  -13.9240   32.1320 O.2    20  PHE20      -0.2715
     51  CB        -3.9040  -13.8140   29.2690 C.3    20  PHE20       0.0574
     52  CG        -4.9420  -13.8570   28.2090 C.ar   20  PHE20      -0.0200
     53  CD1       -4.7710  -14.6600   27.0820 C.ar   20  PHE20      -0.0042
     54  CD2       -6.0680  -13.0630   28.3080 C.ar   20  PHE20      -0.0042
     55  CE1       -5.7410  -14.6910   26.0760 C.ar   20  PHE20      -0.0003
     56  CE2       -7.0460  -13.0840   27.3030 C.ar   20  PHE20      -0.0003
     57  CZ        -6.8830  -13.8830   26.1880 C.ar   20  PHE20      -0.0000
     58  N         -1.8010  -15.5980   31.3350 N.am   21  THR21      -0.1937
     59  CA        -0.8110  -15.4610   32.3960 C.3    21  THR21       0.2028
     60  C          0.4350  -14.6940   31.9890 C.2    21  THR21       0.2642
     61  O          0.7630  -13.6650   32.5970 O.2    21  THR21      -0.2714
     62  CB        -0.4350  -16.8000   33.0170 C.3    21  THR21       0.1808
     63  OG1       -1.6290  -17.4830   33.4310 O.3    21  THR21      -0.2208
     64  CG2        0.4160  -16.5710   34.2400 C.3    21  THR21       0.0379
     65  N          1.1230  -15.1800   30.9700 N.am   22  GLY22      -0.1954
     66  CA         2.3500  -14.5660   30.5350 C.3    22  GLY22       0.1869
     67  C          3.4310  -14.5950   31.6010 C.2    22  GLY22       0.2309
     68  O          3.7210  -15.6340   32.1840 O.2    22  GLY22      -0.2863
     69  N          5.6030  -21.5310   38.6320 N.3    60  ARG60      -0.1245
     70  CA         4.7050  -22.5790   38.2280 C.3    60  ARG60       0.1563
     71  C          5.4840  -23.5980   37.4550 C.2    60  ARG60       0.2260
     72  O          5.1970  -24.7890   37.5480 O.2    60  ARG60      -0.2867
     73  CB         3.5210  -22.0540   37.4390 C.3    60  ARG60       0.0307
     74  CG         3.8510  -21.3690   36.1280 C.3    60  ARG60       0.0489
     75  CD         2.5700  -20.7230   35.6140 C.3    60  ARG60       0.2205
     76  NE         2.7340  -20.0350   34.3480 N.pl3  60  ARG60      -0.0865
     77  CZ         3.1060  -18.7610   34.2190 C.cat  60  ARG60       0.5346
     78  NH1        3.3700  -18.0050   35.2920 N.pl3  60  ARG60       0.1354
     79  NH2        3.1940  -18.2360   32.9940 N.pl3  60  ARG60       0.1354
     80  N          7.2010  -18.1810   30.0320 N.3    87  GLU87      -0.1245
     81  CA         6.0540  -18.1120   29.1730 C.3    87  GLU87       0.1567
     82  C          6.1240  -16.8330   28.3340 C.2    87  GLU87       0.2260
     83  O          6.6290  -15.7810   28.7760 O.2    87  GLU87      -0.2867
     84  CB         4.7480  -18.1420   29.9830 C.3    87  GLU87       0.0388
     85  CG         3.4950  -18.1460   29.1050 C.3    87  GLU87       0.1160
     86  CD         3.4660  -19.3300   28.1490 C.2    87  GLU87       0.3649
     87  OE1        4.3680  -19.4910   27.3160 O.co2  87  GLU87      -0.2457
     88  OE2        2.5420  -20.1210   28.2260 O.co2  87  GLU87      -0.2457
     89  N          2.3010  -11.8170   27.8210 N.3    90  TYR90      -0.1241
     90  CA         0.9410  -11.6160   27.3340 C.3    90  TYR90       0.1605
     91  C          0.4750  -10.1700   27.2820 C.2    90  TYR90       0.2264
     92  O         -0.6690   -9.9190   26.9450 O.2    90  TYR90      -0.2867
     93  CB        -0.0730  -12.4800   28.1200 C.3    90  TYR90       0.0534
     94  CG        -0.6650  -13.5540   27.2440 C.ar   90  TYR90      -0.0201
     95  CD1       -1.1320  -13.2330   25.9650 C.ar   90  TYR90      -0.0009
     96  CD2       -0.7500  -14.8780   27.6650 C.ar   90  TYR90      -0.0009
     97  CE1       -1.6490  -14.2060   25.1240 C.ar   90  TYR90       0.0417
     98  CE2       -1.2850  -15.8670   26.8280 C.ar   90  TYR90       0.0417
     99  CZ        -1.7360  -15.5150   25.5540 C.ar   90  TYR90       0.1957
    100  OH        -2.2860  -16.4510   24.6880 O.3    90  TYR90      -0.2866
    101  N         -9.8870  -15.1540   29.5130 N.3    98  LYS98      -0.1245
    102  CA        -9.8090  -15.3210   28.0550 C.3    98  LYS98       0.1561
    103  C        -11.1830  -15.2860   27.3840 C.2    98  LYS98       0.2260
    104  O        -11.3300  -14.7550   26.2650 O.2    98  LYS98      -0.2867
    105  CB        -9.0550  -16.5980   27.6690 C.3    98  LYS98       0.0271
    106  CG        -7.7420  -16.7790   28.4130 C.3    98  LYS98       0.0035
    107  CD        -6.9740  -17.9920   27.9350 C.3    98  LYS98       0.0206
    108  CE        -5.8060  -18.2430   28.8880 C.3    98  LYS98       0.1093
    109  NZ        -5.0030  -19.3910   28.4550 N.3    98  LYS98      -0.1314
    110  N         -3.5930  -15.0600   20.7840 N.3   114  ARG114     -0.1231
    111  CA        -3.1760  -16.2830   21.4580 C.3   114  ARG114      0.1694
    112  C         -2.2780  -17.1780   20.6190 C.2   114  ARG114      0.2591
    113  O         -1.3950  -17.8490   21.1670 O.2   114  ARG114     -0.2718
    114  CB        -4.3880  -17.0790   21.9090 C.3   114  ARG114      0.0321
    115  CG        -5.2700  -16.3590   22.8880 C.3   114  ARG114      0.0489
    116  CD        -6.2710  -17.3020   23.4800 C.3   114  ARG114      0.2205
    117  NE        -5.6150  -18.5190   23.9300 N.pl3 114  ARG114     -0.0865
    118  CZ        -5.6560  -19.6810   23.2850 C.cat 114  ARG114      0.5346
    119  NH1       -5.0080  -20.7310   23.7740 N.pl3 114  ARG114      0.1354
    120  NH2       -6.3440  -19.7960   22.1550 N.pl3 114  ARG114      0.1354
    121  N         -2.4980  -17.1960   19.3030 N.am  115  ARG115     -0.1980
    122  CA        -1.7810  -18.1500   18.4390 C.3   115  ARG115      0.1597
    123  C         -1.1940  -17.6300   17.1160 C.2   115  ARG115      0.2287
    124  O         -0.4470  -18.3410   16.4410 O.2   115  ARG115     -0.2864
    125  CB        -2.6290  -19.3980   18.2150 C.3   115  ARG115      0.0334
    126  CG        -3.0170  -20.1250   19.4860 C.3   115  ARG115      0.0492
    127  CD        -1.8630  -20.9930   19.9200 C.3   115  ARG115      0.2205
    128  NE        -2.1690  -21.8610   21.0540 N.pl3 115  ARG115     -0.0865
    129  CZ        -2.0600  -21.5030   22.3280 C.cat 115  ARG115      0.5346
    130  NH1       -1.6740  -20.2710   22.6460 N.pl3 115  ARG115      0.1354
    131  NH2       -2.3430  -22.3760   23.2800 N.pl3 115  ARG115      0.1354
    132  N          6.8040  -23.6600   29.7870 N.3   182  HIS182     -0.1226
    133  CA         5.4420  -23.1820   29.6260 C.3   182  HIS182      0.1752
    134  C          4.8830  -23.5420   28.2500 C.2   182  HIS182      0.2597
    135  O          5.6340  -23.9010   27.3510 O.2   182  HIS182     -0.2718
    136  CB         5.4340  -21.6650   29.8550 C.3   182  HIS182      0.0759
    137  CG         6.0260  -21.2590   31.1720 C.ar  182  HIS182      0.0818
    138  ND1        5.2540  -20.9140   32.2550 N.ar  182  HIS182     -0.2268
    139  CD2        7.3130  -21.1850   31.5900 C.ar  182  HIS182      0.1154
    140  CE1        6.0340  -20.6150   33.2750 C.ar  182  HIS182      0.1986
    141  NE2        7.2860  -20.7900   32.9040 N.ar  182  HIS182     -0.2212
    142  N          3.5660  -23.4540   28.1120 N.am  183  GLY183     -0.1942
    143  CA         2.8920  -23.7880   26.8580 C.3   183  GLY183      0.2014
    144  C          3.5350  -23.1080   25.6730 C.2   183  GLY183      0.2638
    145  O          4.0180  -23.7750   24.7440 O.2   183  GLY183     -0.2714
    146  N          3.5760  -21.7760   25.7040 N.am  184  ASN184     -0.1972
    147  CA         4.0540  -21.0160   24.5450 C.3   184  ASN184      0.1688
    148  C          5.5790  -21.0440   24.3780 C.2   184  ASN184      0.2292
    149  O          6.1030  -21.0850   23.2470 O.2   184  ASN184     -0.2864
    150  CB         3.3880  -19.6130   24.4930 C.3   184  ASN184      0.1181
    151  CG         1.8400  -19.7110   24.3310 C.2   184  ASN184      0.2629
    152  OD1        1.3440  -20.4650   23.4630 O.2   184  ASN184     -0.2716
    153  ND2        1.0760  -18.9690   25.1610 N.am  184  ASN184     -0.0877
@<TRIPOS>BOND
     1   124   123    2
     2   123   122    1
     3   125   122    1
     4   125   126    1
     5   122   121    1
     6   121   112   am
     7   126   127    1
     8   127   128    1
     9   112   113    2
    10   112   111    1
    11   110   111    1
    12   128   129    2
    13   111   114    1
    14   114   115    1
    15   120   118    1
    16   129   130    1
    17   129   131    1
    18   115   116    1
    19   149   148    2
    20   118   119    1
    21   118   117    2
    22   152   151    2
    23   116   117    1
    24   151   150    1
    25   151   153   am
    26   148   147    1
    27   150   147    1
    28   147   146    1
    29   100    99    1
    30   145   144    2
    31    97    99   ar
    32    97    95   ar
    33    99    98   ar
    34   144   146   am
    35   144   143    1
    36    95    94   ar
    37    55    57   ar
    38    55    53   ar
    39    57    56   ar
    40   104   103    2
    41    98    96   ar
    42   143   142    1
    43    92    91    2
    44    53    52   ar
    45    94    96   ar
    46    94    93    1
    47    91    90    1
    48    56    54   ar
    49    87    86   ar
    50    90    89    1
    51    90    93    1
    52   135   134    2
    53   103   102    1
    54   105   102    1
    55   105   106    1
    56   107   106    1
    57   107   108    1
    58   102   101    1
    59   142   134   am
    60    86    88   ar
    61    86    85    1
    62    52    54   ar
    63    52    51    1
    64   134   133    1
    65    82    83    2
    66    82    81    1
    67   109   108    1
    68    10     9    1
    69    85    84    1
    70    81    84    1
    71    81    80    1
    72     7     8    1
    73     7     6    1
    74    51    48    1
    75     9     8    2
    76     9    11    1
    77   133   132    1
    78   133   136    1
    79     5     6    1
    80     5     2    1
    81   136   137    1
    82    48    47    1
    83    48    49    1
    84     1     2    1
    85    66    65    1
    86    66    67    1
    87     2     3    1
    88    47    38   am
    89    65    60   am
    90   137   139   ar
    91   137   138   ar
    92    49    58   am
    93    49    50    2
    94    58    59    1
    95   139   141   ar
    96    67    68    2
    97    38    39    2
    98    38    37    1
    99    60    59    1
   100    60    61    2
   101     3     4    2
   102     3    12   am
   103   138   140   ar
   104    59    62    1
   105    37    36    1
   106    37    40    1
   107    35    33   am
   108    21    19   ar
   109    21    20   ar
   110    12    13    1
   111   141   140   ar
   112    79    77    1
   113    19    17   ar
   114    62    63    1
   115    62    64    1
   116    33    34    2
   117    33    32    1
   118    31    30    2
   119    15    14    2
   120    20    18   ar
   121    29    32    1
   122    29    30    1
   123    29    28    1
   124    40    41    1
   125    17    18   ar
   126    17    16    1
   127    13    14    1
   128    13    16    1
   129    77    76    2
   130    77    78    1
   131    76    75    1
   132    41    42    1
   133    75    74    1
   134    27    26    1
   135    42    43    1
   136    74    73    1
   137    43    44    2
   138    22    23    1
   139    26    23    1
   140    25    24    2
   141    23    24    1
   142    73    70    1
   143    71    72    2
   144    71    70    1
   145    44    46    1
   146    44    45    1
   147    70    69    1
