@<TRIPOS>MOLECULE
tmp/3fe2B00.pdb
 132 126 0 0 0
SMALL
GASTEIGER

@<TRIPOS>ATOM
      1  N         26.7310   57.1060   -4.2240 N.3    26  PHE26      -0.1241
      2  CA        26.0990   55.8590   -4.6900 C.3    26  PHE26       0.1605
      3  C         24.6540   55.7150   -4.2220 C.2    26  PHE26       0.2264
      4  O         23.8250   55.0930   -4.8820 O.2    26  PHE26      -0.2867
      5  CB        26.8570   54.6280   -4.1810 C.3    26  PHE26       0.0534
      6  CG        28.2010   54.4100   -4.8210 C.ar   26  PHE26      -0.0203
      7  CD1       28.3080   54.1210   -6.1680 C.ar   26  PHE26      -0.0042
      8  CD2       29.3610   54.4300   -4.0530 C.ar   26  PHE26      -0.0042
      9  CE1       29.5580   53.8910   -6.7510 C.ar   26  PHE26      -0.0003
     10  CE2       30.5910   54.1970   -4.6230 C.ar   26  PHE26      -0.0003
     11  CZ        30.6890   53.9230   -5.9780 C.ar   26  PHE26      -0.0000
     12  N         34.4870   50.4870   -3.6430 N.3    44  PHE44      -0.1227
     13  CA        34.5670   51.8270   -4.2220 C.3    44  PHE44       0.1736
     14  C         34.3170   52.8590   -3.1320 C.2    44  PHE44       0.2596
     15  O         33.5420   52.5950   -2.2120 O.2    44  PHE44      -0.2718
     16  CB        33.5340   52.0080   -5.3390 C.3    44  PHE44       0.0547
     17  CG        33.6630   51.0150   -6.4830 C.ar   44  PHE44      -0.0202
     18  CD1       34.9160   50.5980   -6.9400 C.ar   44  PHE44      -0.0042
     19  CD2       32.5270   50.5210   -7.1080 C.ar   44  PHE44      -0.0042
     20  CE1       35.0330   49.6940   -7.9800 C.ar   44  PHE44      -0.0003
     21  CE2       32.6330   49.6080   -8.1620 C.ar   44  PHE44      -0.0003
     22  CZ        33.8920   49.1970   -8.5980 C.ar   44  PHE44      -0.0000
     23  N         34.9640   54.0210   -3.2120 N.am   45  THR45      -0.1939
     24  CA        34.6770   55.1170   -2.2650 C.3    45  THR45       0.2028
     25  C         33.5500   56.0400   -2.7540 C.2    45  THR45       0.2642
     26  O         32.7040   56.4440   -1.9670 O.2    45  THR45      -0.2714
     27  CB        35.9300   55.9730   -1.9350 C.3    45  THR45       0.1808
     28  OG1       36.4680   56.5480   -3.1390 O.3    45  THR45      -0.2208
     29  CG2       36.9970   55.1220   -1.2470 C.3    45  THR45       0.0379
     30  N         33.5460   56.3650   -4.0450 N.am   46  GLU46      -0.1976
     31  CA        32.5000   57.2030   -4.6370 C.3    46  GLU46       0.1602
     32  C         32.3230   56.8710   -6.1150 C.2    46  GLU46       0.2287
     33  O         33.1580   56.1500   -6.6720 O.2    46  GLU46      -0.2864
     34  CB        32.8970   58.6590   -4.5150 C.3    46  GLU46       0.0415
     35  CG        34.0330   59.0380   -5.4630 C.3    46  GLU46       0.1163
     36  CD        34.7580   60.2840   -5.0260 C.2    46  GLU46       0.3649
     37  OE1       35.8900   60.1410   -4.4920 O.co2  46  GLU46      -0.2457
     38  OE2       34.1870   61.3920   -5.2060 O.co2  46  GLU46      -0.2457
     39  N         32.6250   57.4220  -10.0860 N.3    48  THR48      -0.1218
     40  CA        33.4720   58.1470  -11.0290 C.3    48  THR48       0.1862
     41  C         32.6870   59.2930  -11.6470 C.2    48  THR48       0.2287
     42  O         31.4680   59.3530  -11.5530 O.2    48  THR48      -0.2866
     43  CB        33.9480   57.2630  -12.2150 C.3    48  THR48       0.1770
     44  OG1       32.8400   57.0230  -13.1030 O.3    48  THR48      -0.2211
     45  CG2       34.5420   55.9280  -11.7380 C.3    48  THR48       0.0375
     46  N         30.0950   58.0160  -14.2260 N.3    51  GLN51      -0.1245
     47  CA        28.9850   57.4530  -13.4870 C.3    51  GLN51       0.1566
     48  C         28.1110   58.5660  -12.8980 C.2    51  GLN51       0.2260
     49  O         26.9240   58.6590  -13.2140 O.2    51  GLN51      -0.2867
     50  CB        29.5040   56.5150  -12.3860 C.3    51  GLN51       0.0367
     51  CG        30.0090   55.1630  -12.9290 C.3    51  GLN51       0.0905
     52  CD        30.9800   54.4440  -12.0020 C.2    51  GLN51       0.2608
     53  OE1       31.1660   54.8330  -10.8430 O.2    51  GLN51      -0.2717
     54  NE2       31.6220   53.3910  -12.5210 N.am   51  GLN51      -0.0878
     55  N         40.0650   55.7610  -21.0900 N.3    70  THR70      -0.1203
     56  CA        40.0560   54.4000  -20.5580 C.3    70  THR70       0.1994
     57  C         40.2590   54.4720  -19.0600 C.2    70  THR70       0.2618
     58  O         40.8980   55.3950  -18.5720 O.2    70  THR70      -0.2717
     59  CB        41.1450   53.5350  -21.2280 C.3    70  THR70       0.1784
     60  OG1       40.8880   53.4950  -22.6350 O.3    70  THR70      -0.2211
     61  CG2       41.1630   52.1110  -20.6890 C.3    70  THR70       0.0376
     62  N         39.6720   53.5230  -18.3330 N.am   71  GLY71      -0.1942
     63  CA        39.7370   53.5140  -16.8690 C.3    71  GLY71       0.2014
     64  C         38.7730   54.4490  -16.1510 C.2    71  GLY71       0.2640
     65  O         38.8720   54.5890  -14.9490 O.2    71  GLY71      -0.2714
     66  N         37.8360   55.0680  -16.8720 N.am   72  SER72      -0.1935
     67  CA        36.8850   56.0340  -16.2830 C.3    72  SER72       0.2055
     68  C         35.5790   55.4570  -15.6900 C.2    72  SER72       0.2644
     69  O         34.8730   56.1560  -14.9750 O.2    72  SER72      -0.2714
     70  CB        36.5150   57.0940  -17.3250 C.3    72  SER72       0.2130
     71  OG        37.6020   57.9920  -17.5250 O.3    72  SER72      -0.2179
     72  N         35.2450   54.2140  -16.0140 N.am   73  GLY73      -0.1939
     73  CA        34.1280   53.5170  -15.3880 C.3    73  GLY73       0.2014
     74  C         32.8540   53.5340  -16.2090 C.2    73  GLY73       0.2639
     75  O         31.7470   53.5920  -15.6470 O.2    73  GLY73      -0.2714
     76  N         33.0030   53.4580  -17.5330 N.am   74  LYS74      -0.1963
     77  CA        31.8510   53.5120  -18.4480 C.3    74  LYS74       0.1728
     78  C         30.9630   52.2800  -18.3140 C.2    74  LYS74       0.2617
     79  O         29.7570   52.3590  -18.5280 O.2    74  LYS74      -0.2715
     80  CB        32.3030   53.6230  -19.9110 C.3    74  LYS74       0.0311
     81  CG        33.1660   54.8320  -20.2330 C.3    74  LYS74       0.0038
     82  CD        33.6790   54.7760  -21.6870 C.3    74  LYS74       0.0206
     83  CE        35.1000   55.3490  -21.8530 C.3    74  LYS74       0.1093
     84  NZ        36.1740   54.4010  -21.4880 N.3    74  LYS74      -0.1314
     85  N         31.5750   51.1420  -17.9770 N.am   75  THR75      -0.1937
     86  CA        30.8730   49.8580  -17.9640 C.3    75  THR75       0.2028
     87  C         29.7330   49.9000  -16.9640 C.2    75  THR75       0.2642
     88  O         28.5730   49.6820  -17.3310 O.2    75  THR75      -0.2714
     89  CB        31.8300   48.6780  -17.6550 C.3    75  THR75       0.1808
     90  OG1       32.9550   48.7400  -18.5380 O.3    75  THR75      -0.2208
     91  CG2       31.1270   47.3360  -17.8380 C.3    75  THR75       0.0379
     92  N         30.0530   50.2070  -15.7080 N.am   76  LEU76      -0.1977
     93  CA        29.0050   50.3050  -14.7070 C.3    76  LEU76       0.1596
     94  C         28.0850   51.5000  -15.0110 C.2    76  LEU76       0.2287
     95  O         26.9130   51.4860  -14.6150 O.2    76  LEU76      -0.2864
     96  CB        29.5730   50.3540  -13.2930 C.3    76  LEU76       0.0297
     97  CG        30.2560   49.0730  -12.7890 C.3    76  LEU76       0.0022
     98  CD1       30.9420   49.3150  -11.4620 C.3    76  LEU76       0.0001
     99  CD2       29.3060   47.8960  -12.6650 C.3    76  LEU76       0.0001
    100  N         34.9620   41.1440  -21.3050 N.3   112  GLN112     -0.1245
    101  CA        35.2290   41.9170  -20.0680 C.3   112  GLN112      0.1566
    102  C         33.9400   42.4430  -19.4940 C.2   112  GLN112      0.2260
    103  O         33.7630   42.5000  -18.2830 O.2   112  GLN112     -0.2867
    104  CB        36.1480   43.1220  -20.3310 C.3   112  GLN112      0.0367
    105  CG        37.6360   42.7890  -20.4180 C.3   112  GLN112      0.0905
    106  CD        38.4970   43.9900  -20.8210 C.2   112  GLN112      0.2608
    107  OE1       38.0170   45.1290  -20.8790 O.2   112  GLN112     -0.2717
    108  NE2       39.7710   43.7330  -21.1110 N.am  112  GLN112     -0.0878
    109  N         32.3810   41.6900  -15.7970 N.3   116  VAL116     -0.1245
    110  CA        31.8880   42.6700  -14.8170 C.3   116  VAL116      0.1561
    111  C         30.3900   42.4580  -14.5620 C.2   116  VAL116      0.2260
    112  O         29.9170   42.5480  -13.4310 O.2   116  VAL116     -0.2867
    113  CB        32.0810   44.1280  -15.2970 C.3   116  VAL116      0.0252
    114  CG1       31.5990   45.1010  -14.2270 C.3   116  VAL116      0.0019
    115  CG2       33.5310   44.4020  -15.6910 C.3   116  VAL116      0.0019
    116  N         29.2700   50.0630  -26.8980 N.3   178  ASP178     -0.1225
    117  CA        30.5240   50.2920  -26.2070 C.3   178  ASP178      0.1805
    118  C         31.6380   50.5510  -27.2240 C.2   178  ASP178      0.2597
    119  O         31.6400   49.9910  -28.3150 O.2   178  ASP178     -0.2718
    120  CB        30.8910   49.1030  -25.3460 C.3   178  ASP178      0.1424
    121  CG        31.7520   49.4780  -24.1470 C.2   178  ASP178      0.3668
    122  OD1       32.3320   50.5840  -24.1360 O.co2 178  ASP178     -0.2456
    123  OD2       31.8440   48.6490  -23.2110 O.co2 178  ASP178     -0.2456
    124  N         32.5740   51.4290  -26.8690 N.am  179  GLU179     -0.1979
    125  CA        33.7520   51.7070  -27.6930 C.3   179  GLU179      0.1602
    126  C         33.4520   52.0000  -29.1490 C.2   179  GLU179      0.2287
    127  O         34.0790   51.4230  -30.0320 O.2   179  GLU179     -0.2864
    128  CB        34.7270   50.5450  -27.5920 C.3   179  GLU179      0.0415
    129  CG        35.1850   50.3170  -26.1620 C.3   179  GLU179      0.1163
    130  CD        36.6880   50.3070  -26.0450 C.2   179  GLU179      0.3649
    131  OE1       37.3310   49.7850  -26.9880 O.co2 179  GLU179     -0.2457
    132  OE2       37.2190   50.8240  -25.0260 O.co2 179  GLU179     -0.2457
@<TRIPOS>BOND
     1   127   126    2
     2   126   125    1
     3   119   118    2
     4   125   128    1
     5   125   124    1
     6   128   129    1
     7   118   124   am
     8   118   117    1
     9   131   130   ar
    10   116   117    1
    11   117   120    1
    12   129   130    1
    13   130   132   ar
    14   120   121    1
    15   121   122   ar
    16   121   123   ar
    17    60    59    1
    18    83    82    1
    19    83    84    1
    20    82    81    1
    21   100   101    1
    22    59    61    1
    23    59    56    1
    24   108   106   am
    25    55    56    1
    26   107   106    2
    27   106   105    1
    28    56    57    1
    29   105   104    1
    30   104   101    1
    31    81    80    1
    32   101   102    1
    33    80    77    1
    34   102   103    2
    35    57    58    2
    36    57    62   am
    37    90    89    1
    38    79    78    2
    39    77    78    1
    40    77    76    1
    41    62    63    1
    42    78    85   am
    43    85    86    1
    44    86    89    1
    45    86    87    1
    46    91    89    1
    47    76    74   am
    48    71    70    1
    49    88    87    2
    50    70    67    1
    51    87    92   am
    52    66    67    1
    53    66    64   am
    54    63    64    1
    55    67    68    1
    56    74    75    2
    57    74    73    1
    58    64    65    2
    59    72    68   am
    60    72    73    1
    61   109   110    1
    62    92    93    1
    63   115   113    1
    64    68    69    2
    65   113   110    1
    66   113   114    1
    67    94    93    1
    68    94    95    2
    69   110   111    1
    70    93    96    1
    71   111   112    2
    72    46    47    1
    73    47    48    1
    74    47    50    1
    75    96    97    1
    76    49    48    2
    77    44    43    1
    78    51    50    1
    79    51    52    1
    80    97    99    1
    81    97    98    1
    82    54    52   am
    83    43    45    1
    84    43    40    1
    85    52    53    2
    86    41    42    2
    87    41    40    1
    88    40    39    1
    89    22    21   ar
    90    22    20   ar
    91    21    19   ar
    92    20    18   ar
    93    19    17   ar
    94    18    17   ar
    95     9     7   ar
    96     9    11   ar
    97    33    32    2
    98    17    16    1
    99     7     6   ar
   100    32    31    1
   101    11    10   ar
   102    35    36    1
   103    35    34    1
   104    16    13    1
   105    38    36   ar
   106    36    37   ar
   107     4     3    2
   108     6     5    1
   109     6     8   ar
   110     2     1    1
   111     2     3    1
   112     2     5    1
   113    31    34    1
   114    31    30    1
   115    10     8   ar
   116    13    12    1
   117    13    14    1
   118    30    25   am
   119    23    14   am
   120    23    24    1
   121    28    27    1
   122    14    15    2
   123    25    24    1
   124    25    26    2
   125    24    27    1
   126    27    29    1
