@<TRIPOS>MOLECULE
tmp/3fe7A00.pdb
 147 143 0 0 0
SMALL
GASTEIGER

@<TRIPOS>ATOM
      1  N         23.0490   11.4330   -2.2900 N.3    28  MET28      -0.1230
      2  CA        22.3960   12.2900   -1.3210 C.3    28  MET28       0.1702
      3  C         21.6460   13.4200   -2.0090 C.2    28  MET28       0.2592
      4  O         20.5220   13.7500   -1.6220 O.2    28  MET28      -0.2718
      5  CB        23.4210   12.8710   -0.3370 C.3    28  MET28       0.0401
      6  CG        24.0030   11.8240    0.6140 C.3    28  MET28       0.0596
      7  SD        22.8120   11.0640    1.7510 S.3    28  MET28      -0.1393
      8  CE        22.4500   12.4810    2.8200 C.3    28  MET28       0.0692
      9  N         22.2800   14.0040   -3.0290 N.am   29  HIS29      -0.1976
     10  CA        21.6350   15.0890   -3.7490 C.3    29  HIS29       0.1656
     11  C         20.3010   14.6480   -4.3490 C.2    29  HIS29       0.2291
     12  O         19.2810   15.3140   -4.1620 O.2    29  HIS29      -0.2864
     13  CB        22.5400   15.6060   -4.8640 C.3    29  HIS29       0.0771
     14  CG        21.8670   16.6170   -5.7400 C.ar   29  HIS29       0.0820
     15  ND1       21.7340   17.9410   -5.3660 N.ar   29  HIS29      -0.2267
     16  CD2       21.2480   16.4980   -6.9400 C.ar   29  HIS29       0.1154
     17  CE1       21.0610   18.5920   -6.3010 C.ar   29  HIS29       0.1986
     18  NE2       20.7720   17.7460   -7.2780 N.ar   29  HIS29      -0.2212
     19  N         18.4290   12.0030   -3.5470 N.3    31  LEU31      -0.1231
     20  CA        17.4350   11.6950   -2.5260 C.3    31  LEU31       0.1693
     21  C         16.6950   12.9420   -2.0540 C.2    31  LEU31       0.2593
     22  O         15.4820   12.9290   -1.8810 O.2    31  LEU31      -0.2718
     23  CB        18.0740   10.9830   -1.3400 C.3    31  LEU31       0.0284
     24  CG        18.2960    9.4920   -1.5480 C.3    31  LEU31       0.0019
     25  CD1       19.2310    8.9570   -0.4550 C.3    31  LEU31       0.0001
     26  CD2       16.9700    8.7270   -1.5680 C.3    31  LEU31       0.0001
     27  N         17.4270   14.0400   -1.8370 N.am   32  GLY32      -0.1942
     28  CA        16.7910   15.3120   -1.4810 C.3    32  GLY32       0.2014
     29  C         15.8460   15.7880   -2.5830 C.2    32  GLY32       0.2638
     30  O         14.7340   16.2620   -2.3120 O.2    32  GLY32      -0.2714
     31  N         16.2910   15.6480   -3.8380 N.am   33  GLN33      -0.1977
     32  CA        15.4410   16.0630   -4.9550 C.3    33  GLN33       0.1601
     33  C         14.1710   15.2200   -5.0520 C.2    33  GLN33       0.2287
     34  O         13.1120   15.7260   -5.4120 O.2    33  GLN33      -0.2864
     35  CB        16.2120   15.9650   -6.2680 C.3    33  GLN33       0.0394
     36  CG        17.3430   16.9680   -6.4030 C.3    33  GLN33       0.0908
     37  CD        16.8440   18.4030   -6.3240 C.2    33  GLN33       0.2608
     38  OE1       15.9320   18.7880   -7.0780 O.2    33  GLN33      -0.2717
     39  NE2       17.4290   19.2020   -5.4220 N.am   33  GLN33      -0.0878
     40  N         12.5750   13.7460   -2.4650 N.3    35  ILE35      -0.1231
     41  CA        11.7020   14.1800   -1.3820 C.3    35  ILE35       0.1692
     42  C         10.9330   15.4300   -1.7990 C.2    35  ILE35       0.2591
     43  O          9.7580   15.5910   -1.4670 O.2    35  ILE35      -0.2718
     44  CB        12.5170   14.3520   -0.0610 C.3    35  ILE35       0.0266
     45  CG1       12.9070   12.9560    0.4520 C.3    35  ILE35       0.0019
     46  CG2       11.7220   15.1500    0.9770 C.3    35  ILE35       0.0020
     47  CD1       14.0880   12.9690    1.4490 C.3    35  ILE35       0.0001
     48  N         11.5840   16.3020   -2.5670 N.am   36  MET36      -0.1979
     49  CA        10.8770   17.4900   -3.0570 C.3    36  MET36       0.1605
     50  C          9.9420   17.2290   -4.2310 C.2    36  MET36       0.2287
     51  O          8.8300   17.7620   -4.2210 O.2    36  MET36      -0.2864
     52  CB        11.8110   18.6440   -3.3780 C.3    36  MET36       0.0413
     53  CG        12.6010   19.1020   -2.1940 C.3    36  MET36       0.0598
     54  SD        13.3280   20.7080   -2.4700 S.3    36  MET36      -0.1393
     55  CE        14.3370   20.3500   -3.9130 C.3    36  MET36       0.0692
     56  N          8.1370   16.1750    2.4590 N.3    41  TYR41      -0.1241
     57  CA         8.4700   16.9180    3.6610 C.3    41  TYR41       0.1605
     58  C          7.2520   17.7200    4.1260 C.2    41  TYR41       0.2264
     59  O          6.3630   18.0430    3.3290 O.2    41  TYR41      -0.2867
     60  CB         9.6850   17.8270    3.4380 C.3    41  TYR41       0.0534
     61  CG         9.4660   18.9450    2.4520 C.ar   41  TYR41      -0.0201
     62  CD1        9.0000   20.1870    2.8700 C.ar   41  TYR41      -0.0009
     63  CD2        9.7350   18.7640    1.0980 C.ar   41  TYR41      -0.0009
     64  CE1        8.7940   21.2160    1.9710 C.ar   41  TYR41       0.0417
     65  CE2        9.5310   19.7940    0.1820 C.ar   41  TYR41       0.0417
     66  CZ         9.0570   21.0130    0.6310 C.ar   41  TYR41       0.1957
     67  OH         8.8770   22.0300   -0.2860 O.3    41  TYR41      -0.2866
     68  N          9.9270   21.6690    8.2360 N.3    46  GLN46      -0.1231
     69  CA        10.5500   21.2350    6.9860 C.3    46  GLN46       0.1698
     70  C         11.7070   20.2400    7.1360 C.2    46  GLN46       0.2592
     71  O         12.1810   19.7200    6.1400 O.2    46  GLN46      -0.2718
     72  CB        10.9090   22.4290    6.0850 C.3    46  GLN46       0.0381
     73  CG         9.6660   23.2730    5.6890 C.3    46  GLN46       0.0905
     74  CD         9.7020   23.8440    4.2640 C.2    46  GLN46       0.2608
     75  OE1       10.6390   23.6150    3.5020 O.2    46  GLN46      -0.2717
     76  NE2        8.6470   24.5780    3.8920 N.am   46  GLN46      -0.0878
     77  N         12.1200   19.9500    8.3710 N.am   47  HIS47      -0.1976
     78  CA        13.0630   18.8580    8.5940 C.3    47  HIS47       0.1656
     79  C         12.3920   17.4800    8.7030 C.2    47  HIS47       0.2291
     80  O         13.0760   16.4550    8.6920 O.2    47  HIS47      -0.2864
     81  CB        13.9340   19.1290    9.8260 C.3    47  HIS47       0.0771
     82  CG        13.1720   19.1910   11.1060 C.ar   47  HIS47       0.0820
     83  ND1       12.9200   18.0740   11.8770 N.ar   47  HIS47      -0.2267
     84  CD2       12.6240   20.2400   11.7640 C.ar   47  HIS47       0.1154
     85  CE1       12.2350   18.4350   12.9530 C.ar   47  HIS47       0.1986
     86  NE2       12.0510   19.7430   12.9110 N.ar   47  HIS47      -0.2212
     87  N         10.1710   14.4120    7.3030 N.3    49  VAL49      -0.1245
     88  CA         9.8470   13.7450    6.0370 C.3    49  VAL49       0.1561
     89  C          8.8700   12.6120    6.3350 C.2    49  VAL49       0.2260
     90  O          9.1300   11.7600    7.1900 O.2    49  VAL49      -0.2867
     91  CB        11.1230   13.2170    5.3430 C.3    49  VAL49       0.0252
     92  CG1       10.7990   12.4980    4.0070 C.3    49  VAL49       0.0019
     93  CG2       12.0870   14.3900    5.0850 C.3    49  VAL49       0.0019
     94  N         10.8350   10.2750    9.0920 N.3    65  PHE65      -0.1241
     95  CA        12.1490   10.4930    9.7010 C.3    65  PHE65       0.1605
     96  C         12.4190   11.9810    9.6870 C.2    65  PHE65       0.2264
     97  O         11.7590   12.7420    8.9730 O.2    65  PHE65      -0.2867
     98  CB        13.2760    9.6870    9.0150 C.3    65  PHE65       0.0534
     99  CG        13.7020   10.2160    7.6650 C.ar   65  PHE65      -0.0203
    100  CD1       14.8060   11.0690    7.5610 C.ar   65  PHE65      -0.0042
    101  CD2       13.0420    9.8300    6.5040 C.ar   65  PHE65      -0.0042
    102  CE1       15.2310   11.5520    6.3200 C.ar   65  PHE65      -0.0003
    103  CE2       13.4700   10.3200    5.2450 C.ar   65  PHE65      -0.0003
    104  CZ        14.5600   11.1750    5.1720 C.ar   65  PHE65      -0.0000
    105  N         15.4340   15.0230    9.2530 N.3    67  VAL67      -0.1231
    106  CA        16.7710   15.3620    8.7450 C.3    67  VAL67       0.1692
    107  C         17.7300   15.6270    9.9200 C.2    67  VAL67       0.2591
    108  O         18.9530   15.5250    9.7580 O.2    67  VAL67      -0.2718
    109  CB        16.6840   16.5690    7.7630 C.3    67  VAL67       0.0266
    110  CG1       18.0520   16.9540    7.2150 C.3    67  VAL67       0.0020
    111  CG2       15.7760   16.2300    6.5860 C.3    67  VAL67       0.0020
    112  N         17.1780   15.9060   11.0970 N.am   68  LYS68      -0.1980
    113  CA        18.0040   16.0530   12.3130 C.3    68  LYS68       0.1596
    114  C         18.3980   14.7070   12.9390 C.2    68  LYS68       0.2287
    115  O         19.2590   14.6750   13.8300 O.2    68  LYS68      -0.2864
    116  CB        17.3010   16.9450   13.3290 C.3    68  LYS68       0.0298
    117  CG        16.9570   18.3150   12.7750 C.3    68  LYS68       0.0038
    118  CD        16.7150   19.3310   13.8860 C.3    68  LYS68       0.0206
    119  CE        16.5490   20.7250   13.2950 C.3    68  LYS68       0.1093
    120  NZ        16.8480   21.8020   14.2760 N.3    68  LYS68      -0.1314
    121  N         19.2350   11.4960   10.8260 N.3    70  PRO70      -0.2116
    122  CA        19.2720   10.7430    9.5730 C.3    70  PRO70       0.1372
    123  C         19.6940    9.2830    9.7110 C.2    70  PRO70       0.2244
    124  O         19.8970    8.6210    8.6870 O.2    70  PRO70      -0.2868
    125  CB        20.3200   11.5080    8.7490 C.3    70  PRO70       0.0268
    126  CG        21.2550   12.0950    9.7960 C.3    70  PRO70       0.0207
    127  CD        20.3360   12.4770   10.9250 C.3    70  PRO70       0.0892
    128  N         18.1100    6.7150    7.3930 N.3    73  LEU73      -0.1231
    129  CA        18.5380    6.9640    6.0240 C.3    73  LEU73       0.1693
    130  C         19.9130    6.3550    5.7530 C.2    73  LEU73       0.2592
    131  O         20.1260    5.6770    4.7490 O.2    73  LEU73      -0.2718
    132  CB        18.5580    8.4690    5.7380 C.3    73  LEU73       0.0284
    133  CG        18.8690    8.8910    4.3050 C.3    73  LEU73       0.0019
    134  CD1       17.6240    8.7740    3.4400 C.3    73  LEU73       0.0001
    135  CD2       19.3910   10.3190    4.3210 C.3    73  LEU73       0.0001
    136  N         20.8470    6.5650    6.6760 N.am   74  TYR74      -0.1976
    137  CA        22.1760    6.0260    6.5240 C.3    74  TYR74       0.1639
    138  C         22.1860    4.4910    6.5940 C.2    74  TYR74       0.2290
    139  O         22.9340    3.8550    5.8630 O.2    74  TYR74      -0.2864
    140  CB        23.1010    6.6130    7.5900 C.3    74  TYR74       0.0560
    141  CG        23.3370    8.1140    7.4780 C.ar   74  TYR74      -0.0198
    142  CD1       23.1850    8.8100    6.2680 C.ar   74  TYR74      -0.0009
    143  CD2       23.7540    8.8360    8.5890 C.ar   74  TYR74      -0.0009
    144  CE1       23.4270   10.1900    6.1880 C.ar   74  TYR74       0.0417
    145  CE2       24.0160   10.1900    8.5150 C.ar   74  TYR74       0.0417
    146  CZ        23.8460   10.8690    7.3270 C.ar   74  TYR74       0.1957
    147  OH        24.0990   12.2190    7.2500 O.3    74  TYR74      -0.2866
@<TRIPOS>BOND
     1    18    16   ar
     2    18    17   ar
     3    38    37    2
     4    16    14   ar
     5    36    37    1
     6    36    35    1
     7    37    39   am
     8    17    15   ar
     9    35    32    1
    10    14    15   ar
    11    14    13    1
    12    34    33    2
    13    33    32    1
    14    32    31    1
    15    13    10    1
    16    11    12    2
    17    11    10    1
    18    50    51    2
    19    50    49    1
    20    55    54    1
    21    31    29   am
    22    10     9    1
    23    19    20    1
    24    52    49    1
    25    52    53    1
    26    49    48    1
    27     9     3   am
    28    29    30    2
    29    29    28    1
    30    48    42   am
    31    20    21    1
    32    20    23    1
    33    54    53    1
    34    40    41    1
    35     1     2    1
    36    21    22    2
    37    21    27   am
    38     3     4    2
    39     3     2    1
    40    27    28    1
    41    42    43    2
    42    42    41    1
    43    26    24    1
    44    24    23    1
    45    24    25    1
    46    41    44    1
    47     2     5    1
    48     5     6    1
    49    67    66    1
    50    44    45    1
    51    44    46    1
    52    65    66   ar
    53    65    63   ar
    54    45    47    1
    55     6     7    1
    56    66    64   ar
    57    63    61   ar
    58     7     8    1
    59    64    62   ar
    60    61    62   ar
    61    61    60    1
    62    56    57    1
    63    59    58    2
    64    60    57    1
    65   134   133    1
    66    75    74    2
    67    57    58    1
    68    76    74   am
    69    92    91    1
    70    74    73    1
    71   133   135    1
    72   133   132    1
    73   131   130    2
    74    93    91    1
    75   104   103   ar
    76   104   102   ar
    77   103   101   ar
    78    91    88    1
    79    73    72    1
    80   132   129    1
    81   130   129    1
    82   130   136   am
    83   139   138    2
    84   129   128    1
    85    88    89    1
    86    88    87    1
    87    72    69    1
    88    71    70    2
    89   144   142   ar
    90   144   146   ar
    91   142   141   ar
    92   102   100   ar
    93    89    90    2
    94   101    99   ar
    95   137   138    1
    96   137   136    1
    97   137   140    1
    98   111   109    1
    99    69    70    1
   100    69    68    1
   101    70    77   am
   102   110   109    1
   103   147   146    1
   104   146   145   ar
   105   141   140    1
   106   141   143   ar
   107   100    99   ar
   108    99    98    1
   109   109   106    1
   110    77    78    1
   111   145   143   ar
   112    78    79    1
   113    78    81    1
   114   124   123    2
   115    80    79    2
   116   106   105    1
   117   106   107    1
   118   125   122    1
   119   125   126    1
   120    97    96    2
   121    98    95    1
   122    94    95    1
   123   122   123    1
   124   122   121    1
   125    96    95    1
   126   108   107    2
   127   126   127    1
   128    81    82    1
   129   107   112   am
   130   121   127    1
   131   112   113    1
   132    82    84   ar
   133    82    83   ar
   134    84    86   ar
   135    83    85   ar
   136   113   114    1
   137   113   116    1
   138   117   116    1
   139   117   118    1
   140    86    85   ar
   141   114   115    2
   142   119   118    1
   143   119   120    1
