@<TRIPOS>MOLECULE
tmp/3fecA04.pdb
 157 150 0 0 0
SMALL
GASTEIGER

@<TRIPOS>ATOM
      1  N         22.4600   36.2880   11.8660 N.3   150  PHE150     -0.1227
      2  CA        21.6260   36.5560   13.0260 C.3   150  PHE150      0.1736
      3  C         21.3650   35.2020   13.6750 C.2   150  PHE150      0.2595
      4  O         21.1400   34.2010   12.9930 O.2   150  PHE150     -0.2718
      5  CB        20.3480   37.2510   12.5130 C.3   150  PHE150      0.0547
      6  CG        19.1960   37.2690   13.5160 C.ar  150  PHE150     -0.0202
      7  CD1       19.3130   37.9680   14.7030 C.ar  150  PHE150     -0.0042
      8  CD2       18.0480   36.5480   13.2420 C.ar  150  PHE150     -0.0042
      9  CE1       18.2260   37.9430   15.6520 C.ar  150  PHE150     -0.0003
     10  CE2       16.9910   36.5440   14.1490 C.ar  150  PHE150     -0.0003
     11  CZ        17.0970   37.2160   15.3110 C.ar  150  PHE150     -0.0000
     12  N         21.2780   35.2410   15.0240 N.am  151  ARG151     -0.1980
     13  CA        21.1400   33.9630   15.7450 C.3   151  ARG151      0.1597
     14  C         19.8730   33.2060   15.3930 C.2   151  ARG151      0.2287
     15  O         19.8520   31.9950   15.4260 O.2   151  ARG151     -0.2864
     16  CB        21.2690   34.1760   17.2780 C.3   151  ARG151      0.0334
     17  CG        20.0690   34.9190   17.9030 C.3   151  ARG151      0.0492
     18  CD        20.3050   35.1430   19.4270 C.3   151  ARG151      0.2205
     19  NE        21.1760   36.2910   19.7270 N.pl3 151  ARG151     -0.0865
     20  CZ        20.8320   37.5670   19.5250 C.cat 151  ARG151      0.5346
     21  NH1       19.5890   37.8490   19.0730 N.pl3 151  ARG151      0.1354
     22  NH2       21.6880   38.5450   19.8490 N.pl3 151  ARG151      0.1354
     23  N         16.8580   37.0730   21.3180 N.3   198  ASN198     -0.1240
     24  CA        15.7630   36.2720   20.7540 C.3   198  ASN198      0.1653
     25  C         16.1870   35.4770   19.4950 C.2   198  ASN198      0.2266
     26  O         17.1430   35.8340   18.7850 O.2   198  ASN198     -0.2867
     27  CB        14.5320   37.1770   20.4510 C.3   198  ASN198      0.1155
     28  CG        14.5830   37.7980   19.0760 C.2   198  ASN198      0.2627
     29  OD1       14.3820   37.1090   18.0490 O.2   198  ASN198     -0.2716
     30  ND2       14.8860   39.1170   19.0250 N.am  198  ASN198     -0.0877
     31  N         23.7360   48.9250   24.6430 N.3   327  ASP327     -0.1239
     32  CA        22.5280   48.5600   23.8760 C.3   327  ASP327      0.1674
     33  C         21.3380   48.4000   24.8230 C.2   327  ASP327      0.2266
     34  O         21.2710   47.4220   25.5840 O.2   327  ASP327     -0.2867
     35  CB        22.8040   47.2330   23.2000 C.3   327  ASP327      0.1410
     36  CG        21.6060   46.7450   22.4680 C.2   327  ASP327      0.3668
     37  OD1       20.6400   47.5340   22.1760 O.co2 327  ASP327     -0.2456
     38  OD2       21.5710   45.5510   22.1480 O.co2 327  ASP327     -0.2456
     39  N         12.0740   45.9700   21.8620 N.3   364  GLU364     -0.1231
     40  CA        12.8830   45.7650   20.6590 C.3   364  GLU364      0.1699
     41  C         13.6650   44.4390   20.7470 C.2   364  GLU364      0.2592
     42  O         13.8410   43.7620   19.7140 O.2   364  GLU364     -0.2718
     43  CB        13.8960   46.9110   20.5020 C.3   364  GLU364      0.0402
     44  CG        14.6750   46.9300   19.2040 C.3   364  GLU364      0.1161
     45  CD        15.9960   46.1570   19.2480 C.2   364  GLU364      0.3649
     46  OE1       16.4140   45.5680   20.2750 O.co2 364  GLU364     -0.2457
     47  OE2       16.6270   46.1440   18.1620 O.co2 364  GLU364     -0.2457
     48  N         14.0880   44.0550   21.9440 N.am  365  GLU365     -0.1979
     49  CA        14.9680   42.8660   22.0160 C.3   365  GLU365      0.1602
     50  C         14.1990   41.5640   21.7420 C.2   365  GLU365      0.2287
     51  O         14.8180   40.4920   21.5700 O.2   365  GLU365     -0.2864
     52  CB        15.5480   42.7620   23.4330 C.3   365  GLU365      0.0415
     53  CG        16.5540   43.8870   23.7470 C.3   365  GLU365      0.1163
     54  CD        17.8210   43.8810   22.9020 C.2   365  GLU365      0.3649
     55  OE1       17.9940   43.0560   22.0120 O.co2 365  GLU365     -0.2457
     56  OE2       18.7060   44.7420   23.1630 O.co2 365  GLU365     -0.2457
     57  N         12.0700   41.2340   19.1430 N.3   367  GLY367     -0.1210
     58  CA        11.7210   41.2030   17.7030 C.3   367  GLY367      0.1956
     59  C         11.1790   42.5660   17.1820 C.2   367  GLY367      0.2611
     60  O         10.2950   42.5710   16.3120 O.2   367  GLY367     -0.2717
     61  N         11.7110   43.6690   17.7300 N.am  368  LEU368     -0.1979
     62  CA        11.2460   44.9970   17.2310 C.3   368  LEU368      0.1596
     63  C          9.7560   45.1680   17.5430 C.2   368  LEU368      0.2287
     64  O          9.0060   45.8020   16.7610 O.2   368  LEU368     -0.2864
     65  CB        11.5420   45.2120   15.7280 C.3   368  LEU368      0.0297
     66  CG        12.9100   44.6770   15.2280 C.3   368  LEU368      0.0022
     67  CD1       13.1380   45.0060   13.7290 C.3   368  LEU368      0.0001
     68  CD2       14.0130   45.2660   16.0450 C.3   368  LEU368      0.0001
     69  N         19.1700   54.0340   18.7530 N.3   393  ASP393     -0.1225
     70  CA        19.6330   52.8360   19.4820 C.3   393  ASP393      0.1805
     71  C         21.0750   53.1570   19.9430 C.2   393  ASP393      0.2598
     72  O         21.5150   54.3350   20.0000 O.2   393  ASP393     -0.2718
     73  CB        19.5700   51.6230   18.4980 C.3   393  ASP393      0.1424
     74  CG        19.5120   50.1950   19.2020 C.2   393  ASP393      0.3668
     75  OD1       20.1280   49.9700   20.2980 O.co2 393  ASP393     -0.2456
     76  OD2       18.8980   49.2450   18.5530 O.co2 393  ASP393     -0.2456
     77  N         21.8590   52.1110   20.2340 N.am  394  SER394     -0.1952
     78  CA        23.2030   52.3430   20.8330 C.3   394  SER394      0.1924
     79  C         23.9700   53.4140   20.0950 C.2   394  SER394      0.2314
     80  O         23.9840   53.4620   18.8520 O.2   394  SER394     -0.2863
     81  CB        24.0410   51.0810   20.7190 C.3   394  SER394      0.2116
     82  OG        23.9590   50.5480   19.4660 O.3   394  SER394     -0.2180
     83  N         17.4130   44.8330   11.8240 N.3   458  GLY458     -0.1210
     84  CA        17.8320   44.4990   13.1460 C.3   458  GLY458      0.1956
     85  C         17.6900   45.5650   14.2440 C.2   458  GLY458      0.2612
     86  O         18.2090   45.4130   15.3500 O.2   458  GLY458     -0.2717
     87  N         17.0980   46.7050   13.9180 N.am  459  SER459     -0.1952
     88  CA        16.7280   47.6700   14.9490 C.3   459  SER459      0.1924
     89  C         15.4510   48.3340   14.4790 C.2   459  SER459      0.2314
     90  O         14.8810   47.9470   13.4570 O.2   459  SER459     -0.2863
     91  CB        17.8490   48.7100   15.2250 C.3   459  SER459      0.2116
     92  OG        17.4860   49.5620   16.3400 O.3   459  SER459     -0.2180
     93  N         20.5920   55.9060   10.4220 N.3   474  ARG474     -0.1245
     94  CA        21.1560   55.6870   11.7360 C.3   474  ARG474      0.1563
     95  C         22.6190   56.1020   11.7810 C.2   474  ARG474      0.2260
     96  O         23.2870   56.0340   10.7560 O.2   474  ARG474     -0.2867
     97  CB        20.9950   54.2720   12.1900 C.3   474  ARG474      0.0307
     98  CG        21.7120   53.2660   11.4110 C.3   474  ARG474      0.0489
     99  CD        21.1550   51.8420   11.7400 C.3   474  ARG474      0.2205
    100  NE        21.2560   51.4670   13.1690 N.pl3 474  ARG474     -0.0865
    101  CZ        21.3060   50.1990   13.6060 C.cat 474  ARG474      0.5346
    102  NH1       21.3450   49.9480   14.9180 N.pl3 474  ARG474      0.1354
    103  NH2       21.2930   49.1780   12.7270 N.pl3 474  ARG474      0.1354
    104  N         26.1940   56.0200   14.6230 N.3   476  ARG476     -0.1245
    105  CA        26.7430   55.6520   15.9200 C.3   476  ARG476      0.1563
    106  C         28.2540   55.6370   15.8350 C.2   476  ARG476      0.2260
    107  O         28.7780   55.5860   14.7380 O.2   476  ARG476     -0.2867
    108  CB        26.2310   54.3100   16.4190 C.3   476  ARG476      0.0307
    109  CG        26.8190   53.1560   15.6340 C.3   476  ARG476      0.0489
    110  CD        26.4460   51.8830   16.1820 C.3   476  ARG476      0.2205
    111  NE        25.0780   51.9220   16.6340 N.pl3 476  ARG476     -0.0865
    112  CZ        24.1980   50.9350   16.5570 C.cat 476  ARG476      0.5346
    113  NH1       22.9900   51.1540   17.0500 N.pl3 476  ARG476      0.1354
    114  NH2       24.5150   49.7690   15.9750 N.pl3 476  ARG476      0.1354
    115  N         28.5790   42.4180   24.3810 N.3   492  TYR492     -0.1227
    116  CA        27.2390   42.5460   23.7580 C.3   492  TYR492      0.1736
    117  C         26.2420   41.5340   24.3420 C.2   492  TYR492      0.2595
    118  O         26.4730   40.3320   24.2900 O.2   492  TYR492     -0.2718
    119  CB        27.3700   42.3530   22.2770 C.3   492  TYR492      0.0548
    120  CG        26.0510   42.2200   21.5350 C.ar  492  TYR492     -0.0200
    121  CD1       25.1630   43.3060   21.4350 C.ar  492  TYR492     -0.0009
    122  CD2       25.7080   41.0180   20.8730 C.ar  492  TYR492     -0.0009
    123  CE1       23.9670   43.1890   20.6890 C.ar  492  TYR492      0.0417
    124  CE2       24.5280   40.8810   20.1690 C.ar  492  TYR492      0.0417
    125  CZ        23.6630   41.9840   20.0980 C.ar  492  TYR492      0.1957
    126  OH        22.4770   41.8350   19.3770 O.3   492  TYR492     -0.2866
    127  N         25.1270   42.0520   24.8400 N.am  493  HIS493     -0.1975
    128  CA        23.9940   41.2220   25.2760 C.3   493  HIS493      0.1656
    129  C         24.3470   40.3580   26.4960 C.2   493  HIS493      0.2291
    130  O         23.6490   39.3450   26.7960 O.2   493  HIS493     -0.2864
    131  CB        23.3800   40.3940   24.1310 C.3   493  HIS493      0.0771
    132  CG        22.3750   41.1490   23.3020 C.ar  493  HIS493      0.0820
    133  ND1       21.4580   40.4860   22.4990 N.ar  493  HIS493     -0.2267
    134  CD2       22.0900   42.4840   23.2160 C.ar  493  HIS493      0.1154
    135  CE1       20.6770   41.4160   21.9040 C.ar  493  HIS493      0.1986
    136  NE2       21.0800   42.6210   22.2850 N.ar  493  HIS493     -0.2212
    137  N         19.8830   38.6930    9.1130 N.3   639  LYS639     -0.1231
    138  CA        18.9670   39.8270    9.1920 C.3   639  LYS639      0.1693
    139  C         19.6900   41.1550    9.5040 C.2   639  LYS639      0.2592
    140  O         19.2300   42.2350    9.1520 O.2   639  LYS639     -0.2718
    141  CB        17.8750   39.4720   10.2090 C.3   639  LYS639      0.0285
    142  CG        16.9410   40.5530   10.6410 C.3   639  LYS639      0.0035
    143  CD        16.2910   40.1770   11.9730 C.3   639  LYS639      0.0206
    144  CE        15.1210   41.1120   12.3030 C.3   639  LYS639      0.1093
    145  NZ        14.1350   40.3210   13.1180 N.3   639  LYS639     -0.1314
    146  N         20.8320   41.1100   10.1540 N.am  640  TYR640     -0.1976
    147  CA        21.5590   42.3660   10.4330 C.3   640  TYR640      0.1639
    148  C         22.0760   43.0790    9.2020 C.2   640  TYR640      0.2290
    149  O         22.2220   44.3200    9.2010 O.2   640  TYR640     -0.2864
    150  CB        22.7540   42.0960   11.3400 C.3   640  TYR640      0.0560
    151  CG        22.3760   41.5490   12.6930 C.ar  640  TYR640     -0.0198
    152  CD1       21.3430   42.1080   13.4230 C.ar  640  TYR640     -0.0009
    153  CD2       23.0710   40.4720   13.2410 C.ar  640  TYR640     -0.0009
    154  CE1       20.9990   41.5950   14.6650 C.ar  640  TYR640      0.0417
    155  CE2       22.7510   39.9700   14.4720 C.ar  640  TYR640      0.0417
    156  CZ        21.7220   40.5290   15.1810 C.ar  640  TYR640      0.1957
    157  OH        21.4000   40.0120   16.4190 O.3   640  TYR640     -0.2866
@<TRIPOS>BOND
     1   137   138    1
     2   140   139    2
     3   138   139    1
     4   138   141    1
     5   149   148    2
     6   148   147    1
     7   139   146   am
     8   146   147    1
     9   141   142    1
    10    93    94    1
    11   147   150    1
    12   142   143    1
    13    96    95    2
    14   150   151    1
    15    98    99    1
    16    98    97    1
    17    94    95    1
    18    94    97    1
    19    99   100    1
    20    83    84    1
    21     1     2    1
    22   143   144    1
    23   144   145    1
    24     5     2    1
    25     5     6    1
    26   151   153   ar
    27   151   152   ar
    28   103   101    1
    29     4     3    2
    30     2     3    1
    31    84    85    1
    32   100   101    2
    33   153   155   ar
    34     8     6   ar
    35     8    10   ar
    36   152   154   ar
    37    90    89    2
    38     6     7   ar
    39   101   102    1
    40     3    12   am
    41    67    66    1
    42    87    85   am
    43    87    88    1
    44    10    11   ar
    45    85    86    2
    46   155   156   ar
    47    89    88    1
    48   104   105    1
    49   154   156   ar
    50     7     9   ar
    51   107   106    2
    52    88    91    1
    53    12    13    1
    54   156   157    1
    55    91    92    1
    56    66    65    1
    57    66    68    1
    58    11     9   ar
    59    14    15    2
    60    14    13    1
    61   109   110    1
    62   109   108    1
    63    65    62    1
    64    13    16    1
    65   106   105    1
    66   105   108    1
    67   114   112    1
    68   110   111    1
    69    60    59    2
    70   112   111    2
    71   112   113    1
    72    64    63    2
    73    59    58    1
    74    59    61   am
    75    62    63    1
    76    62    61    1
    77    16    17    1
    78    58    57    1
    79    17    18    1
    80    29    28    2
    81    47    45   ar
    82    73    74    1
    83    73    70    1
    84    76    74   ar
    85    69    70    1
    86    26    25    2
    87    80    79    2
    88    30    28   am
    89    21    20    1
    90    28    27    1
    91    74    75   ar
    92    44    45    1
    93    44    43    1
    94    45    46   ar
    95   126   125    1
    96    18    19    1
    97    82    81    1
    98    70    71    1
    99    25    24    1
   100    20    19    2
   101    20    22    1
   102    42    41    2
   103    71    72    2
   104    71    77   am
   105    79    78    1
   106   125   124   ar
   107   125   123   ar
   108   124   122   ar
   109    77    78    1
   110    27    24    1
   111    43    40    1
   112    40    41    1
   113    40    39    1
   114   123   121   ar
   115    81    78    1
   116    41    48   am
   117    24    23    1
   118   122   120   ar
   119   121   120   ar
   120   120   119    1
   121    51    50    2
   122    50    49    1
   123   135   136   ar
   124   135   133   ar
   125    48    49    1
   126    55    54   ar
   127    49    52    1
   128    38    36   ar
   129    37    36   ar
   130   119   116    1
   131   136   134   ar
   132    36    35    1
   133   133   132   ar
   134    54    56   ar
   135    54    53    1
   136    35    32    1
   137   134   132   ar
   138   132   131    1
   139    52    53    1
   140   116   117    1
   141   116   115    1
   142    32    31    1
   143    32    33    1
   144   131   128    1
   145   118   117    2
   146   117   127   am
   147    33    34    2
   148   127   128    1
   149   128   129    1
   150   129   130    2
