@<TRIPOS>MOLECULE
tmp/3fedA03.pdb
 190 180 0 0 0
SMALL
GASTEIGER

@<TRIPOS>ATOM
      1  N         22.9970   37.0640   12.4990 N.3   151  PHE151     -0.1227
      2  CA        21.9640   37.0160   13.5420 C.3   151  PHE151      0.1736
      3  C         21.6880   35.5830   14.0160 C.2   151  PHE151      0.2595
      4  O         21.5470   34.6250   13.2200 O.2   151  PHE151     -0.2718
      5  CB        20.6630   37.6510   12.9190 C.3   151  PHE151      0.0547
      6  CG        19.4630   37.5180   13.8170 C.ar  151  PHE151     -0.0202
      7  CD1       19.4300   38.1400   15.0810 C.ar  151  PHE151     -0.0042
      8  CD2       18.3260   36.8760   13.3350 C.ar  151  PHE151     -0.0042
      9  CE1       18.2810   38.0080   15.9020 C.ar  151  PHE151     -0.0003
     10  CE2       17.1660   36.7440   14.1770 C.ar  151  PHE151     -0.0003
     11  CZ        17.1910   37.3240   15.4510 C.ar  151  PHE151     -0.0000
     12  N         21.5370   35.4260   15.3330 N.am  152  ARG152     -0.1980
     13  CA        21.4020   34.0630   15.8770 C.3   152  ARG152      0.1597
     14  C         20.1260   33.3610   15.4330 C.2   152  ARG152      0.2287
     15  O         20.0760   32.1430   15.3430 O.2   152  ARG152     -0.2864
     16  CB        21.4700   34.1390   17.4180 C.3   152  ARG152      0.0334
     17  CG        20.2670   34.8550   18.0140 C.3   152  ARG152      0.0492
     18  CD        20.3950   35.0200   19.5720 C.3   152  ARG152      0.2205
     19  NE        21.2150   36.1870   19.9270 N.pl3 152  ARG152     -0.0865
     20  CZ        20.7970   37.4470   19.7400 C.cat 152  ARG152      0.5346
     21  NH1       19.5820   37.7310   19.2360 N.pl3 152  ARG152      0.1354
     22  NH2       21.6040   38.4590   20.0850 N.pl3 152  ARG152      0.1354
     23  N         16.8930   36.8540   21.3900 N.3   199  ASN199     -0.1240
     24  CA        15.8290   36.0600   20.8070 C.3   199  ASN199      0.1653
     25  C         16.3150   35.2870   19.5810 C.2   199  ASN199      0.2266
     26  O         17.2640   35.6980   18.8830 O.2   199  ASN199     -0.2867
     27  CB        14.5790   36.9630   20.4680 C.3   199  ASN199      0.1155
     28  CG        14.6540   37.6090   19.1080 C.2   199  ASN199      0.2627
     29  OD1       14.4630   36.9510   18.0710 O.2   199  ASN199     -0.2716
     30  ND2       14.9150   38.9300   19.0760 N.am  199  ASN199     -0.0877
     31  N         11.1960   36.2830   12.2880 N.3   203  LEU203     -0.1245
     32  CA         9.9560   37.0070   12.0540 C.3   203  LEU203      0.1561
     33  C          9.8450   37.5640   10.6740 C.2   203  LEU203      0.2260
     34  O          8.6930   37.8330   10.2250 O.2   203  LEU203     -0.2867
     35  CB         9.8450   38.2170   13.0180 C.3   203  LEU203      0.0270
     36  CG         9.5290   37.8570   14.4650 C.3   203  LEU203      0.0019
     37  CD1        9.6570   39.0800   15.3360 C.3   203  LEU203      0.0001
     38  CD2        8.1400   37.2110   14.6020 C.3   203  LEU203      0.0001
     39  N         14.8610   52.1110   21.1890 N.3   318  HIS318     -0.1241
     40  CA        14.3320   51.2140   22.2100 C.3   318  HIS318      0.1621
     41  C         14.9150   51.4560   23.5700 C.2   318  HIS318      0.2264
     42  O         15.9940   52.0210   23.7320 O.2   318  HIS318     -0.2867
     43  CB        14.4160   49.7080   21.8170 C.3   318  HIS318      0.0745
     44  CG        15.7610   49.0460   21.8880 C.ar  318  HIS318      0.0817
     45  ND1       16.0730   48.1580   22.8940 N.ar  318  HIS318     -0.2268
     46  CD2       16.7820   49.0060   20.9990 C.ar  318  HIS318      0.1154
     47  CE1       17.2420   47.5980   22.6200 C.ar  318  HIS318      0.1986
     48  NE2       17.7110   48.1080   21.4940 N.ar  318  HIS318     -0.2212
     49  N         23.6230   48.7660   24.8840 N.3   328  ASP328     -0.1239
     50  CA        22.4320   48.3990   24.1110 C.3   328  ASP328      0.1674
     51  C         21.2430   48.2490   25.0430 C.2   328  ASP328      0.2266
     52  O         21.1340   47.2320   25.7230 O.2   328  ASP328     -0.2867
     53  CB        22.7280   47.0650   23.4420 C.3   328  ASP328      0.1410
     54  CG        21.5690   46.5410   22.6600 C.2   328  ASP328      0.3668
     55  OD1       20.6460   47.3450   22.3240 O.co2 328  ASP328     -0.2456
     56  OD2       21.6370   45.3310   22.3510 O.co2 328  ASP328     -0.2456
     57  N         12.0140   45.6900   21.9530 N.3   365  GLU365     -0.1231
     58  CA        12.8090   45.5640   20.7410 C.3   365  GLU365      0.1699
     59  C         13.6030   44.2770   20.7920 C.2   365  GLU365      0.2592
     60  O         13.8210   43.6010   19.7600 O.2   365  GLU365     -0.2718
     61  CB        13.7110   46.7880   20.6180 C.3   365  GLU365      0.0402
     62  CG        14.5640   46.8250   19.3810 C.3   365  GLU365      0.1161
     63  CD        15.9570   46.2460   19.5440 C.2   365  GLU365      0.3649
     64  OE1       16.2580   45.5070   20.4880 O.co2 365  GLU365     -0.2457
     65  OE2       16.7870   46.5780   18.6760 O.co2 365  GLU365     -0.2457
     66  N         14.0690   43.8740   21.9790 N.am  366  GLU366     -0.1979
     67  CA        14.9700   42.7190   22.0690 C.3   366  GLU366      0.1602
     68  C         14.2210   41.4200   21.8200 C.2   366  GLU366      0.2287
     69  O         14.8720   40.3800   21.5970 O.2   366  GLU366     -0.2864
     70  CB        15.6220   42.6520   23.4550 C.3   366  GLU366      0.0415
     71  CG        16.6180   43.7720   23.7170 C.3   366  GLU366      0.1163
     72  CD        17.9060   43.6840   22.8920 C.2   366  GLU366      0.3649
     73  OE1       18.0590   42.7660   22.0720 O.co2 366  GLU366     -0.2457
     74  OE2       18.7800   44.5780   23.1220 O.co2 366  GLU366     -0.2457
     75  N         12.1190   41.1170   19.1920 N.3   368  GLY368     -0.1210
     76  CA        11.7740   41.1040   17.7390 C.3   368  GLY368      0.1956
     77  C         11.2390   42.4150   17.2410 C.2   368  GLY368      0.2611
     78  O         10.3820   42.4000   16.3530 O.2   368  GLY368     -0.2717
     79  N         11.7120   43.5560   17.7700 N.am  369  LEU369     -0.1979
     80  CA        11.2660   44.8650   17.2490 C.3   369  LEU369      0.1596
     81  C          9.7950   45.0400   17.5420 C.2   369  LEU369      0.2287
     82  O          9.0510   45.6330   16.7370 O.2   369  LEU369     -0.2864
     83  CB        11.6030   45.0670   15.7670 C.3   369  LEU369      0.0297
     84  CG        12.9790   44.4990   15.3160 C.3   369  LEU369      0.0022
     85  CD1       13.1290   44.7580   13.8040 C.3   369  LEU369      0.0001
     86  CD2       14.1330   45.1060   16.0660 C.3   369  LEU369      0.0001
     87  N         19.1500   53.8070   18.8900 N.3   394  ASP394     -0.1225
     88  CA        19.6450   52.6600   19.6780 C.3   394  ASP394      0.1805
     89  C         21.0750   52.9920   20.1170 C.2   394  ASP394      0.2598
     90  O         21.4920   54.1600   20.1470 O.2   394  ASP394     -0.2718
     91  CB        19.5010   51.4170   18.7650 C.3   394  ASP394      0.1424
     92  CG        19.5900   50.0610   19.4690 C.2   394  ASP394      0.3668
     93  OD1       20.0440   49.9510   20.6110 O.co2 394  ASP394     -0.2456
     94  OD2       19.1310   49.0730   18.8270 O.co2 394  ASP394     -0.2456
     95  N         21.8540   51.9790   20.4460 N.am  395  SER395     -0.1952
     96  CA        23.1900   52.1280   21.0000 C.3   395  SER395      0.1924
     97  C         23.9870   53.2050   20.3040 C.2   395  SER395      0.2314
     98  O         24.0600   53.2220   19.0570 O.2   395  SER395     -0.2863
     99  CB        23.9490   50.8250   20.8450 C.3   395  SER395      0.2116
    100  OG        23.2340   49.7420   21.3920 O.3   395  SER395     -0.2180
    101  N         29.2720   51.4890   20.4070 N.3   398  GLU398     -0.1245
    102  CA        29.6720   50.0770   20.3820 C.3   398  GLU398      0.1567
    103  C         31.1800   49.8760   20.2390 C.2   398  GLU398      0.2260
    104  O         31.6780   48.7450   20.1880 O.2   398  GLU398     -0.2867
    105  CB        28.9250   49.3720   19.2760 C.3   398  GLU398      0.0388
    106  CG        27.4730   49.3610   19.6020 C.3   398  GLU398      0.1160
    107  CD        26.7210   48.3480   18.8000 C.2   398  GLU398      0.3649
    108  OE1       27.3460   47.5790   18.0300 O.co2 398  GLU398     -0.2457
    109  OE2       25.4860   48.2970   18.9730 O.co2 398  GLU398     -0.2457
    110  N         18.1530   44.7960    8.7930 N.3   458  SER458     -0.1202
    111  CA        17.3730   44.8480   10.0000 C.3   458  SER458      0.2020
    112  C         18.3010   44.8950   11.1720 C.2   458  SER458      0.2619
    113  O         19.4660   45.2860   11.0370 O.2   458  SER458     -0.2717
    114  CB        16.4700   43.6220   10.0800 C.3   458  SER458      0.2103
    115  OG        15.5850   43.7390   11.2260 O.3   458  SER458     -0.2182
    116  N         17.7480   44.5990   12.3480 N.am  459  GLY459     -0.1956
    117  CA        18.5670   44.6670   13.5670 C.3   459  GLY459      0.1869
    118  C         18.1240   45.6800   14.5640 C.2   459  GLY459      0.2309
    119  O         18.6710   45.7190   15.6510 O.2   459  GLY459     -0.2863
    120  N         20.5670   55.5920   10.5550 N.3   475  ARG475     -0.1245
    121  CA        21.1470   55.3760   11.8580 C.3   475  ARG475      0.1563
    122  C         22.6230   55.6900   11.8770 C.2   475  ARG475      0.2260
    123  O         23.3000   55.5680   10.8590 O.2   475  ARG475     -0.2867
    124  CB        20.9000   53.9850   12.3520 C.3   475  ARG475      0.0307
    125  CG        21.5950   52.9260   11.6530 C.3   475  ARG475      0.0489
    126  CD        21.0250   51.5340   11.9050 C.3   475  ARG475      0.2205
    127  NE        20.9840   51.2820   13.3320 N.pl3 475  ARG475     -0.0865
    128  CZ        21.1420   50.1130   13.9400 C.cat 475  ARG475      0.5346
    129  NH1       21.0060   50.0900   15.2690 N.pl3 475  ARG475      0.1354
    130  NH2       21.3760   49.0040   13.2490 N.pl3 475  ARG475      0.1354
    131  N         26.1800   55.6130   14.7510 N.3   477  ARG477     -0.1245
    132  CA        26.7290   55.3060   16.0770 C.3   477  ARG477      0.1563
    133  C         28.2260   55.2460   15.9840 C.2   477  ARG477      0.2260
    134  O         28.7760   55.1600   14.8770 O.2   477  ARG477     -0.2867
    135  CB        26.1950   53.9800   16.5990 C.3   477  ARG477      0.0307
    136  CG        26.5810   52.7960   15.7760 C.3   477  ARG477      0.0489
    137  CD        26.2530   51.5420   16.5270 C.3   477  ARG477      0.2205
    138  NE        26.4300   50.3330   15.7240 N.pl3 477  ARG477     -0.0865
    139  CZ        25.4920   49.3950   15.5420 C.cat 477  ARG477      0.5346
    140  NH1       25.7570   48.3190   14.8170 N.pl3 477  ARG477      0.1354
    141  NH2       24.3130   49.5160   16.1130 N.pl3 477  ARG477      0.1354
    142  N         30.1390   42.1790   17.1080 N.3   489  SER489     -0.1217
    143  CA        29.4820   43.1000   18.0640 C.3   489  SER489      0.1889
    144  C         30.5670   43.7220   18.9940 C.2   489  SER489      0.2288
    145  O         31.5100   44.3410   18.5300 O.2   489  SER489     -0.2866
    146  CB        28.4150   42.3920   18.9060 C.3   489  SER489      0.2089
    147  OG        27.4070   41.7740   18.0350 O.3   489  SER489     -0.2183
    148  N         28.4080   42.1850   24.8330 N.3   493  TYR493     -0.1227
    149  CA        27.0660   42.3070   24.2520 C.3   493  TYR493      0.1736
    150  C         26.0720   41.2880   24.8570 C.2   493  TYR493      0.2595
    151  O         26.3100   40.0620   24.8060 O.2   493  TYR493     -0.2718
    152  CB        27.1990   42.0940   22.7440 C.3   493  TYR493      0.0548
    153  CG        25.9150   41.9840   21.9500 C.ar  493  TYR493     -0.0200
    154  CD1       25.0500   43.1060   21.7680 C.ar  493  TYR493     -0.0009
    155  CD2       25.5650   40.7880   21.3190 C.ar  493  TYR493     -0.0009
    156  CE1       23.9190   42.9900   21.0070 C.ar  493  TYR493      0.0417
    157  CE2       24.4240   40.7030   20.5120 C.ar  493  TYR493      0.0417
    158  CZ        23.6110   41.7930   20.3980 C.ar  493  TYR493      0.1957
    159  OH        22.4440   41.7170   19.6340 O.3   493  TYR493     -0.2866
    160  N         24.9410   41.7990   25.3800 N.am  494  HIS494     -0.1975
    161  CA        23.8390   40.9710   25.8500 C.3   494  HIS494      0.1656
    162  C         24.2030   40.1070   27.0600 C.2   494  HIS494      0.2291
    163  O         23.5430   39.0920   27.3420 O.2   494  HIS494     -0.2864
    164  CB        23.2060   40.1260   24.7330 C.3   494  HIS494      0.0771
    165  CG        22.3230   40.8810   23.7800 C.ar  494  HIS494      0.0820
    166  ND1       21.5140   40.2150   22.9010 N.ar  494  HIS494     -0.2267
    167  CD2       22.0710   42.2080   23.5870 C.ar  494  HIS494      0.1154
    168  CE1       20.8010   41.0990   22.1980 C.ar  494  HIS494      0.1986
    169  NE2       21.1180   42.3170   22.6070 N.ar  494  HIS494     -0.2212
    170  N         19.8520   38.4990    9.0490 N.3   640  LYS640     -0.1231
    171  CA        18.9530   39.6640    9.0460 C.3   640  LYS640      0.1693
    172  C         19.6520   40.9700    9.3780 C.2   640  LYS640      0.2592
    173  O         19.1200   42.0390    9.0650 O.2   640  LYS640     -0.2718
    174  CB        17.7130   39.4180    9.8700 C.3   640  LYS640      0.0285
    175  CG        17.7700   39.7760   11.2490 C.3   640  LYS640      0.0035
    176  CD        16.3580   39.4650   11.9540 C.3   640  LYS640      0.0206
    177  CE        15.1550   40.3800   11.7150 C.3   640  LYS640      0.1093
    178  NZ        14.1590   40.1030   12.8710 N.3   640  LYS640     -0.1314
    179  N         20.8010   40.9390   10.0270 N.am  641  TYR641     -0.1976
    180  CA        21.5200   42.1730   10.3150 C.3   641  TYR641      0.1639
    181  C         22.0580   42.8760    9.0820 C.2   641  TYR641      0.2290
    182  O         22.3250   44.0890    9.1530 O.2   641  TYR641     -0.2864
    183  CB        22.7220   41.8820   11.2290 C.3   641  TYR641      0.0560
    184  CG        22.4250   41.4140   12.6170 C.ar  641  TYR641     -0.0198
    185  CD1       21.3200   41.8220   13.3370 C.ar  641  TYR641     -0.0009
    186  CD2       23.3600   40.5730   13.2290 C.ar  641  TYR641     -0.0009
    187  CE1       21.1530   41.4520   14.6600 C.ar  641  TYR641      0.0417
    188  CE2       23.1810   40.1960   14.5280 C.ar  641  TYR641      0.0417
    189  CZ        22.0620   40.6200   15.2000 C.ar  641  TYR641      0.1957
    190  OH        21.9180   40.2770   16.5720 O.3   641  TYR641     -0.2866
@<TRIPOS>BOND
     1   110   111    1
     2   171   170    1
     3   171   172    1
     4   171   174    1
     5   173   172    2
     6   181   182    2
     7   181   180    1
     8   172   179   am
     9   174   175    1
    10   111   114    1
    11   111   112    1
    12   179   180    1
    13   114   115    1
    14    34    33    2
    15   180   183    1
    16   120   121    1
    17    33    32    1
    18   123   122    2
    19   113   112    2
    20   112   116   am
    21   183   184    1
    22   175   176    1
    23   125   126    1
    24   125   124    1
    25   177   176    1
    26   177   178    1
    27   121   122    1
    28   121   124    1
    29   126   127    1
    30    32    31    1
    31    32    35    1
    32   116   117    1
    33     1     2    1
    34   184   186   ar
    35   184   185   ar
    36     5     2    1
    37     5     6    1
    38    35    36    1
    39     4     3    2
    40   186   188   ar
    41   130   128    1
    42   127   128    2
    43     8     6   ar
    44     8    10   ar
    45   185   187   ar
    46     2     3    1
    47   117   118    1
    48    85    84    1
    49     6     7   ar
    50   128   129    1
    51     3    12   am
    52    10    11   ar
    53    36    38    1
    54    36    37    1
    55   188   189   ar
    56   118   119    2
    57   187   189   ar
    58   131   132    1
    59   140   139    1
    60   134   133    2
    61     7     9   ar
    62   189   190    1
    63    84    83    1
    64    84    86    1
    65    12    13    1
    66    15    14    2
    67    14    13    1
    68    11     9   ar
    69   139   138    2
    70   139   141    1
    71   138   137    1
    72    83    80    1
    73   136   137    1
    74   136   135    1
    75    13    16    1
    76   133   132    1
    77   132   135    1
    78    78    77    2
    79    82    81    2
    80   142   143    1
    81    77    76    1
    82    77    79   am
    83    80    81    1
    84    80    79    1
    85    16    17    1
    86    76    75    1
    87    17    18    1
    88   108   107   ar
    89   147   146    1
    90   143   146    1
    91   143   144    1
    92    29    28    2
    93   145   144    2
    94    65    63   ar
    95    91    92    1
    96    91    88    1
    97   107   109   ar
    98   107   106    1
    99    94    92   ar
   100    26    25    2
   101    87    88    1
   102    98    97    2
   103    30    28   am
   104    28    27    1
   105    21    20    1
   106   105   106    1
   107   105   102    1
   108    62    63    1
   109    62    61    1
   110    92    93   ar
   111    63    64   ar
   112    18    19    1
   113    25    24    1
   114   159   158    1
   115    88    89    1
   116    20    19    2
   117    20    22    1
   118    60    59    2
   119    89    90    2
   120    89    95   am
   121   104   103    2
   122   103   102    1
   123    97    96    1
   124   102   101    1
   125   158   157   ar
   126   158   156   ar
   127    95    96    1
   128    27    24    1
   129   157   155   ar
   130    61    58    1
   131    58    59    1
   132    58    57    1
   133    59    66   am
   134    24    23    1
   135    99    96    1
   136    99   100    1
   137    46    48   ar
   138    46    44   ar
   139   156   154   ar
   140    39    40    1
   141   155   153   ar
   142    48    47   ar
   143    69    68    2
   144   154   153   ar
   145    43    44    1
   146    43    40    1
   147    68    67    1
   148    44    45   ar
   149   153   152    1
   150    66    67    1
   151    67    70    1
   152    73    72   ar
   153   168   169   ar
   154   168   166   ar
   155    40    41    1
   156    55    54   ar
   157    56    54   ar
   158   169   167   ar
   159    47    45   ar
   160    54    53    1
   161   152   149    1
   162    72    74   ar
   163    72    71    1
   164   166   165   ar
   165    53    50    1
   166    70    71    1
   167    41    42    2
   168   167   165   ar
   169   165   164    1
   170    50    49    1
   171    50    51    1
   172   149   148    1
   173   149   150    1
   174   164   161    1
   175   151   150    2
   176   150   160   am
   177    51    52    2
   178   160   161    1
   179   161   162    1
   180   162   163    2
