@<TRIPOS>MOLECULE
tmp/3feeA03.pdb
 129 124 0 0 0
SMALL
GASTEIGER

@<TRIPOS>ATOM
      1  N         22.9570   36.9530   12.5070 N.3   153  PHE153     -0.1227
      2  CA        21.9340   36.9520   13.5460 C.3   153  PHE153      0.1736
      3  C         21.6530   35.5120   14.0180 C.2   153  PHE153      0.2595
      4  O         21.4990   34.5550   13.2190 O.2   153  PHE153     -0.2718
      5  CB        20.6310   37.5320   12.9230 C.3   153  PHE153      0.0547
      6  CG        19.4270   37.4340   13.8440 C.ar  153  PHE153     -0.0202
      7  CD1       19.3580   38.1460   15.0470 C.ar  153  PHE153     -0.0042
      8  CD2       18.3290   36.7050   13.4090 C.ar  153  PHE153     -0.0042
      9  CE1       18.1780   38.0360   15.8520 C.ar  153  PHE153     -0.0003
     10  CE2       17.1880   36.5970   14.2150 C.ar  153  PHE153     -0.0003
     11  CZ        17.1270   37.2690   15.4010 C.ar  153  PHE153     -0.0000
     12  N         21.5100   35.3640   15.3320 N.am  154  ARG154     -0.1980
     13  CA        21.3430   34.0030   15.8920 C.3   154  ARG154      0.1597
     14  C         20.0940   33.2530   15.4620 C.2   154  ARG154      0.2287
     15  O         20.0740   32.0560   15.3480 O.2   154  ARG154     -0.2864
     16  CB        21.4290   34.0660   17.4190 C.3   154  ARG154      0.0334
     17  CG        20.1900   34.8030   18.0210 C.3   154  ARG154      0.0492
     18  CD        20.3800   35.0220   19.5580 C.3   154  ARG154      0.2205
     19  NE        21.2060   36.1700   19.8750 N.pl3 154  ARG154     -0.0865
     20  CZ        20.7930   37.4370   19.7160 C.cat 154  ARG154      0.5346
     21  NH1       19.5730   37.6830   19.2000 N.pl3 154  ARG154      0.1354
     22  NH2       21.6040   38.4470   20.0480 N.pl3 154  ARG154      0.1354
     23  N         16.8660   36.6880   21.4240 N.3   201  ASN201     -0.1240
     24  CA        15.8150   35.8610   20.8720 C.3   201  ASN201      0.1653
     25  C         16.2920   35.1040   19.5990 C.2   201  ASN201      0.2266
     26  O         17.2360   35.5360   18.9160 O.2   201  ASN201     -0.2867
     27  CB        14.5340   36.6910   20.6000 C.3   201  ASN201      0.1155
     28  CG        14.5730   37.3660   19.2550 C.2   201  ASN201      0.2627
     29  OD1       14.3240   36.7150   18.2090 O.2   201  ASN201     -0.2716
     30  ND2       14.8800   38.6730   19.2360 N.am  201  ASN201     -0.0877
     31  N         23.6550   48.6280   24.8800 N.3   330  ASP330     -0.1239
     32  CA        22.4550   48.2940   24.1190 C.3   330  ASP330      0.1674
     33  C         21.2450   48.1280   25.0220 C.2   330  ASP330      0.2266
     34  O         21.1620   47.1230   25.7440 O.2   330  ASP330     -0.2867
     35  CB        22.7230   46.9540   23.4290 C.3   330  ASP330      0.1410
     36  CG        21.5200   46.4350   22.6670 C.2   330  ASP330      0.3668
     37  OD1       20.6040   47.2260   22.4150 O.co2 330  ASP330     -0.2456
     38  OD2       21.5190   45.2320   22.3220 O.co2 330  ASP330     -0.2456
     39  N         12.1360   45.5710   21.8880 N.3   367  GLU367     -0.1231
     40  CA        12.9640   45.3710   20.6710 C.3   367  GLU367      0.1699
     41  C         13.6990   44.0460   20.7700 C.2   367  GLU367      0.2592
     42  O         13.8900   43.3470   19.7340 O.2   367  GLU367     -0.2718
     43  CB        13.9300   46.5300   20.5720 C.3   367  GLU367      0.0402
     44  CG        14.7500   46.5380   19.2400 C.3   367  GLU367      0.1161
     45  CD        16.0700   45.7300   19.3060 C.2   367  GLU367      0.3649
     46  OE1       16.4370   45.1760   20.3730 O.co2 367  GLU367     -0.2457
     47  OE2       16.7120   45.6720   18.2360 O.co2 367  GLU367     -0.2457
     48  N         14.1250   43.7000   21.9910 N.am  368  GLU368     -0.1979
     49  CA        14.9770   42.4870   22.1200 C.3   368  GLU368      0.1602
     50  C         14.2060   41.2160   21.8380 C.2   368  GLU368      0.2287
     51  O         14.8470   40.1500   21.7260 O.2   368  GLU368     -0.2864
     52  CB        15.5580   42.3920   23.5350 C.3   368  GLU368      0.0415
     53  CG        16.5010   43.5330   23.8640 C.3   368  GLU368      0.1163
     54  CD        17.7880   43.5310   23.0830 C.2   368  GLU368      0.3649
     55  OE1       17.9980   42.7490   22.1180 O.co2 368  GLU368     -0.2457
     56  OE2       18.6620   44.3750   23.4200 O.co2 368  GLU368     -0.2457
     57  N         12.0680   40.9390   19.2280 N.3   370  GLY370     -0.1210
     58  CA        11.7150   40.9110   17.7960 C.3   370  GLY370      0.1956
     59  C         11.2340   42.2510   17.2360 C.2   370  GLY370      0.2611
     60  O         10.3930   42.2790   16.3350 O.2   370  GLY370     -0.2717
     61  N         11.7620   43.3480   17.7600 N.am  371  LEU371     -0.1979
     62  CA        11.3520   44.6700   17.2590 C.3   371  LEU371      0.1596
     63  C          9.8480   44.8630   17.5260 C.2   371  LEU371      0.2287
     64  O          9.0970   45.4820   16.7140 O.2   371  LEU371     -0.2864
     65  CB        11.6800   44.8540   15.7590 C.3   371  LEU371      0.0297
     66  CG        13.0220   44.2690   15.2830 C.3   371  LEU371      0.0022
     67  CD1       13.1910   44.6100   13.8060 C.3   371  LEU371      0.0001
     68  CD2       14.1940   44.8440   16.0940 C.3   371  LEU371      0.0001
     69  N         19.1170   53.6480   18.8820 N.3   396  ASP396     -0.1239
     70  CA        19.5790   52.4810   19.6540 C.3   396  ASP396      0.1674
     71  C         21.0270   52.8060   20.1040 C.2   396  ASP396      0.2266
     72  O         21.4520   53.9920   20.1360 O.2   396  ASP396     -0.2867
     73  CB        19.4950   51.2760   18.6960 C.3   396  ASP396      0.1410
     74  CG        19.5180   49.8980   19.3800 C.2   396  ASP396      0.3668
     75  OD1       20.0330   49.6850   20.5160 O.co2 396  ASP396     -0.2456
     76  OD2       18.9650   48.9560   18.7450 O.co2 396  ASP396     -0.2456
     77  N         18.2380   44.7380    8.6430 N.3   460  SER460     -0.1202
     78  CA        17.5180   44.8340    9.9180 C.3   460  SER460      0.2020
     79  C         18.5230   44.9420   11.0740 C.2   460  SER460      0.2619
     80  O         19.6740   45.4430   10.8730 O.2   460  SER460     -0.2717
     81  CB        16.6080   43.6290   10.0640 C.3   460  SER460      0.2103
     82  OG        15.6910   43.8510   11.1410 O.3   460  SER460     -0.2182
     83  N         18.0910   44.5240   12.2780 N.am  461  GLY461     -0.1956
     84  CA        18.9680   44.6350   13.4510 C.3   461  GLY461      0.1869
     85  C         18.4330   45.5460   14.5240 C.2   461  GLY461      0.2309
     86  O         18.9130   45.4850   15.6630 O.2   461  GLY461     -0.2863
     87  N         28.4480   42.0600   24.7110 N.3   492  TYR492     -0.1227
     88  CA        27.1110   42.2150   24.1290 C.3   492  TYR492      0.1736
     89  C         26.1080   41.2170   24.6850 C.2   492  TYR492      0.2595
     90  O         26.3370   39.9920   24.6530 O.2   492  TYR492     -0.2718
     91  CB        27.2580   42.0030   22.6280 C.3   492  TYR492      0.0548
     92  CG        25.9640   41.8650   21.8290 C.ar  492  TYR492     -0.0200
     93  CD1       25.0810   42.9640   21.6350 C.ar  492  TYR492     -0.0009
     94  CD2       25.6470   40.6540   21.2270 C.ar  492  TYR492     -0.0009
     95  CE1       23.9120   42.8160   20.8920 C.ar  492  TYR492      0.0417
     96  CE2       24.4850   40.5040   20.4430 C.ar  492  TYR492      0.0417
     97  CZ        23.6010   41.5980   20.3150 C.ar  492  TYR492      0.1957
     98  OH        22.4440   41.4790   19.5170 O.3   492  TYR492     -0.2866
     99  N         24.9980   41.7670   25.1700 N.am  493  HIS493     -0.1975
    100  CA        23.8470   40.9480   25.6360 C.3   493  HIS493      0.1656
    101  C         24.1850   40.0590   26.8450 C.2   493  HIS493      0.2291
    102  O         23.4840   39.0420   27.1250 O.2   493  HIS493     -0.2864
    103  CB        23.2450   40.1370   24.4770 C.3   493  HIS493      0.0771
    104  CG        22.2810   40.8950   23.6180 C.ar  493  HIS493      0.0820
    105  ND1       21.4310   40.2160   22.7510 N.ar  493  HIS493     -0.2267
    106  CD2       22.0220   42.2150   23.4520 C.ar  493  HIS493      0.1154
    107  CE1       20.6740   41.1020   22.1090 C.ar  493  HIS493      0.1986
    108  NE2       21.0440   42.3160   22.4850 N.ar  493  HIS493     -0.2212
    109  N         19.7730   38.4580    9.0170 N.3   639  LYS639     -0.1231
    110  CA        18.9080   39.6570    8.9570 C.3   639  LYS639      0.1693
    111  C         19.6540   40.9460    9.2620 C.2   639  LYS639      0.2592
    112  O         19.1500   42.0600    8.9370 O.2   639  LYS639     -0.2718
    113  CB        17.6100   39.5310    9.7880 C.3   639  LYS639      0.0285
    114  CG        17.8240   39.7290   11.2530 C.3   639  LYS639      0.0035
    115  CD        16.5500   39.3370   12.0280 C.3   639  LYS639      0.0206
    116  CE        15.3260   40.2270   11.7150 C.3   639  LYS639      0.1093
    117  NZ        14.2460   39.9420   12.7880 N.3   639  LYS639     -0.1314
    118  N         20.7950   40.8680    9.9700 N.am  640  TYR640     -0.1976
    119  CA        21.5610   42.0900   10.2690 C.3   640  TYR640      0.1639
    120  C         22.1320   42.7910    9.0330 C.2   640  TYR640      0.2290
    121  O         22.4670   44.0040    9.0930 O.2   640  TYR640     -0.2864
    122  CB        22.7510   41.7420   11.1410 C.3   640  TYR640      0.0560
    123  CG        22.4460   41.3070   12.5340 C.ar  640  TYR640     -0.0198
    124  CD1       21.2910   41.7420   13.2210 C.ar  640  TYR640     -0.0009
    125  CD2       23.3350   40.4720   13.1910 C.ar  640  TYR640     -0.0009
    126  CE1       21.0610   41.3530   14.5830 C.ar  640  TYR640      0.0417
    127  CE2       23.1090   40.1100   14.5060 C.ar  640  TYR640      0.0417
    128  CZ        21.9830   40.5710   15.1890 C.ar  640  TYR640      0.1957
    129  OH        21.8030   40.1570   16.5100 O.3   640  TYR640     -0.2866
@<TRIPOS>BOND
     1    77    78    1
     2   112   111    2
     3   110   109    1
     4   110   111    1
     5   110   113    1
     6   120   121    2
     7   120   119    1
     8   111   118   am
     9   113   114    1
    10    78    81    1
    11    78    79    1
    12   118   119    1
    13    81    82    1
    14   119   122    1
    15    80    79    2
    16    79    83   am
    17   122   123    1
    18   114   115    1
    19   116   115    1
    20   116   117    1
    21    83    84    1
    22     1     2    1
    23   123   125   ar
    24   123   124   ar
    25     5     2    1
    26     5     6    1
    27   125   127   ar
    28     4     3    2
    29   124   126   ar
    30     8     6   ar
    31     8    10   ar
    32    84    85    1
    33     2     3    1
    34    67    66    1
    35     6     7   ar
    36     3    12   am
    37    10    11   ar
    38   127   128   ar
    39    85    86    2
    40   126   128   ar
    41     7     9   ar
    42   128   129    1
    43    66    65    1
    44    66    68    1
    45    12    13    1
    46    15    14    2
    47    11     9   ar
    48    14    13    1
    49    65    62    1
    50    13    16    1
    51    60    59    2
    52    64    63    2
    53    59    61   am
    54    59    58    1
    55    62    63    1
    56    62    61    1
    57    16    17    1
    58    58    57    1
    59    17    18    1
    60    29    28    2
    61    47    45   ar
    62    73    74    1
    63    73    70    1
    64    76    74   ar
    65    69    70    1
    66    26    25    2
    67    21    20    1
    68    30    28   am
    69    44    45    1
    70    44    43    1
    71    28    27    1
    72    45    46   ar
    73    74    75   ar
    74    98    97    1
    75    18    19    1
    76    25    24    1
    77    70    71    1
    78    20    19    2
    79    20    22    1
    80    42    41    2
    81    71    72    2
    82    97    96   ar
    83    97    95   ar
    84    96    94   ar
    85    43    40    1
    86    27    24    1
    87    40    41    1
    88    40    39    1
    89    41    48   am
    90    24    23    1
    91    95    93   ar
    92    94    92   ar
    93    93    92   ar
    94    51    50    2
    95    92    91    1
    96    50    49    1
    97    48    49    1
    98   107   108   ar
    99   107   105   ar
   100    55    54   ar
   101    49    52    1
   102    38    36   ar
   103    37    36   ar
   104   108   106   ar
   105    91    88    1
   106    36    35    1
   107   105   104   ar
   108    54    56   ar
   109    54    53    1
   110    35    32    1
   111   106   104   ar
   112    52    53    1
   113   104   103    1
   114    32    31    1
   115    32    33    1
   116    88    89    1
   117    88    87    1
   118   103   100    1
   119    90    89    2
   120    89    99   am
   121    33    34    2
   122    99   100    1
   123   100   101    1
   124   101   102    2
