@<TRIPOS>MOLECULE
tmp/3feiA00.pdb
 174 166 0 0 0
SMALL
GASTEIGER

@<TRIPOS>ATOM
      1  N         49.4980   30.4770   22.1920 N.3    62  VAL62      -0.1231
      2  CA        49.6730   31.0700   20.8650 C.3    62  VAL62       0.1692
      3  C         50.4110   30.0920   19.9610 C.2    62  VAL62       0.2592
      4  O         50.0500   29.8900   18.7900 O.2    62  VAL62      -0.2718
      5  CB        50.4500   32.4010   20.9420 C.3    62  VAL62       0.0266
      6  CG1       50.9410   32.8420   19.5480 C.3    62  VAL62       0.0020
      7  CG2       49.5790   33.4950   21.5740 C.3    62  VAL62       0.0020
      8  N         51.4570   29.4980   20.5360 N.am   63  THR63      -0.1953
      9  CA        52.2390   28.4440   19.9250 C.3    63  THR63       0.1897
     10  C         51.3030   27.3140   19.4720 C.2    63  THR63       0.2313
     11  O         51.3600   26.8830   18.3170 O.2    63  THR63      -0.2863
     12  CB        53.3550   27.9900   20.9200 C.3    63  THR63       0.1794
     13  OG1       54.5340   28.7630   20.6810 O.3    63  THR63      -0.2208
     14  CG2       53.6940   26.5600   20.7750 C.3    63  THR63       0.0378
     15  N         48.7460   28.6370   16.6240 N.3    66  THR66      -0.1203
     16  CA        49.4500   28.7460   15.3380 C.3    66  THR66       0.1994
     17  C         49.4180   27.4200   14.5780 C.2    66  THR66       0.2617
     18  O         49.0760   27.3830   13.3960 O.2    66  THR66      -0.2717
     19  CB        50.9170   29.2330   15.5520 C.3    66  THR66       0.1784
     20  OG1       50.8910   30.5770   16.0490 O.3    66  THR66      -0.2211
     21  CG2       51.7130   29.1930   14.2400 C.3    66  THR66       0.0376
     22  N         49.7400   26.3380   15.2850 N.am   67  GLU67      -0.1979
     23  CA        49.6360   24.9840   14.7370 C.3    67  GLU67       0.1602
     24  C         48.1930   24.5970   14.3830 C.2    67  GLU67       0.2287
     25  O         47.9300   24.1560   13.2520 O.2    67  GLU67      -0.2864
     26  CB        50.2630   23.9640   15.7000 C.3    67  GLU67       0.0415
     27  CG        51.7730   24.0960   15.8410 C.3    67  GLU67       0.1163
     28  CD        52.4640   24.0310   14.4930 C.2    67  GLU67       0.3649
     29  OE1       52.4630   22.9390   13.8920 O.co2  67  GLU67      -0.2457
     30  OE2       52.9870   25.0750   14.0320 O.co2  67  GLU67      -0.2457
     31  N         47.1850   26.4250   11.1770 N.3    70  LYS70      -0.1245
     32  CA        47.8000   25.8650    9.9630 C.3    70  LYS70       0.1561
     33  C         47.0350   24.6510    9.4640 C.2    70  LYS70       0.2260
     34  O         46.9720   24.4000    8.2610 O.2    70  LYS70      -0.2867
     35  CB        49.2810   25.5430   10.1700 C.3    70  LYS70       0.0271
     36  CG        50.1600   26.7900   10.2150 C.3    70  LYS70       0.0035
     37  CD        51.6470   26.4750   10.0520 C.3    70  LYS70       0.0206
     38  CE        52.1880   25.6990   11.2390 C.3    70  LYS70       0.1093
     39  NZ        53.6080   26.0640   11.5470 N.3    70  LYS70      -0.1314
     40  N         43.6810   27.7240    5.3410 N.3    75  PHE75      -0.1241
     41  CA        44.4150   28.7250    6.1160 C.3    75  PHE75       0.1605
     42  C         45.8820   28.8570    5.7100 C.2    75  PHE75       0.2264
     43  O         46.4030   29.9690    5.6150 O.2    75  PHE75      -0.2867
     44  CB        44.3140   28.4440    7.6300 C.3    75  PHE75       0.0534
     45  CG        44.9860   29.4860    8.4840 C.ar   75  PHE75      -0.0203
     46  CD1       44.2570   30.5630    8.9880 C.ar   75  PHE75      -0.0042
     47  CD2       46.3540   29.4070    8.7620 C.ar   75  PHE75      -0.0042
     48  CE1       44.8790   31.5520    9.7760 C.ar   75  PHE75      -0.0003
     49  CE2       46.9910   30.3880    9.5220 C.ar   75  PHE75      -0.0003
     50  CZ        46.2480   31.4640   10.0370 C.ar   75  PHE75      -0.0000
     51  N         51.2130   34.8430    3.7900 N.3    80  LEU80      -0.1231
     52  CA        51.8380   34.7700    5.0950 C.3    80  LEU80       0.1693
     53  C         51.5600   35.9960    5.9730 C.2    80  LEU80       0.2592
     54  O         51.5280   35.8890    7.2050 O.2    80  LEU80      -0.2718
     55  CB        53.3260   34.5280    4.9350 C.3    80  LEU80       0.0284
     56  CG        53.9150   33.6580    6.0380 C.3    80  LEU80       0.0019
     57  CD1       54.8330   32.5840    5.4540 C.3    80  LEU80       0.0001
     58  CD2       54.6460   34.5290    7.0330 C.3    80  LEU80       0.0001
     59  N         51.3420   37.1470    5.3340 N.am   81  ASN81      -0.1974
     60  CA        50.9950   38.3840    6.0320 C.3    81  ASN81       0.1688
     61  C         49.5420   38.3940    6.5250 C.2    81  ASN81       0.2292
     62  O         49.2200   39.0530    7.5160 O.2    81  ASN81      -0.2864
     63  CB        51.2730   39.6060    5.1460 C.3    81  ASN81       0.1181
     64  CG        52.7500   39.7340    4.7630 C.2    81  ASN81       0.2629
     65  OD1       53.4570   40.6070    5.2670 O.2    81  ASN81      -0.2716
     66  ND2       53.2210   38.8550    3.8700 N.am   81  ASN81      -0.0877
     67  N         47.9900   35.5010    7.3960 N.3    83  GLN83      -0.1231
     68  CA        48.0330   34.5310    8.4780 C.3    83  GLN83       0.1698
     69  C         48.5050   35.2090    9.7600 C.2    83  GLN83       0.2592
     70  O         48.0590   34.8530   10.8550 O.2    83  GLN83      -0.2718
     71  CB        48.9440   33.3460    8.1290 C.3    83  GLN83       0.0381
     72  CG        48.5620   32.5880    6.8380 C.3    83  GLN83       0.0905
     73  CD        49.4950   31.4210    6.5430 C.2    83  GLN83       0.2608
     74  OE1       50.0290   30.7920    7.4550 O.2    83  GLN83      -0.2717
     75  NE2       49.6860   31.1210    5.2640 N.am   83  GLN83      -0.0878
     76  N         49.3890   36.1950    9.6110 N.am   84  VAL84      -0.1966
     77  CA        49.9010   36.9530   10.7450 C.3    84  VAL84       0.1727
     78  C         48.8040   37.8490   11.3150 C.2    84  VAL84       0.2616
     79  O         48.5440   37.8230   12.5100 O.2    84  VAL84      -0.2715
     80  CB        51.1720   37.7740   10.3890 C.3    84  VAL84       0.0290
     81  CG1       51.4520   38.7990   11.4550 C.3    84  VAL84       0.0023
     82  CG2       52.3620   36.8550   10.2550 C.3    84  VAL84       0.0023
     83  N         48.1640   38.6190   10.4390 N.am   85  THR85      -0.1951
     84  CA        47.0130   39.4500   10.7880 C.3    85  THR85       0.1897
     85  C         45.9180   38.6860   11.5660 C.2    85  THR85       0.2313
     86  O         45.4570   39.1510   12.6140 O.2    85  THR85      -0.2863
     87  CB        46.4510   40.1240    9.5180 C.3    85  THR85       0.1794
     88  OG1       47.4590   40.9930    8.9890 O.3    85  THR85      -0.2208
     89  CG2       45.2070   40.9350    9.8080 C.3    85  THR85       0.0378
     90  N         46.0510   35.6760   13.2810 N.3    87  LEU87      -0.1231
     91  CA        46.4930   35.1620   14.5680 C.3    87  LEU87       0.1693
     92  C         46.7200   36.3140   15.5230 C.2    87  LEU87       0.2591
     93  O         46.3870   36.2310   16.7040 O.2    87  LEU87      -0.2718
     94  CB        47.7670   34.3200   14.4160 C.3    87  LEU87       0.0284
     95  CG        47.4840   32.8930   13.9440 C.3    87  LEU87       0.0019
     96  CD1       48.7410   32.2200   13.4680 C.3    87  LEU87       0.0001
     97  CD2       46.8460   32.0680   15.0350 C.3    87  LEU87       0.0001
     98  N         47.2680   37.3980   14.9870 N.am   88  LYS88      -0.1980
     99  CA        47.5220   38.6050   15.7510 C.3    88  LYS88       0.1596
    100  C         46.2230   39.1260   16.3860 C.2    88  LYS88       0.2287
    101  O         46.2080   39.4780   17.5510 O.2    88  LYS88      -0.2864
    102  CB        48.1600   39.6660   14.8470 C.3    88  LYS88       0.0298
    103  CG        48.5230   40.9490   15.5550 C.3    88  LYS88       0.0038
    104  CD        48.7550   42.0990   14.5670 C.3    88  LYS88       0.0206
    105  CE        48.7060   43.4520   15.2850 C.3    88  LYS88       0.1093
    106  NZ        49.7640   43.5330   16.3280 N.3    88  LYS88      -0.1314
    107  N         43.9120   35.7780   18.4670 N.3    91  VAL91      -0.1245
    108  CA        44.5970   34.8940   19.3800 C.3    91  VAL91       0.1561
    109  C         44.1130   35.0490   20.8340 C.2    91  VAL91       0.2260
    110  O         43.8010   34.0470   21.4960 O.2    91  VAL91      -0.2867
    111  CB        46.1460   34.9990   19.1480 C.3    91  VAL91       0.0252
    112  CG1       46.8570   35.9110   20.1480 C.3    91  VAL91       0.0019
    113  CG2       46.7730   33.6420   19.0540 C.3    91  VAL91       0.0019
    114  N         56.7450   39.6390   27.1430 N.3   235  HIS235     -0.1227
    115  CA        57.4110   38.7600   26.1930 C.3   235  HIS235      0.1737
    116  C         57.3400   39.3970   24.7970 C.2   235  HIS235      0.2438
    117  O         56.3060   39.9610   24.4230 O.2   235  HIS235     -0.2733
    118  CB        56.7080   37.4030   26.2040 C.3   235  HIS235      0.0758
    119  CG        57.4020   36.3400   25.4090 C.ar  235  HIS235      0.0818
    120  ND1       58.0570   35.2790   25.9990 N.ar  235  HIS235     -0.2268
    121  CD2       57.5220   36.1590   24.0710 C.ar  235  HIS235      0.1154
    122  CE1       58.5620   34.4970   25.0600 C.ar  235  HIS235      0.1986
    123  NE2       58.2500   35.0070   23.8800 N.ar  235  HIS235     -0.2212
    124  N         58.4460   39.3640   24.0370 N.am  236  PRO236     -0.2718
    125  CA        58.4240   39.9470   22.6880 C.3   236  PRO236      0.1535
    126  C         57.3140   39.4580   21.7200 C.2   236  PRO236      0.2598
    127  O         56.8880   40.2200   20.8570 O.2   236  PRO236     -0.2715
    128  CB        59.8300   39.6310   22.1440 C.3   236  PRO236      0.0310
    129  CG        60.3810   38.5660   23.0530 C.3   236  PRO236      0.0237
    130  CD        59.7830   38.8530   24.3870 C.3   236  PRO236      0.0939
    131  N         56.8680   38.2080   21.8480 N.am  237  LEU237     -0.1978
    132  CA        55.7500   37.6970   21.0300 C.3   237  LEU237      0.1596
    133  C         54.4530   38.4180   21.3830 C.2   237  LEU237      0.2287
    134  O         53.7250   38.8770   20.4940 O.2   237  LEU237     -0.2864
    135  CB        55.5570   36.1810   21.1950 C.3   237  LEU237      0.0297
    136  CG        54.4160   35.5100   20.4230 C.3   237  LEU237      0.0022
    137  CD1       54.6170   35.6230   18.9000 C.3   237  LEU237      0.0001
    138  CD2       54.2710   34.0520   20.8340 C.3   237  LEU237      0.0001
    139  N         54.4860   41.9810   20.1040 N.3   240  GLU240     -0.1231
    140  CA        54.0750   42.0090   18.6920 C.3   240  GLU240      0.1699
    141  C         52.5640   42.0360   18.5420 C.2   240  GLU240      0.2592
    142  O         52.0200   42.8650   17.8170 O.2   240  GLU240     -0.2718
    143  CB        54.5570   40.7660   17.9640 C.3   240  GLU240      0.0402
    144  CG        55.8620   40.8870   17.2630 C.3   240  GLU240      0.1161
    145  CD        56.3140   39.5450   16.7430 C.2   240  GLU240      0.3649
    146  OE1       57.4180   39.1180   17.1480 O.co2 240  GLU240     -0.2457
    147  OE2       55.5510   38.9110   15.9680 O.co2 240  GLU240     -0.2457
    148  N         51.9040   41.1100   19.2320 N.am  241  ILE241     -0.1980
    149  CA        50.4530   40.9330   19.1420 C.3   241  ILE241      0.1595
    150  C         49.7230   42.2040   19.5950 C.2   241  ILE241      0.2287
    151  O         48.8180   42.6750   18.9010 O.2   241  ILE241     -0.2864
    152  CB        49.9960   39.6480   19.9060 C.3   241  ILE241      0.0276
    153  CG1       50.4660   38.4020   19.1430 C.3   241  ILE241      0.0022
    154  CG2       48.4840   39.6150   20.1050 C.3   241  ILE241      0.0022
    155  CD1       50.7760   37.2280   19.9920 C.3   241  ILE241      0.0001
    156  N         50.9420   45.2570   19.7760 N.3   243  ARG243     -0.1231
    157  CA        51.3800   46.4480   19.0460 C.3   243  ARG243      0.1694
    158  C         50.3170   46.8570   18.0220 C.2   243  ARG243      0.2592
    159  O         49.7530   46.0010   17.3530 O.2   243  ARG243     -0.2718
    160  CB        52.7470   46.1960   18.3870 C.3   243  ARG243      0.0321
    161  CG        53.2870   47.3620   17.5580 C.3   243  ARG243      0.0489
    162  CD        54.8290   47.3380   17.4170 C.3   243  ARG243      0.2205
    163  NE        55.3390   46.1410   16.7280 N.pl3 243  ARG243     -0.0865
    164  CZ        56.1700   45.2410   17.2590 C.cat 243  ARG243      0.5346
    165  NH1       56.6250   45.3680   18.5100 N.pl3 243  ARG243      0.1354
    166  NH2       56.5560   44.2080   16.5270 N.pl3 243  ARG243      0.1354
    167  N         50.0320   48.1580   17.9440 N.am  244  ASP244     -0.1974
    168  CA        49.0440   48.7350   17.0130 C.3   244  ASP244      0.1709
    169  C         47.5870   48.3460   17.2790 C.2   244  ASP244      0.2293
    170  O         46.7280   48.5580   16.4140 O.2   244  ASP244     -0.2864
    171  CB        49.3790   48.3910   15.5530 C.3   244  ASP244      0.1436
    172  CG        50.6200   49.1060   15.0350 C.2   244  ASP244      0.3671
    173  OD1       51.3840   49.7080   15.8300 O.co2 244  ASP244     -0.2456
    174  OD2       50.8250   49.0580   13.8020 O.co2 244  ASP244     -0.2456
@<TRIPOS>BOND
     1    51    52    1
     2    66    64   am
     3    64    63    1
     4    64    65    2
     5    55    52    1
     6    55    56    1
     7    52    53    1
     8    63    60    1
     9    75    73   am
    10    59    53   am
    11    59    60    1
    12    40    41    1
    13    57    56    1
    14    43    42    2
    15    42    41    1
    16    53    54    2
    17    60    61    1
    18    56    58    1
    19    41    44    1
    20    61    62    2
    21    73    72    1
    22    73    74    2
    23    72    71    1
    24    67    68    1
    25    44    45    1
    26    71    68    1
    27    34    33    2
    28    68    69    1
    29    45    47   ar
    30    45    46   ar
    31    47    49   ar
    32    46    48   ar
    33    88    87    1
    34    33    32    1
    35    87    89    1
    36    87    84    1
    37    49    50   ar
    38    76    69   am
    39    76    77    1
    40    69    70    2
    41    48    50   ar
    42    32    35    1
    43    32    31    1
    44    37    36    1
    45    37    38    1
    46    35    36    1
    47    82    80    1
    48    80    77    1
    49    80    81    1
    50    83    84    1
    51    83    78   am
    52    77    78    1
    53    84    85    1
    54    38    39    1
    55    78    79    2
    56    85    86    2
    57    25    24    2
    58    90    91    1
    59    18    17    2
    60    96    95    1
    61   174   172   ar
    62    29    28   ar
    63    95    94    1
    64    95    97    1
    65    30    28   ar
    66    21    19    1
    67    24    23    1
    68    94    91    1
    69    28    27    1
    70   104   105    1
    71   104   103    1
    72    91    92    1
    73    17    22   am
    74    17    16    1
    75    23    22    1
    76    23    26    1
    77   102   103    1
    78   102    99    1
    79    98    92   am
    80    98    99    1
    81   172   171    1
    82   172   173   ar
    83   105   106    1
    84    16    19    1
    85    16    15    1
    86    92    93    2
    87    19    20    1
    88   171   168    1
    89    26    27    1
    90    99   100    1
    91   147   145   ar
    92   100   101    2
    93   170   169    2
    94   166   164    1
    95   163   164    2
    96   163   162    1
    97   145   146   ar
    98   145   144    1
    99   168   169    1
   100   168   167    1
   101   164   165    1
   102   144   143    1
   103   159   158    2
   104   162   161    1
   105   161   160    1
   106   142   141    2
   107   167   158   am
   108   143   140    1
   109   158   157    1
   110    11    10    2
   111   160   157    1
   112   107   108    1
   113   141   140    1
   114   141   148   am
   115   140   139    1
   116     4     3    2
   117   137   136    1
   118   151   150    2
   119   157   156    1
   120   113   111    1
   121   149   148    1
   122   149   150    1
   123   149   152    1
   124   153   152    1
   125   153   155    1
   126   111   108    1
   127   111   112    1
   128   108   109    1
   129    10     9    1
   130     6     5    1
   131   152   154    1
   132     9     8    1
   133     9    12    1
   134     3     8   am
   135     3     2    1
   136   136   138    1
   137   136   135    1
   138   134   133    2
   139    13    12    1
   140    14    12    1
   141   109   110    2
   142   127   126    2
   143     2     5    1
   144     2     1    1
   145     5     7    1
   146   132   135    1
   147   132   133    1
   148   132   131    1
   149   126   131   am
   150   126   125    1
   151   128   125    1
   152   128   129    1
   153   125   124    1
   154   129   130    1
   155   123   121   ar
   156   123   122   ar
   157   124   130    1
   158   124   116   am
   159   121   119   ar
   160   117   116    2
   161   116   115    1
   162   122   120   ar
   163   119   120   ar
   164   119   118    1
   165   115   118    1
   166   115   114    1
