@<TRIPOS>MOLECULE
tmp/3feiA01.pdb
 236 222 0 0 0
SMALL
GASTEIGER

@<TRIPOS>ATOM
      1  N         46.7520   27.1590   45.3840 N.3    33  ILE33      -0.1245
      2  CA        47.4040   28.4350   45.6630 C.3    33  ILE33       0.1561
      3  C         46.3550   29.4270   46.1710 C.2    33  ILE33       0.2260
      4  O         45.4620   29.8490   45.4200 O.2    33  ILE33      -0.2867
      5  CB        48.1310   28.9930   44.4300 C.3    33  ILE33       0.0252
      6  CG1       49.1600   27.9790   43.9110 C.3    33  ILE33       0.0019
      7  CG2       48.7840   30.3370   44.7620 C.3    33  ILE33       0.0019
      8  CD1       49.6220   28.2380   42.4840 C.3    33  ILE33       0.0001
      9  N         51.9310   30.1940   46.7520 N.3    39  LEU39      -0.1245
     10  CA        52.4630   30.7240   45.5030 C.3    39  LEU39       0.1561
     11  C         53.9450   30.3730   45.3050 C.2    39  LEU39       0.2260
     12  O         54.3650   30.0210   44.1960 O.2    39  LEU39      -0.2867
     13  CB        52.2570   32.2390   45.4350 C.3    39  LEU39       0.0270
     14  CG        52.6010   32.9390   44.1130 C.3    39  LEU39       0.0019
     15  CD1       51.6700   32.5100   42.9790 C.3    39  LEU39       0.0001
     16  CD2       52.5460   34.4330   44.3010 C.3    39  LEU39       0.0001
     17  N         54.6730   26.5390   44.6480 N.3    42  ALA42      -0.1231
     18  CA        54.3280   26.2180   43.2590 C.3    42  ALA42       0.1694
     19  C         55.2800   26.8740   42.2550 C.2    42  ALA42       0.2591
     20  O         55.3540   26.4650   41.0950 O.2    42  ALA42      -0.2718
     21  CB        52.8930   26.6250   42.9730 C.3    42  ALA42       0.0304
     22  N         56.0100   27.8850   42.7220 N.am   43  GLU43      -0.1979
     23  CA        56.9100   28.6840   41.8920 C.3    43  GLU43       0.1602
     24  C         58.3010   28.0570   41.7710 C.2    43  GLU43       0.2287
     25  O         58.4820   27.0240   41.1230 O.2    43  GLU43      -0.2864
     26  CB        57.0290   30.0870   42.4900 C.3    43  GLU43       0.0415
     27  CG        57.2380   31.2050   41.4810 C.3    43  GLU43       0.1163
     28  CD        56.3380   32.4030   41.7530 C.2    43  GLU43       0.3649
     29  OE1       55.9140   32.5970   42.9200 O.co2  43  GLU43      -0.2457
     30  OE2       56.0440   33.1430   40.7900 O.co2  43  GLU43      -0.2457
     31  N         53.0840   36.6480   38.9710 N.3    50  ILE50      -0.1231
     32  CA        51.8280   36.1250   38.4280 C.3    50  ILE50       0.1692
     33  C         51.5640   36.6500   37.0010 C.2    50  ILE50       0.2592
     34  O         51.2010   35.8840   36.0950 O.2    50  ILE50      -0.2718
     35  CB        50.6340   36.4190   39.3760 C.3    50  ILE50       0.0266
     36  CG1       50.6670   35.4460   40.5650 C.3    50  ILE50       0.0019
     37  CG2       49.3010   36.3010   38.6360 C.3    50  ILE50       0.0020
     38  CD1       49.8840   35.8960   41.7800 C.3    50  ILE50       0.0001
     39  N         51.7550   37.9570   36.8300 N.am   51  PHE51      -0.1976
     40  CA        51.7090   38.6410   35.5450 C.3    51  PHE51       0.1639
     41  C         52.6090   37.9280   34.5370 C.2    51  PHE51       0.2290
     42  O         52.2030   37.6790   33.3980 O.2    51  PHE51      -0.2864
     43  CB        52.1600   40.0960   35.7610 C.3    51  PHE51       0.0560
     44  CG        52.1610   40.9440   34.5200 C.ar   51  PHE51      -0.0200
     45  CD1       53.3420   41.1740   33.8250 C.ar   51  PHE51      -0.0042
     46  CD2       50.9880   41.5470   34.0670 C.ar   51  PHE51      -0.0042
     47  CE1       53.3580   41.9760   32.6820 C.ar   51  PHE51      -0.0003
     48  CE2       50.9930   42.3490   32.9220 C.ar   51  PHE51      -0.0003
     49  CZ        52.1870   42.5660   32.2310 C.ar   51  PHE51      -0.0000
     50  N         53.6360   34.8420   34.7310 N.3    53  CYS53      -0.1221
     51  CA        53.1220   33.4720   34.5830 C.3    53  CYS53       0.1808
     52  C         52.0040   33.3570   33.5500 C.2    53  CYS53       0.2601
     53  O         51.9490   32.3890   32.7900 O.2    53  CYS53      -0.2717
     54  CB        52.5970   32.9540   35.9270 C.3    53  CYS53       0.0970
     55  SG        53.8420   32.2660   37.0280 S.3    53  CYS53      -0.0800
     56  N         51.0950   34.3310   33.5560 N.am   54  CYS54      -0.1956
     57  CA        50.0390   34.4200   32.5530 C.3    54  CYS54       0.1843
     58  C         50.6300   34.5740   31.1480 C.2    54  CYS54       0.2625
     59  O         50.1650   33.9520   30.2020 O.2    54  CYS54      -0.2714
     60  CB        49.0990   35.5770   32.8840 C.3    54  CYS54       0.0997
     61  SG        48.3050   35.4150   34.5070 S.3    54  CYS54      -0.0797
     62  N         51.6740   35.3840   31.0260 N.am   55  GLN55      -0.1977
     63  CA        52.3670   35.5540   29.7510 C.3    55  GLN55       0.1601
     64  C         52.9130   34.2440   29.2200 C.2    55  GLN55       0.2287
     65  O         52.7450   33.9380   28.0430 O.2    55  GLN55      -0.2864
     66  CB        53.5190   36.5420   29.8750 C.3    55  GLN55       0.0394
     67  CG        53.1080   37.9780   29.9700 C.3    55  GLN55       0.0908
     68  CD        54.3040   38.8670   29.8450 C.2    55  GLN55       0.2608
     69  OE1       55.1680   38.6330   29.0070 O.2    55  GLN55      -0.2717
     70  NE2       54.3850   39.8810   30.6930 N.am   55  GLN55      -0.0878
     71  N         51.8930   31.1650   29.7880 N.3    57  THR57      -0.1203
     72  CA        50.7250   30.4220   29.3100 C.3    57  THR57       0.1994
     73  C         50.2240   30.9470   27.9600 C.2    57  THR57       0.2618
     74  O         50.0560   30.1640   27.0140 O.2    57  THR57      -0.2717
     75  CB        49.6010   30.4250   30.3620 C.3    57  THR57       0.1784
     76  OG1       50.1050   29.8530   31.5700 O.3    57  THR57      -0.2211
     77  CG2       48.3820   29.6290   29.8970 C.3    57  THR57       0.0376
     78  N         50.0290   32.2640   27.8680 N.am   58  SER58      -0.1951
     79  CA        49.6830   32.9240   26.6000 C.3    58  SER58       0.1924
     80  C         50.6100   32.5430   25.4800 C.2    58  SER58       0.2314
     81  O         50.1380   32.1750   24.4010 O.2    58  SER58      -0.2863
     82  CB        49.6840   34.4440   26.7240 C.3    58  SER58       0.2116
     83  OG        48.6780   34.8470   27.6180 O.3    58  SER58      -0.2180
     84  N         43.9910   36.2930   21.3010 N.3    92  TYR92      -0.1241
     85  CA        43.5060   36.5530   22.6520 C.3    92  TYR92       0.1605
     86  C         42.0100   36.2600   22.8410 C.2    92  TYR92       0.2264
     87  O         41.5860   35.8660   23.9490 O.2    92  TYR92      -0.2867
     88  CB        43.8470   37.9900   23.0830 C.3    92  TYR92       0.0534
     89  CG        45.2220   38.0990   23.6800 C.ar   92  TYR92      -0.0201
     90  CD1       45.5330   37.4450   24.8760 C.ar   92  TYR92      -0.0009
     91  CD2       46.2250   38.8380   23.0460 C.ar   92  TYR92      -0.0009
     92  CE1       46.8100   37.5210   25.4320 C.ar   92  TYR92       0.0417
     93  CE2       47.5070   38.9290   23.5930 C.ar   92  TYR92       0.0417
     94  CZ        47.7850   38.2640   24.7860 C.ar   92  TYR92       0.1957
     95  OH        49.0340   38.3450   25.3330 O.3    92  TYR92      -0.2866
     96  N         42.1520   32.5910   23.2930 N.3    95  ILE95      -0.1231
     97  CA        42.7200   32.2410   24.5830 C.3    95  ILE95       0.1692
     98  C         41.6540   32.2810   25.6800 C.2    95  ILE95       0.2592
     99  O         41.4880   31.3090   26.4110 O.2    95  ILE95      -0.2718
    100  CB        43.9450   33.1570   24.9390 C.3    95  ILE95       0.0266
    101  CG1       45.1630   32.7700   24.1050 C.3    95  ILE95       0.0019
    102  CG2       44.2640   33.1220   26.4570 C.3    95  ILE95       0.0020
    103  CD1       46.3790   33.6580   24.3370 C.3    95  ILE95       0.0001
    104  N         40.9160   33.3860   25.7780 N.am   96  PHE96      -0.1976
    105  CA        39.9010   33.5220   26.8490 C.3    96  PHE96       0.1639
    106  C         38.6630   32.6710   26.6750 C.2    96  PHE96       0.2290
    107  O         38.0110   32.3430   27.6650 O.2    96  PHE96      -0.2864
    108  CB        39.5320   34.9880   27.1350 C.3    96  PHE96       0.0560
    109  CG        40.7240   35.8560   27.4580 C.ar   96  PHE96      -0.0200
    110  CD1       41.6440   35.4640   28.4370 C.ar   96  PHE96      -0.0042
    111  CD2       40.9320   37.0540   26.7740 C.ar   96  PHE96      -0.0042
    112  CE1       42.7630   36.2500   28.7320 C.ar   96  PHE96      -0.0003
    113  CE2       42.0490   37.8560   27.0440 C.ar   96  PHE96      -0.0003
    114  CZ        42.9660   37.4610   28.0310 C.ar   96  PHE96      -0.0000
    115  N         40.1420   29.4250   27.8490 N.3    99  LEU99      -0.1245
    116  CA        40.4460   29.5520   29.2740 C.3    99  LEU99       0.1561
    117  C         39.2110   29.2950   30.1510 C.2    99  LEU99       0.2260
    118  O         39.3420   28.8290   31.2770 O.2    99  LEU99      -0.2867
    119  CB        41.0900   30.9100   29.5860 C.3    99  LEU99       0.0270
    120  CG        42.0340   31.0120   30.8010 C.3    99  LEU99       0.0019
    121  CD1       43.3560   30.2160   30.6320 C.3    99  LEU99       0.0001
    122  CD2       42.3370   32.4790   31.1030 C.3    99  LEU99       0.0001
    123  N         40.6940   28.4100   39.0850 N.3   108  MET108     -0.1230
    124  CA        41.0780   27.9040   37.7880 C.3   108  MET108      0.1702
    125  C         42.3230   27.0360   37.8590 C.2   108  MET108      0.2592
    126  O         43.1110   27.1600   38.7930 O.2   108  MET108     -0.2718
    127  CB        41.2870   29.0570   36.7930 C.3   108  MET108      0.0401
    128  CG        42.3540   30.0760   37.1740 C.3   108  MET108      0.0596
    129  SD        42.8190   31.1460   35.7940 S.3   108  MET108     -0.1393
    130  CE        43.9900   32.2270   36.5810 C.3   108  MET108      0.0692
    131  N         42.4900   26.1720   36.8540 N.am  109  LEU109     -0.1966
    132  CA        43.6530   25.3030   36.7520 C.3   109  LEU109      0.1728
    133  C         44.8640   26.0180   36.1720 C.2   109  LEU109      0.2616
    134  O         44.7270   26.8570   35.2740 O.2   109  LEU109     -0.2715
    135  CB        43.3370   24.0590   35.9140 C.3   109  LEU109      0.0311
    136  CG        42.3240   23.0620   36.4850 C.3   109  LEU109      0.0022
    137  CD1       42.1880   21.9050   35.5440 C.3   109  LEU109      0.0001
    138  CD2       42.7110   22.5660   37.8840 C.3   109  LEU109      0.0001
    139  N         46.0410   25.6700   36.6950 N.am  110  VAL110     -0.1963
    140  CA        47.3180   26.1950   36.2170 C.3   110  VAL110      0.1727
    141  C         48.3630   25.0690   36.1560 C.2   110  VAL110      0.2616
    142  O         48.0930   23.9590   36.5780 O.2   110  VAL110     -0.2715
    143  CB        47.8350   27.3850   37.0840 C.3   110  VAL110      0.0290
    144  CG1       46.8350   28.5300   37.0980 C.3   110  VAL110      0.0023
    145  CG2       48.1580   26.9320   38.5180 C.3   110  VAL110      0.0023
    146  N         49.5470   25.3530   35.6250 N.am  111  ALA111     -0.1977
    147  CA        50.5860   24.3210   35.4520 C.3   111  ALA111      0.1597
    148  C         50.0020   22.9550   35.0340 C.2   111  ALA111      0.2287
    149  O         50.1760   21.9360   35.7280 O.2   111  ALA111     -0.2864
    150  CB        51.4670   24.1950   36.7210 C.3   111  ALA111      0.0319
    151  N         44.6260   27.7540   41.2900 N.3   117  ILE117     -0.1245
    152  CA        44.7120   29.0680   41.9230 C.3   117  ILE117      0.1561
    153  C         43.2980   29.5960   42.1380 C.2   117  ILE117      0.2260
    154  O         42.4360   29.4910   41.2590 O.2   117  ILE117     -0.2867
    155  CB        45.6290   30.0650   41.1390 C.3   117  ILE117      0.0252
    156  CG1       45.8120   31.3750   41.9180 C.3   117  ILE117      0.0019
    157  CG2       45.1040   30.3360   39.7190 C.3   117  ILE117      0.0019
    158  CD1       47.0510   32.1460   41.5360 C.3   117  ILE117      0.0001
    159  N         43.3270   35.7240   43.8540 N.3   122  LEU122     -0.1245
    160  CA        43.5400   36.6420   42.7260 C.3   122  LEU122      0.1561
    161  C         42.9010   38.0160   42.9310 C.2   122  LEU122      0.2260
    162  O         43.5370   39.0340   42.6620 O.2   122  LEU122     -0.2867
    163  CB        43.0720   36.0090   41.4040 C.3   122  LEU122      0.0270
    164  CG        44.0320   34.9630   40.8160 C.3   122  LEU122      0.0019
    165  CD1       43.3040   34.0300   39.8740 C.3   122  LEU122      0.0001
    166  CD2       45.2370   35.6110   40.1380 C.3   122  LEU122      0.0001
    167  N         42.9040   41.7000   36.8350 N.3   132  ILE132     -0.1231
    168  CA        43.2810   40.8750   35.6760 C.3   132  ILE132      0.1692
    169  C         42.3740   39.6580   35.4360 C.2   132  ILE132      0.2591
    170  O         41.8940   39.4510   34.3170 O.2   132  ILE132     -0.2718
    171  CB        44.7620   40.4360   35.7520 C.3   132  ILE132      0.0266
    172  CG1       45.6620   41.6600   35.9030 C.3   132  ILE132      0.0019
    173  CG2       45.1620   39.6600   34.5050 C.3   132  ILE132      0.0020
    174  CD1       47.1190   41.3390   36.0800 C.3   132  ILE132      0.0001
    175  N         42.1450   38.8620   36.4810 N.am  133  MET133     -0.1979
    176  CA        41.3870   37.6170   36.3540 C.3   133  MET133      0.1605
    177  C         39.8770   37.7350   36.4870 C.2   133  MET133      0.2287
    178  O         39.1340   37.0000   35.8250 O.2   133  MET133     -0.2864
    179  CB        41.9030   36.5700   37.3340 C.3   133  MET133      0.0413
    180  CG        43.2420   36.0270   36.9380 C.3   133  MET133      0.0598
    181  SD        43.2400   35.3530   35.2680 S.3   133  MET133     -0.1393
    182  CE        44.9820   35.5330   34.9630 C.3   133  MET133      0.0692
    183  N         37.5470   37.7690   33.5470 N.3   136  LYS136     -0.1245
    184  CA        37.6270   36.4960   32.8060 C.3   136  LYS136      0.1561
    185  C         36.7510   35.4260   33.4470 C.2   136  LYS136      0.2260
    186  O         36.0780   34.6690   32.7260 O.2   136  LYS136     -0.2867
    187  CB        39.0670   36.0110   32.6410 C.3   136  LYS136      0.0271
    188  CG        39.8860   36.7780   31.6040 C.3   136  LYS136      0.0035
    189  CD        39.9500   38.2610   31.8930 C.3   136  LYS136      0.0206
    190  CE        41.1570   38.8950   31.2580 C.3   136  LYS136      0.1093
    191  NZ        41.3470   40.3030   31.6950 N.3   136  LYS136     -0.1314
    192  N         41.2350   44.0170   28.3890 N.3   218  HIS218     -0.1241
    193  CA        42.4200   43.3360   28.8840 C.3   218  HIS218      0.1621
    194  C         43.7220   43.9860   28.3770 C.2   218  HIS218      0.2264
    195  O         44.6390   44.2300   29.1680 O.2   218  HIS218     -0.2867
    196  CB        42.3710   41.8400   28.5260 C.3   218  HIS218      0.0745
    197  CG        43.6420   41.1160   28.8330 C.ar  218  HIS218      0.0817
    198  ND1       43.8940   40.5450   30.0620 N.ar  218  HIS218     -0.2268
    199  CD2       44.7570   40.9190   28.0880 C.ar  218  HIS218      0.1154
    200  CE1       45.1010   40.0050   30.0530 C.ar  218  HIS218      0.1986
    201  NE2       45.6480   40.2200   28.8680 N.ar  218  HIS218     -0.2212
    202  N         46.6840   45.6650   30.5420 N.3   222  VAL222     -0.1245
    203  CA        48.0620   45.2350   30.3120 C.3   222  VAL222      0.1561
    204  C         48.9530   46.4340   29.9950 C.2   222  VAL222      0.2260
    205  O         50.0920   46.5070   30.4790 O.2   222  VAL222     -0.2867
    206  CB        48.1500   44.1470   29.2030 C.3   222  VAL222      0.0252
    207  CG1       49.5870   43.8770   28.8050 C.3   222  VAL222      0.0019
    208  CG2       47.5140   42.8580   29.6920 C.3   222  VAL222      0.0019
    209  N         56.8360   42.7050   28.8990 N.3   234  LEU234     -0.1245
    210  CA        56.0660   41.7370   28.1180 C.3   234  LEU234      0.1561
    211  C         56.9810   40.9470   27.2090 C.2   234  LEU234      0.2260
    212  O         57.8780   41.5140   26.5790 O.2   234  LEU234     -0.2867
    213  CB        55.0040   42.4330   27.2620 C.3   234  LEU234      0.0270
    214  CG        53.6910   42.9190   27.8780 C.3   234  LEU234      0.0019
    215  CD1       52.9400   43.7670   26.8560 C.3   234  LEU234      0.0001
    216  CD2       52.8100   41.7770   28.3640 C.3   234  LEU234      0.0001
    217  N         54.1810   38.5070   22.6840 N.3   238  LEU238     -0.1245
    218  CA        53.0260   39.2330   23.1950 C.3   238  LEU238      0.1561
    219  C         53.0650   40.7270   22.8440 C.2   238  LEU238      0.2260
    220  O         52.0300   41.3210   22.5240 O.2   238  LEU238     -0.2867
    221  CB        52.8840   39.0080   24.7020 C.3   238  LEU238      0.0270
    222  CG        52.8020   37.5370   25.1590 C.3   238  LEU238      0.0019
    223  CD1       52.3890   37.4650   26.5940 C.3   238  LEU238      0.0001
    224  CD2       51.8500   36.6900   24.3080 C.3   238  LEU238      0.0001
    225  N         50.1620   42.7690   20.7230 N.3   242  TYR242     -0.1241
    226  CA        49.5510   43.9730   21.3050 C.3   242  TYR242      0.1605
    227  C         49.8630   45.2640   20.5520 C.2   242  TYR242      0.2264
    228  O         49.1440   46.2580   20.6990 O.2   242  TYR242     -0.2867
    229  CB        49.9620   44.1460   22.7740 C.3   242  TYR242      0.0534
    230  CG        49.2410   43.2470   23.7550 C.ar  242  TYR242     -0.0201
    231  CD1       47.8480   43.2750   23.8720 C.ar  242  TYR242     -0.0009
    232  CD2       49.9550   42.3910   24.5910 C.ar  242  TYR242     -0.0009
    233  CE1       47.1860   42.4560   24.7830 C.ar  242  TYR242      0.0417
    234  CE2       49.3110   41.5770   25.5080 C.ar  242  TYR242      0.0417
    235  CZ        47.9270   41.6110   25.6030 C.ar  242  TYR242      0.1957
    236  OH        47.2910   40.7920   26.5150 O.3   242  TYR242     -0.2866
@<TRIPOS>BOND
     1   227   228    2
     2   227   226    1
     3   225   226    1
     4    84    85    1
     5   226   229    1
     6   220   219    2
     7    85    86    1
     8    85    88    1
     9   217   218    1
    10   229   230    1
    11    86    87    2
    12   219   218    1
    13    91    93   ar
    14    91    89   ar
    15    88    89    1
    16   218   221    1
    17    96    97    1
    18    93    94   ar
    19    89    90   ar
    20   230   231   ar
    21   230   232   ar
    22   231   233   ar
    23   101   103    1
    24   101   100    1
    25   224   222    1
    26    81    80    2
    27    97   100    1
    28    97    98    1
    29   232   234   ar
    30   221   222    1
    31   233   235   ar
    32    94    95    1
    33    94    92   ar
    34    90    92   ar
    35   100   102    1
    36   222   223    1
    37    80    79    1
    38   234   235   ar
    39   235   236    1
    40    98   104   am
    41    98    99    2
    42   104   105    1
    43   212   211    2
    44    79    82    1
    45    79    78    1
    46   106   105    1
    47   106   107    2
    48    82    83    1
    49   111   113   ar
    50   111   109   ar
    51   105   108    1
    52   215   214    1
    53    74    73    2
    54   113   114   ar
    55   108   109    1
    56   211   210    1
    57   213   214    1
    58   213   210    1
    59   109   110   ar
    60   115   116    1
    61    78    73   am
    62   214   216    1
    63    73    72    1
    64   114   112   ar
    65    65    64    2
    66   199   197   ar
    67   199   201   ar
    68   210   209    1
    69   194   193    1
    70   194   195    2
    71   192   193    1
    72   110   112   ar
    73   196   197    1
    74   196   193    1
    75   207   206    1
    76   197   198   ar
    77   201   200   ar
    78    69    68    2
    79   206   208    1
    80   206   203    1
    81    64    63    1
    82   116   119    1
    83   116   117    1
    84    72    71    1
    85    72    75    1
    86   119   120    1
    87    63    66    1
    88    63    62    1
    89    68    67    1
    90    68    70   am
    91    66    67    1
    92    77    75    1
    93   204   203    1
    94   204   205    2
    95   200   198   ar
    96   117   118    2
    97    59    58    2
    98   203   202    1
    99    75    76    1
   100   121   120    1
   101   120   122    1
   102    62    58   am
   103    58    57    1
   104   190   191    1
   105   190   189    1
   106   188   189    1
   107   188   187    1
   108    49    47   ar
   109    49    48   ar
   110    57    60    1
   111    57    56    1
   112   187   184    1
   113    47    45   ar
   114   186   185    2
   115    53    52    2
   116   184   185    1
   117   184   183    1
   118    60    61    1
   119    48    46   ar
   120    42    41    2
   121    52    56   am
   122    52    51    1
   123    45    44   ar
   124    46    44   ar
   125   170   169    2
   126   173   171    1
   127    44    43    1
   128    41    40    1
   129    51    50    1
   130    51    54    1
   131   182   181    1
   132   148   147    1
   133   148   149    2
   134   181   180    1
   135   134   133    2
   136   169   168    1
   137   169   175   am
   138   147   146    1
   139   147   150    1
   140   137   136    1
   141    40    43    1
   142    40    39    1
   143   146   141   am
   144   168   171    1
   145   168   167    1
   146   171   172    1
   147   129   130    1
   148   129   128    1
   149   178   177    2
   150   172   174    1
   151   135   136    1
   152   135   132    1
   153    54    55    1
   154    34    33    2
   155   141   140    1
   156   141   142    2
   157   133   139   am
   158   133   132    1
   159   140   139    1
   160   140   143    1
   161   176   175    1
   162   176   177    1
   163   176   179    1
   164   136   138    1
   165   132   131    1
   166   127   128    1
   167   127   124    1
   168    39    33   am
   169   131   125   am
   170   180   179    1
   171    33    32    1
   172   143   144    1
   173   143   145    1
   174   124   125    1
   175   124   123    1
   176   125   126    2
   177    32    31    1
   178    32    35    1
   179    37    35    1
   180    35    36    1
   181   157   155    1
   182   165   164    1
   183   166   164    1
   184    36    38    1
   185    30    28   ar
   186   164   163    1
   187    20    19    2
   188    25    24    2
   189   155   156    1
   190   155   152    1
   191   154   153    2
   192   151   152    1
   193   163   160    1
   194    27    28    1
   195    27    26    1
   196   158   156    1
   197    28    29   ar
   198    24    23    1
   199    23    26    1
   200    23    22    1
   201   152   153    1
   202    19    22   am
   203    19    18    1
   204     8     6    1
   205   162   161    2
   206   160   161    1
   207   160   159    1
   208    21    18    1
   209    15    14    1
   210    18    17    1
   211     6     5    1
   212    14    16    1
   213    14    13    1
   214    12    11    2
   215     5     7    1
   216     5     2    1
   217    11    10    1
   218     1     2    1
   219     4     3    2
   220    13    10    1
   221    10     9    1
   222     2     3    1
