@<TRIPOS>MOLECULE
tmp/3fejA01.pdb
 232 219 0 0 0
SMALL
GASTEIGER

@<TRIPOS>ATOM
      1  N         13.8160   21.9780    5.9350 N.3    49  LEU49      -0.1245
      2  CA        12.4200   21.7130    6.2730 C.3    49  LEU49       0.1561
      3  C         11.8030   20.6190    5.4010 C.2    49  LEU49       0.2260
      4  O         10.9960   19.8200    5.8830 O.2    49  LEU49      -0.2867
      5  CB        11.6000   23.0050    6.1860 C.3    49  LEU49       0.0270
      6  CG        10.1390   23.0070    6.6500 C.3    49  LEU49       0.0019
      7  CD1        9.9990   22.7710    8.1530 C.3    49  LEU49       0.0001
      8  CD2        9.4820   24.3130    6.2560 C.3    49  LEU49       0.0001
      9  N         10.4840   16.4090    6.6920 N.3    53  GLU53      -0.1245
     10  CA         9.0780   16.0200    6.5710 C.3    53  GLU53       0.1567
     11  C          8.8810   14.5090    6.7220 C.2    53  GLU53       0.2260
     12  O          7.8650   14.0600    7.2610 O.2    53  GLU53      -0.2867
     13  CB         8.4990   16.5020    5.2390 C.3    53  GLU53       0.0388
     14  CG         7.3070   17.4380    5.3800 C.3    53  GLU53       0.1160
     15  CD         7.7080   18.9020    5.3700 C.2    53  GLU53       0.3649
     16  OE1        7.9060   19.4730    6.4640 O.co2  53  GLU53      -0.2457
     17  OE2        7.8230   19.4830    4.2690 O.co2  53  GLU53      -0.2457
     18  N          2.6180   26.2440    6.9370 N.3    61  ARG61      -0.1231
     19  CA         2.9600   24.8860    7.3590 C.3    61  ARG61       0.1694
     20  C          3.4910   24.8650    8.7920 C.2    61  ARG61       0.2592
     21  O          3.0480   24.0590    9.6150 O.2    61  ARG61      -0.2718
     22  CB         3.9690   24.2530    6.3960 C.3    61  ARG61       0.0321
     23  CG         3.3190   23.3800    5.3350 C.3    61  ARG61       0.0489
     24  CD         3.9510   23.4760    3.9580 C.3    61  ARG61       0.2205
     25  NE         5.2370   22.7850    3.8750 N.pl3  61  ARG61      -0.0865
     26  CZ         6.3070   23.2490    3.2280 C.cat  61  ARG61       0.5346
     27  NH1        6.2610   24.4140    2.5980 N.pl3  61  ARG61       0.1354
     28  NH2        7.4310   22.5410    3.2100 N.pl3  61  ARG61       0.1354
     29  N          4.4260   25.7670    9.0760 N.am   62  ILE62      -0.1966
     30  CA         4.9620   25.9500   10.4190 C.3    62  ILE62       0.1727
     31  C          3.8600   26.3410   11.4230 C.2    62  ILE62       0.2616
     32  O          3.7450   25.7260   12.4880 O.2    62  ILE62      -0.2715
     33  CB         6.1300   26.9590   10.3850 C.3    62  ILE62       0.0290
     34  CG1        7.3710   26.2780    9.7850 C.3    62  ILE62       0.0022
     35  CG2        6.4180   27.5310   11.7820 C.3    62  ILE62       0.0023
     36  CD1        8.4720   27.2290    9.3910 C.3    62  ILE62       0.0001
     37  N          3.0530   27.3390   11.0550 N.am   63  PHE63      -0.1974
     38  CA         1.9250   27.8130   11.8580 C.3    63  PHE63       0.1639
     39  C          0.9670   26.6700   12.2100 C.2    63  PHE63       0.2290
     40  O          0.5630   26.5190   13.3640 O.2    63  PHE63      -0.2864
     41  CB         1.1890   28.9180   11.0810 C.3    63  PHE63       0.0560
     42  CG         0.1600   29.6690   11.8810 C.ar   63  PHE63      -0.0200
     43  CD1        0.5410   30.5280   12.9110 C.ar   63  PHE63      -0.0042
     44  CD2       -1.1950   29.5610   11.5580 C.ar   63  PHE63      -0.0042
     45  CE1       -0.4280   31.2430   13.6390 C.ar   63  PHE63      -0.0003
     46  CE2       -2.1660   30.2650   12.2730 C.ar   63  PHE63      -0.0003
     47  CZ        -1.7770   31.1060   13.3190 C.ar   63  PHE63      -0.0000
     48  N          1.7220   23.4640   12.1410 N.3    65  GLY65      -0.1210
     49  CA         2.5130   22.5710   12.9770 C.3    65  GLY65       0.1956
     50  C          2.4890   22.9470   14.4540 C.2    65  GLY65       0.2612
     51  O          2.3620   22.0690   15.3200 O.2    65  GLY65      -0.2717
     52  N          2.6050   24.2450   14.7470 N.am   66  CYS66      -0.1956
     53  CA         2.5150   24.7380   16.1220 C.3    66  CYS66       0.1843
     54  C          1.1400   24.4630   16.7040 C.2    66  CYS66       0.2625
     55  O          1.0270   24.1710   17.8860 O.2    66  CYS66      -0.2714
     56  CB         2.7800   26.2400   16.2170 C.3    66  CYS66       0.0997
     57  SG         4.4590   26.7360   15.8370 S.3    66  CYS66      -0.0797
     58  N          0.1130   24.5840   15.8640 N.am   67  GLN67      -0.1977
     59  CA        -1.2690   24.3740   16.2700 C.3    67  GLN67       0.1601
     60  C         -1.5210   22.9280   16.6860 C.2    67  GLN67       0.2287
     61  O         -2.1520   22.6920   17.7110 O.2    67  GLN67      -0.2864
     62  CB        -2.2280   24.7670   15.1500 C.3    67  GLN67       0.0394
     63  CG        -2.4330   26.2600   14.9960 C.3    67  GLN67       0.0908
     64  CD        -3.4990   26.5690   13.9630 C.2    67  GLN67       0.2608
     65  OE1       -4.6700   26.2540   14.1660 O.2    67  GLN67      -0.2717
     66  NE2       -3.0950   27.1660   12.8480 N.am   67  GLN67      -0.0878
     67  N          0.7880   20.7920   17.6930 N.3    69  ARG69      -0.1231
     68  CA         1.5840   20.6670   18.9100 C.3    69  ARG69       0.1694
     69  C          0.8370   21.2810   20.0920 C.2    69  ARG69       0.2592
     70  O          0.7650   20.6900   21.1780 O.2    69  ARG69      -0.2718
     71  CB         2.9180   21.3650   18.7080 C.3    69  ARG69       0.0321
     72  CG         3.9600   21.0490   19.7310 C.3    69  ARG69       0.0489
     73  CD         5.1010   22.0220   19.6860 C.3    69  ARG69       0.2205
     74  NE         6.1550   21.6730   20.6250 N.pl3  69  ARG69      -0.0865
     75  CZ         7.4500   21.7240   20.3490 C.cat  69  ARG69       0.5346
     76  NH1        7.8780   22.1180   19.1610 N.pl3  69  ARG69       0.1354
     77  NH2        8.3220   21.3840   21.2670 N.pl3  69  ARG69       0.1354
     78  N          0.2650   22.4630   19.8710 N.am   70  SER70      -0.1952
     79  CA        -0.5000   23.1360   20.9150 C.3    70  SER70       0.1924
     80  C         -1.6730   22.2890   21.4220 C.2    70  SER70       0.2314
     81  O         -1.8500   22.1730   22.6290 O.2    70  SER70      -0.2863
     82  CB        -1.0010   24.5010   20.4440 C.3    70  SER70       0.2116
     83  OG        -1.5440   25.2130   21.5430 O.3    70  SER70      -0.2180
     84  N         -2.1090   28.3690   27.9370 N.3   104  HIS104     -0.1241
     85  CA        -1.0140   28.9520   27.1510 C.3   104  HIS104      0.1621
     86  C          0.1500   29.4240   28.0060 C.2   104  HIS104      0.2264
     87  O          1.3110   29.3420   27.5830 O.2   104  HIS104     -0.2867
     88  CB        -1.5160   30.0420   26.2150 C.3   104  HIS104      0.0745
     89  CG        -2.2340   29.4920   25.0290 C.ar  104  HIS104      0.0817
     90  ND1       -3.6040   29.3770   24.9840 N.ar  104  HIS104     -0.2268
     91  CD2       -1.7700   28.9740   23.8690 C.ar  104  HIS104      0.1154
     92  CE1       -3.9570   28.8130   23.8420 C.ar  104  HIS104      0.1986
     93  NE2       -2.8630   28.5680   23.1430 N.ar  104  HIS104     -0.2212
     94  N          1.9960   26.1970   28.4580 N.3   107  ILE107     -0.1231
     95  CA         2.6530   25.8620   27.1940 C.3   107  ILE107      0.1692
     96  C          3.9720   26.6310   27.0080 C.2   107  ILE107      0.2592
     97  O          4.9910   26.0360   26.6510 O.2   107  ILE107     -0.2718
     98  CB         1.6920   26.0770   25.9840 C.3   107  ILE107      0.0266
     99  CG1        0.5960   25.0000   25.9700 C.3   107  ILE107      0.0019
    100  CG2        2.4630   26.0240   24.6600 C.3   107  ILE107      0.0020
    101  CD1       -0.5380   25.2420   24.9460 C.3   107  ILE107      0.0001
    102  N          3.9570   27.9380   27.2570 N.am  108  TYR108     -0.1976
    103  CA         5.1760   28.7440   27.0910 C.3   108  TYR108      0.1639
    104  C          6.2190   28.4960   28.1870 C.2   108  TYR108      0.2290
    105  O          7.4240   28.5980   27.9350 O.2   108  TYR108     -0.2864
    106  CB         4.8390   30.2290   26.9540 C.3   108  TYR108      0.0560
    107  CG         3.8640   30.5070   25.8240 C.ar  108  TYR108     -0.0198
    108  CD1        3.9210   29.7730   24.6370 C.ar  108  TYR108     -0.0009
    109  CD2        2.8770   31.4830   25.9480 C.ar  108  TYR108     -0.0009
    110  CE1        3.0160   30.0010   23.5960 C.ar  108  TYR108      0.0417
    111  CE2        1.9630   31.7300   24.8930 C.ar  108  TYR108      0.0417
    112  CZ         2.0460   30.9780   23.7320 C.ar  108  TYR108      0.1957
    113  OH         1.1740   31.1800   22.6790 O.3   108  TYR108     -0.2866
    114  N          7.6120   25.1460   26.9770 N.3   111  LEU111     -0.1245
    115  CA         8.3920   25.4180   25.7680 C.3   111  LEU111      0.1561
    116  C          9.8350   25.8240   26.0970 C.2   111  LEU111      0.2260
    117  O         10.7680   25.3820   25.4270 O.2   111  LEU111     -0.2867
    118  CB         7.7200   26.4940   24.9010 C.3   111  LEU111      0.0270
    119  CG         7.9530   26.4720   23.3890 C.3   111  LEU111      0.0019
    120  CD1        7.6860   25.0730   22.7970 C.3   111  LEU111      0.0001
    121  CD2        7.0680   27.5320   22.7080 C.3   111  LEU111      0.0001
    122  N         14.6810   25.4510   19.0400 N.3   120  VAL120     -0.1245
    123  CA        13.6770   24.7300   19.8200 C.3   120  VAL120      0.1561
    124  C         13.4780   23.3040   19.2870 C.2   120  VAL120      0.2260
    125  O         13.4480   23.0510   18.0600 O.2   120  VAL120     -0.2867
    126  CB        12.3150   25.5330   19.9040 C.3   120  VAL120      0.0252
    127  CG1       11.7800   25.8720   18.5120 C.3   120  VAL120      0.0019
    128  CG2       11.2330   24.7780   20.7320 C.3   120  VAL120      0.0019
    129  N         11.5020   20.0470   18.3190 N.3   122  ILE122     -0.1231
    130  CA        10.1930   19.7080   17.7500 C.3   122  ILE122      0.1692
    131  C         10.0910   18.1850   17.6310 C.2   122  ILE122      0.2592
    132  O         11.0730   17.4760   17.8780 O.2   122  ILE122     -0.2718
    133  CB         9.9810   20.3850   16.3670 C.3   122  ILE122      0.0266
    134  CG1       10.9810   19.8400   15.3310 C.3   122  ILE122      0.0019
    135  CG2       10.0680   21.9270   16.4720 C.3   122  ILE122      0.0020
    136  CD1       10.6330   20.1920   13.9010 C.3   122  ILE122      0.0001
    137  N          8.9060   17.6940   17.2600 N.am  123  SER123     -0.1952
    138  CA         8.6840   16.2650   17.0090 C.3   123  SER123      0.1924
    139  C          9.1900   15.4060   18.1620 C.2   123  SER123      0.2314
    140  O         10.0200   14.5060   17.9650 O.2   123  SER123     -0.2863
    141  CB         9.3480   15.8300   15.6880 C.3   123  SER123      0.2116
    142  OG         9.0530   16.7440   14.6450 O.3   123  SER123     -0.2180
    143  N         14.4270   23.0830   15.3830 N.3   129  MET129     -0.1245
    144  CA        14.2150   24.2070   14.4690 C.3   129  MET129      0.1570
    145  C         14.9550   25.4250   14.9690 C.2   129  MET129      0.2261
    146  O         14.7950   25.7980   16.1300 O.2   129  MET129     -0.2867
    147  CB        12.7320   24.5320   14.3440 C.3   129  MET129      0.0387
    148  CG        12.4520   25.5620   13.2590 C.3   129  MET129      0.0595
    149  SD        10.8030   25.4690   12.6250 S.3   129  MET129     -0.1393
    150  CE        10.5080   23.7050   12.5820 C.3   129  MET129      0.0692
    151  N         13.0660   30.5200   12.0360 N.3   134  LEU134     -0.1245
    152  CA        11.7540   31.0110   12.4570 C.3   134  LEU134      0.1561
    153  C         11.6190   32.5220   12.2490 C.2   134  LEU134      0.2260
    154  O         10.5580   32.9970   11.8430 O.2   134  LEU134     -0.2867
    155  CB        11.4510   30.6040   13.9040 C.3   134  LEU134      0.0270
    156  CG        11.1670   29.1050   14.0760 C.3   134  LEU134      0.0019
    157  CD1       11.3820   28.6730   15.5290 C.3   134  LEU134      0.0001
    158  CD2        9.7490   28.7670   13.6160 C.3   134  LEU134      0.0001
    159  N          6.4500   35.5400   15.6130 N.3   144  PHE144     -0.1227
    160  CA         5.6700   34.8240   16.6270 C.3   144  PHE144      0.1736
    161  C          6.5210   34.1680   17.7290 C.2   144  PHE144      0.2595
    162  O          6.1070   34.1420   18.8870 O.2   144  PHE144     -0.2718
    163  CB         4.6250   33.8730   15.9970 C.3   144  PHE144      0.0547
    164  CG         5.1530   32.5060   15.6090 C.ar  144  PHE144     -0.0202
    165  CD1        6.2000   32.3600   14.6970 C.ar  144  PHE144     -0.0042
    166  CD2        4.5660   31.3590   16.1350 C.ar  144  PHE144     -0.0042
    167  CE1        6.6660   31.0810   14.3270 C.ar  144  PHE144     -0.0003
    168  CE2        5.0190   30.0850   15.7780 C.ar  144  PHE144     -0.0003
    169  CZ         6.0670   29.9410   14.8730 C.ar  144  PHE144     -0.0000
    170  N          7.7190   33.6990   17.3830 N.am  145  MET145     -0.1979
    171  CA         8.5490   32.9580   18.3420 C.3   145  MET145      0.1605
    172  C          9.5470   33.7870   19.1430 C.2   145  MET145      0.2287
    173  O         10.0310   33.3410   20.1900 O.2   145  MET145     -0.2864
    174  CB         9.2610   31.7790   17.6680 C.3   145  MET145      0.0413
    175  CG         8.3640   30.5730   17.4170 C.3   145  MET145      0.0598
    176  SD         7.7010   29.8260   18.9280 S.3   145  MET145     -0.1393
    177  CE         9.1500   29.4940   19.7490 C.3   145  MET145      0.0692
    178  N          9.0320   34.3550   22.8570 N.3   148  LYS148     -0.1245
    179  CA         9.0800   33.0830   23.5850 C.3   148  LYS148      0.1561
    180  C         10.5280   32.6760   23.8400 C.2   148  LYS148      0.2260
    181  O         10.8500   32.1950   24.9290 O.2   148  LYS148     -0.2867
    182  CB         8.3010   31.9690   22.8620 C.3   148  LYS148      0.0271
    183  CG         7.1510   32.4660   21.9560 C.3   148  LYS148      0.0035
    184  CD         5.8430   32.6390   22.6760 C.3   148  LYS148      0.0206
    185  CE         4.6520   32.5620   21.7170 C.3   148  LYS148      0.1093
    186  NZ         4.3330   33.8660   21.0740 N.3   148  LYS148     -0.1314
    187  N          0.8540   37.2210   21.8770 N.3   230  HIS230     -0.1241
    188  CA         0.4700   36.1460   20.9610 C.3   230  HIS230      0.1621
    189  C         -0.9680   36.2920   20.4460 C.2   230  HIS230      0.2264
    190  O         -1.2260   36.1270   19.2540 O.2   230  HIS230     -0.2867
    191  CB         0.6440   34.7890   21.6290 C.3   230  HIS230      0.0745
    192  CG         0.5610   33.6480   20.6730 C.ar  230  HIS230      0.0817
    193  ND1        1.5880   33.3310   19.8120 N.ar  230  HIS230     -0.2268
    194  CD2       -0.4350   32.7700   20.4160 C.ar  230  HIS230      0.1154
    195  CE1        1.2320   32.2960   19.0720 C.ar  230  HIS230      0.1986
    196  NE2        0.0140   31.9300   19.4270 N.ar  230  HIS230     -0.2212
    197  N         -2.4890   36.6830   16.6850 N.3   234  LEU234     -0.1245
    198  CA        -3.5430   35.8200   16.1650 C.3   234  LEU234      0.1561
    199  C         -4.7240   36.5970   15.5650 C.2   234  LEU234      0.2260
    200  O         -5.3020   36.1560   14.5720 O.2   234  LEU234     -0.2867
    201  CB        -4.0170   34.8330   17.2310 C.3   234  LEU234      0.0270
    202  CG        -3.0160   33.7240   17.5910 C.3   234  LEU234      0.0019
    203  CD1       -3.6310   32.7980   18.6120 C.3   234  LEU234      0.0001
    204  CD2       -2.5680   32.9370   16.3680 C.3   234  LEU234      0.0001
    205  N         -8.0640   28.6410   13.0480 N.3   246  LEU246     -0.1245
    206  CA        -7.4030   27.8450   14.0710 C.3   246  LEU246      0.1561
    207  C         -8.1010   26.4950   14.2530 C.2   246  LEU246      0.2260
    208  O         -9.2890   26.3650   13.9550 O.2   246  LEU246     -0.2867
    209  CB        -7.3520   28.6180   15.3950 C.3   246  LEU246      0.0270
    210  CG        -6.6680   29.9950   15.4100 C.3   246  LEU246      0.0019
    211  CD1       -6.8850   30.6910   16.7470 C.3   246  LEU246      0.0001
    212  CD2       -5.1780   29.8930   15.0970 C.3   246  LEU246      0.0001
    213  N         -8.4460   25.0830   19.7710 N.3   250  LEU250     -0.1245
    214  CA        -7.8020   26.3740   19.9880 C.3   250  LEU250      0.1561
    215  C         -8.8000   27.5260   19.8570 C.2   250  LEU250      0.2260
    216  O         -8.7290   28.4710   20.6240 O.2   250  LEU250     -0.2867
    217  CB        -6.5880   26.5530   19.0670 C.3   250  LEU250      0.0270
    218  CG        -5.5020   25.4770   19.2050 C.3   250  LEU250      0.0019
    219  CD1       -4.3280   25.7670   18.2610 C.3   250  LEU250      0.0001
    220  CD2       -5.0110   25.3270   20.6580 C.3   250  LEU250      0.0001
    221  N         -9.5030   30.3910   22.7320 N.3   254  TYR254     -0.1241
    222  CA        -9.3120   31.8090   22.4160 C.3   254  TYR254      0.1605
    223  C        -10.6120   32.6280   22.3660 C.2   254  TYR254      0.2264
    224  O        -10.5780   33.8510   22.5200 O.2   254  TYR254     -0.2867
    225  CB        -8.5180   31.9660   21.1150 C.3   254  TYR254      0.0534
    226  CG        -7.0290   31.7030   21.2630 C.ar  254  TYR254     -0.0201
    227  CD1       -6.3990   30.7260   20.4930 C.ar  254  TYR254     -0.0009
    228  CD2       -6.2490   32.4380   22.1680 C.ar  254  TYR254     -0.0009
    229  CE1       -5.0320   30.4760   20.6210 C.ar  254  TYR254      0.0417
    230  CE2       -4.8810   32.2000   22.2980 C.ar  254  TYR254      0.0417
    231  CZ        -4.2820   31.2230   21.5180 C.ar  254  TYR254      0.1957
    232  OH        -2.9320   30.9810   21.6380 O.3   254  TYR254     -0.2866
@<TRIPOS>BOND
     1    27    26    1
     2    28    26    1
     3    26    25    2
     4    25    24    1
     5    24    23    1
     6    17    15   ar
     7    13    14    1
     8    13    10    1
     9    23    22    1
    10    15    14    1
    11    15    16   ar
    12     3     4    2
    13     3     2    1
    14     1     2    1
    15     5     2    1
    16     5     6    1
    17     8     6    1
    18    22    19    1
    19    10     9    1
    20    10    11    1
    21     6     7    1
    22    11    12    2
    23    18    19    1
    24    19    20    1
    25    20    29   am
    26    20    21    2
    27    29    30    1
    28    36    34    1
    29    34    33    1
    30    33    30    1
    31    33    35    1
    32    30    31    1
    33    37    31   am
    34    37    38    1
    35    41    38    1
    36    41    42    1
    37    31    32    2
    38    44    42   ar
    39    44    46   ar
    40   154   153    2
    41    38    39    1
    42    42    43   ar
    43   151   152    1
    44    48    49    1
    45    39    40    2
    46   153   152    1
    47    46    47   ar
    48   152   155    1
    49   150   149    1
    50   149   148    1
    51    66    64   am
    52    43    45   ar
    53    49    50    1
    54   205   206    1
    55   148   147    1
    56    47    45   ar
    57   158   156    1
    58   136   134    1
    59   155   156    1
    60   208   207    2
    61    64    65    2
    62    64    63    1
    63   206   207    1
    64   206   209    1
    65   156   157    1
    66   167   165   ar
    67   167   169   ar
    68   147   144    1
    69    50    52   am
    70    50    51    2
    71   144   145    1
    72   144   143    1
    73   200   199    2
    74   142   141    1
    75   165   164   ar
    76    52    53    1
    77   169   168   ar
    78   145   146    2
    79    63    62    1
    80   212   210    1
    81    62    59    1
    82   134   133    1
    83   209   210    1
    84   210   211    1
    85   199   198    1
    86   164   163    1
    87   164   166   ar
    88   159   160    1
    89   141   138    1
    90   168   166   ar
    91    57    56    1
    92    58    59    1
    93    58    54   am
    94   163   160    1
    95    53    56    1
    96    53    54    1
    97   198   197    1
    98   198   201    1
    99    59    60    1
   100   133   135    1
   101   133   130    1
   102   204   202    1
   103   160   161    1
   104    60    61    2
   105    54    55    2
   106   138   137    1
   107   138   139    1
   108   201   202    1
   109   137   131   am
   110   170   161   am
   111   170   171    1
   112   175   174    1
   113   175   176    1
   114   202   203    1
   115   131   130    1
   116   131   132    2
   117   174   171    1
   118    67    68    1
   119   161   162    2
   120   130   129    1
   121   140   139    2
   122   125   124    2
   123   219   218    1
   124   171   172    1
   125   127   126    1
   126    71    68    1
   127    71    72    1
   128    68    69    1
   129   176   177    1
   130   122   123    1
   131   217   218    1
   132   217   214    1
   133   195   196   ar
   134   195   193   ar
   135   172   173    2
   136    76    75    1
   137   218   220    1
   138   190   189    2
   139   124   123    1
   140   196   194   ar
   141    73    72    1
   142    73    74    1
   143   213   214    1
   144   193   192   ar
   145   123   126    1
   146   215   214    1
   147   215   216    2
   148    78    69   am
   149    78    79    1
   150   126   128    1
   151    69    70    2
   152    75    74    2
   153    75    77    1
   154   194   192   ar
   155    82    79    1
   156    82    83    1
   157   189   188    1
   158   227   229   ar
   159   227   226   ar
   160   229   231   ar
   161   192   191    1
   162    79    80    1
   163   188   191    1
   164   188   187    1
   165   186   185    1
   166   225   226    1
   167   225   222    1
   168   226   228   ar
   169    80    81    2
   170   231   232    1
   171   231   230   ar
   172   185   184    1
   173   183   184    1
   174   183   182    1
   175   228   230   ar
   176   223   222    1
   177   223   224    2
   178   222   221    1
   179   113   112    1
   180   121   119    1
   181   120   119    1
   182   178   179    1
   183   182   179    1
   184    93    92   ar
   185    93    91   ar
   186   119   118    1
   187   179   180    1
   188   110   112   ar
   189   110   108   ar
   190   112   111   ar
   191   180   181    2
   192    92    90   ar
   193    91    89   ar
   194   108   107   ar
   195   100    98    1
   196   111   109   ar
   197   118   115    1
   198   101    99    1
   199    90    89   ar
   200    89    88    1
   201   117   116    2
   202   115   116    1
   203   115   114    1
   204   107   109   ar
   205   107   106    1
   206    99    98    1
   207    98    95    1
   208    88    85    1
   209    97    96    2
   210   106   103    1
   211    96    95    1
   212    96   102   am
   213   103   102    1
   214   103   104    1
   215    85    84    1
   216    85    86    1
   217    95    94    1
   218    87    86    2
   219   105   104    2
