@<TRIPOS>MOLECULE
tmp/3fekB00.pdb
 84 76 0 0 0
SMALL
GASTEIGER

@<TRIPOS>ATOM
      1  N        -24.5110  -20.1900  -31.5940 N.3    41  VAL41      -0.1245
      2  CA       -23.3000  -20.2720  -30.7810 C.3    41  VAL41       0.1561
      3  C        -22.8970  -21.7370  -30.7670 C.2    41  VAL41       0.2260
      4  O        -23.6980  -22.6010  -30.4480 O.2    41  VAL41      -0.2867
      5  CB       -23.5670  -19.7940  -29.3160 C.3    41  VAL41       0.0252
      6  CG1      -22.4030  -20.1480  -28.4280 C.3    41  VAL41       0.0019
      7  CG2      -23.8050  -18.2920  -29.2990 C.3    41  VAL41       0.0019
      8  N        -14.8200  -21.4380  -30.0830 N.3    52  ILE52      -0.1245
      9  CA       -16.1560  -20.8370  -29.9150 C.3    52  ILE52       0.1561
     10  C        -16.4770  -20.0440  -31.1660 C.2    52  ILE52       0.2260
     11  O        -15.7200  -19.1300  -31.5260 O.2    52  ILE52      -0.2867
     12  CB       -16.2540  -19.8910  -28.6700 C.3    52  ILE52       0.0252
     13  CG1      -15.9060  -20.6600  -27.4060 C.3    52  ILE52       0.0019
     14  CG2      -17.7000  -19.3640  -28.5700 C.3    52  ILE52       0.0019
     15  CD1      -16.0060  -19.8870  -26.0730 C.3    52  ILE52       0.0001
     16  N        -19.5130  -17.6970  -32.9010 N.3    54  VAL54      -0.1245
     17  CA       -20.7630  -16.9810  -32.6380 C.3    54  VAL54       0.1561
     18  C        -21.1720  -16.3020  -33.9300 C.2    54  VAL54       0.2260
     19  O        -20.3720  -15.5620  -34.5270 O.2    54  VAL54      -0.2867
     20  CB       -20.5790  -15.9400  -31.5190 C.3    54  VAL54       0.0252
     21  CG1      -21.8460  -15.1270  -31.3120 C.3    54  VAL54       0.0019
     22  CG2      -20.1820  -16.6240  -30.2440 C.3    54  VAL54       0.0019
     23  N        -17.8400  -14.6040  -35.6140 N.3    61  THR61      -0.1218
     24  CA       -16.5060  -14.6710  -35.0610 C.3    61  THR61       0.1862
     25  C        -16.1610  -16.0970  -34.6640 C.2    61  THR61       0.2287
     26  O        -17.0370  -16.8710  -34.2630 O.2    61  THR61      -0.2866
     27  CB       -16.4070  -13.7870  -33.8040 C.3    61  THR61       0.1770
     28  OG1      -17.3740  -14.2300  -32.8550 O.3    61  THR61      -0.2211
     29  CG2      -16.6540  -12.3190  -34.1590 C.3    61  THR61       0.0375
     30  N        -13.1850  -17.9430  -32.1980 N.3    63  ILE63      -0.1245
     31  CA       -12.0230  -17.7960  -31.3140 C.3    63  ILE63       0.1561
     32  C        -11.5250  -19.1650  -30.9210 C.2    63  ILE63       0.2260
     33  O        -12.3130  -20.1190  -30.8490 O.2    63  ILE63      -0.2867
     34  CB       -12.2770  -16.9000  -30.0640 C.3    63  ILE63       0.0252
     35  CG1      -13.3260  -17.4990  -29.1020 C.3    63  ILE63       0.0019
     36  CG2      -12.6130  -15.4750  -30.5050 C.3    63  ILE63       0.0019
     37  CD1      -13.3760  -16.7370  -27.7320 C.3    63  ILE63       0.0001
     38  N         -8.4870  -11.6430  -30.0100 N.3    73  GLU73      -0.1245
     39  CA        -9.8840  -11.6720  -30.4230 C.3    73  GLU73       0.1567
     40  C        -10.3230  -10.2070  -30.6490 C.2    73  GLU73       0.2260
     41  O         -9.4910   -9.3700  -31.0020 O.2    73  GLU73      -0.2867
     42  CB       -10.7490  -12.4230  -29.3940 C.3    73  GLU73       0.0388
     43  CG       -10.7200  -11.8410  -27.9460 C.3    73  GLU73       0.1160
     44  CD       -11.8600  -12.3540  -27.0930 C.2    73  GLU73       0.3649
     45  OE1      -12.7940  -12.9880  -27.6360 O.co2  73  GLU73      -0.2457
     46  OE2      -11.8820  -12.0820  -25.8870 O.co2  73  GLU73      -0.2457
     47  N        -15.3660  -10.5930  -20.1750 N.3   109  TRP109     -0.1241
     48  CA       -16.4890  -11.5080  -20.3420 C.3   109  TRP109      0.1605
     49  C        -16.3250  -12.7100  -19.4530 C.2   109  TRP109      0.2264
     50  O        -15.2120  -13.0210  -19.0040 O.2   109  TRP109     -0.2867
     51  CB       -16.7140  -11.8800  -21.7970 C.3   109  TRP109      0.0550
     52  CG       -15.6340  -12.5490  -22.5630 C.ar  109  TRP109      0.0003
     53  CD1      -14.8330  -11.9560  -23.4980 C.ar  109  TRP109      0.0946
     54  CD2      -15.3040  -13.9420  -22.5670 C.ar  109  TRP109      0.0152
     55  NE1      -13.9860  -12.8960  -24.0620 N.ar  109  TRP109     -0.2442
     56  CE2      -14.2490  -14.1180  -23.5030 C.ar  109  TRP109      0.0810
     57  CE3      -15.7450  -15.0500  -21.8300 C.ar  109  TRP109      0.0012
     58  CZ2      -13.6720  -15.3780  -23.7570 C.ar  109  TRP109      0.0191
     59  CZ3      -15.1610  -16.3030  -22.0640 C.ar  109  TRP109      0.0001
     60  CH2      -14.1440  -16.4550  -23.0400 C.ar  109  TRP109      0.0015
     61  N        -18.0020  -16.9040  -18.8120 N.3   111  LEU111     -0.1245
     62  CA       -18.9130  -17.9670  -19.2350 C.3   111  LEU111      0.1561
     63  C        -18.9880  -18.9460  -18.0960 C.2   111  LEU111      0.2260
     64  O        -17.9460  -19.3830  -17.6200 O.2   111  LEU111     -0.2867
     65  CB       -18.4530  -18.7190  -20.5140 C.3   111  LEU111      0.0270
     66  CG       -18.5320  -18.0110  -21.8340 C.3   111  LEU111      0.0019
     67  CD1      -17.9190  -18.9780  -22.9230 C.3   111  LEU111      0.0001
     68  CD2      -20.0060  -17.7100  -22.2070 C.3   111  LEU111      0.0001
     69  N        -23.5120  -16.0750  -20.0100 N.3   121  ASP121     -0.1239
     70  CA       -22.4880  -15.2740  -20.6880 C.3   121  ASP121      0.1674
     71  C        -22.6430  -13.8780  -20.1380 C.2   121  ASP121      0.2266
     72  O        -23.6870  -13.2420  -20.3120 O.2   121  ASP121     -0.2867
     73  CB       -22.8400  -15.3430  -22.1790 C.3   121  ASP121      0.1410
     74  CG       -22.0280  -14.4240  -23.0670 C.2   121  ASP121      0.3668
     75  OD1      -21.1780  -13.6510  -22.6010 O.co2 121  ASP121     -0.2456
     76  OD2      -22.2470  -14.5050  -24.3060 O.co2 121  ASP121     -0.2456
     77  N        -20.9740  -10.0110  -20.0580 N.3   123  MET123     -0.1245
     78  CA       -20.0090   -9.0900  -20.6870 C.3   123  MET123      0.1570
     79  C        -20.0840   -7.7930  -19.9310 C.2   123  MET123      0.2261
     80  O        -21.1800   -7.3010  -19.6750 O.2   123  MET123     -0.2867
     81  CB       -20.3190   -8.8330  -22.1600 C.3   123  MET123      0.0387
     82  CG       -20.1900  -10.0660  -23.0150 C.3   123  MET123      0.0595
     83  SD       -20.6500   -9.8430  -24.7690 S.3   123  MET123     -0.1393
     84  CE       -22.3930   -9.6030  -24.5880 C.3   123  MET123      0.0692
@<TRIPOS>BOND
     1    23    24    1
     2    24    25    1
     3    24    27    1
     4    25    26    2
     5    19    18    2
     6    29    27    1
     7    18    17    1
     8    27    28    1
     9    16    17    1
    10    17    20    1
    11    30    31    1
    12     1     2    1
    13    11    10    2
    14    20    21    1
    15    20    22    1
    16    31    32    1
    17    31    34    1
    18    10     9    1
    19    41    40    2
    20    32    33    2
    21     2     3    1
    22     2     5    1
    23     3     4    2
    24    40    39    1
    25    36    34    1
    26    39    38    1
    27    39    42    1
    28     8     9    1
    29    34    35    1
    30     9    12    1
    31    42    43    1
    32     5     7    1
    33     5     6    1
    34    35    37    1
    35    12    14    1
    36    12    13    1
    37    43    44    1
    38    45    44   ar
    39    13    15    1
    40    44    46   ar
    41    83    84    1
    42    83    82    1
    43    76    74   ar
    44    55    56   ar
    45    55    53   ar
    46    58    56   ar
    47    58    60   ar
    48    56    54   ar
    49    53    52   ar
    50    74    75   ar
    51    74    73    1
    52    60    59   ar
    53    82    81    1
    54    67    66    1
    55    54    52   ar
    56    54    57   ar
    57    52    51    1
    58    68    66    1
    59    73    70    1
    60    81    78    1
    61    59    57   ar
    62    66    65    1
    63    51    48    1
    64    70    71    1
    65    70    69    1
    66    78    77    1
    67    78    79    1
    68    65    62    1
    69    48    47    1
    70    48    49    1
    71    72    71    2
    72    79    80    2
    73    49    50    2
    74    62    61    1
    75    62    63    1
    76    63    64    2
