@<TRIPOS>MOLECULE
tmp/3felA00.pdb
 153 144 0 0 0
SMALL
GASTEIGER

@<TRIPOS>ATOM
      1  N         -9.2940    8.1210    1.1240 N.3    15  PHE15      -0.1241
      2  CA        -8.3380    8.0860    0.0100 C.3    15  PHE15       0.1605
      3  C         -8.2510    9.4430   -0.6700 C.2    15  PHE15       0.2264
      4  O         -7.1600    9.9340   -0.9610 O.2    15  PHE15      -0.2867
      5  CB        -8.6820    6.9840   -1.0110 C.3    15  PHE15       0.0534
      6  CG        -7.7160    6.9000   -2.1600 C.ar   15  PHE15      -0.0203
      7  CD1       -6.3480    6.8710   -1.9280 C.ar   15  PHE15      -0.0042
      8  CD2       -8.1740    6.8180   -3.4690 C.ar   15  PHE15      -0.0042
      9  CE1       -5.4500    6.7880   -2.9710 C.ar   15  PHE15      -0.0003
     10  CE2       -7.2770    6.7220   -4.5280 C.ar   15  PHE15      -0.0003
     11  CZ        -5.9230    6.7240   -4.2860 C.ar   15  PHE15      -0.0000
     12  N         -5.5730   -5.9450   -6.9840 N.3    41  VAL41      -0.1245
     13  CA        -4.2830   -6.1070   -6.3190 C.3    41  VAL41       0.1561
     14  C         -3.8610   -7.5650   -6.3920 C.2    41  VAL41       0.2260
     15  O         -4.5760   -8.4330   -5.9440 O.2    41  VAL41      -0.2867
     16  CB        -4.3440   -5.6790   -4.8510 C.3    41  VAL41       0.0252
     17  CG1       -3.1030   -6.1660   -4.1270 C.3    41  VAL41       0.0019
     18  CG2       -4.4660   -4.1670   -4.7580 C.3    41  VAL41       0.0019
     19  N          4.1370   -7.3520   -5.9130 N.3    52  ILE52      -0.1245
     20  CA         2.8350   -6.7420   -5.7240 C.3    52  ILE52       0.1561
     21  C          2.4770   -5.8880   -6.9280 C.2    52  ILE52       0.2260
     22  O          3.2310   -4.9880   -7.3020 O.2    52  ILE52      -0.2867
     23  CB         2.7890   -5.8630   -4.4430 C.3    52  ILE52       0.0252
     24  CG1        3.1640   -6.6900   -3.2150 C.3    52  ILE52       0.0019
     25  CG2        1.3980   -5.2280   -4.2540 C.3    52  ILE52       0.0019
     26  CD1        3.1110   -5.9080   -1.9000 C.3    52  ILE52       0.0001
     27  N         -0.7100   -3.4950   -8.4240 N.3    54  GLU54      -0.1245
     28  CA        -2.0360   -2.9040   -8.3130 C.3    54  GLU54       0.1567
     29  C         -2.4300   -2.2850   -9.6520 C.2    54  GLU54       0.2260
     30  O         -1.6070   -1.6830  -10.3450 O.2    54  GLU54      -0.2867
     31  CB        -2.0950   -1.8270   -7.2300 C.3    54  GLU54       0.0388
     32  CG        -3.5040   -1.3140   -6.9830 C.3    54  GLU54       0.1160
     33  CD        -3.5340    0.0730   -6.3720 C.2    54  GLU54       0.3649
     34  OE1       -2.7630    0.3260   -5.4140 O.co2  54  GLU54      -0.2457
     35  OE2       -4.3380    0.9070   -6.8460 O.co2  54  GLU54      -0.2457
     36  N          0.8320   -0.2550  -11.1400 N.3    61  THR61      -0.1203
     37  CA         2.1280   -0.2180  -10.4530 C.3    61  THR61       0.1994
     38  C          2.5720   -1.6280  -10.0800 C.2    61  THR61       0.2618
     39  O          1.7590   -2.4580   -9.6740 O.2    61  THR61      -0.2717
     40  CB         2.0800    0.6260   -9.1500 C.3    61  THR61       0.1784
     41  OG1        0.9610    0.2240   -8.3530 O.3    61  THR61      -0.2211
     42  CG2        1.9880    2.1180   -9.4550 C.3    61  THR61       0.0376
     43  N          3.8620   -1.9060  -10.2090 N.am   62  GLU62      -0.1965
     44  CA         4.3820   -3.2140   -9.8600 C.3    62  GLU62       0.1733
     45  C          5.6510   -3.0350   -9.0580 C.2    62  GLU62       0.2616
     46  O          6.4950   -2.2260   -9.4200 O.2    62  GLU62      -0.2715
     47  CB         4.6980   -4.0240  -11.1180 C.3    62  GLU62       0.0429
     48  CG         3.4770   -4.5140  -11.8710 C.3    62  GLU62       0.1163
     49  CD         3.8390   -5.3040  -13.1170 C.2    62  GLU62       0.3649
     50  OE1        3.0660   -5.2460  -14.0960 O.co2  62  GLU62      -0.2457
     51  OE2        4.8950   -5.9800  -13.1230 O.co2  62  GLU62      -0.2457
     52  N          5.7630   -3.7650   -7.9520 N.am   63  ILE63      -0.1977
     53  CA         6.9810   -3.7580   -7.1480 C.3    63  ILE63       0.1596
     54  C          7.4180   -5.1870   -6.8420 C.2    63  ILE63       0.2287
     55  O          6.5930   -6.0870   -6.7190 O.2    63  ILE63      -0.2864
     56  CB         6.8510   -2.9300   -5.8250 C.3    63  ILE63       0.0276
     57  CG1        5.7620   -3.5000   -4.9100 C.3    63  ILE63       0.0022
     58  CG2        6.5940   -1.4640   -6.1170 C.3    63  ILE63       0.0022
     59  CD1        5.6820   -2.7770   -3.5290 C.3    63  ILE63       0.0001
     60  N         10.3580    2.6300   -5.6390 N.3    73  GLU73      -0.1231
     61  CA         8.9470    2.6340   -6.0050 C.3    73  GLU73       0.1699
     62  C          8.4880    4.0810   -6.1280 C.2    73  GLU73       0.2592
     63  O          9.2750    4.9480   -6.4880 O.2    73  GLU73      -0.2718
     64  CB         8.1030    1.8430   -4.9850 C.3    73  GLU73       0.0402
     65  CG         8.2230    2.3020   -3.5260 C.3    73  GLU73       0.1161
     66  CD         7.1180    1.7340   -2.6340 C.2    73  GLU73       0.3649
     67  OE1        6.1950    1.0710   -3.1600 O.co2  73  GLU73      -0.2457
     68  OE2        7.1700    1.9520   -1.4000 O.co2  73  GLU73      -0.2457
     69  N          7.2140    4.3450   -5.8560 N.am   74  GLN74      -0.1966
     70  CA         6.7010    5.7000   -5.9400 C.3    74  GLN74       0.1733
     71  C          5.7830    5.9370   -4.7780 C.2    74  GLN74       0.2617
     72  O          5.1890    4.9970   -4.2500 O.2    74  GLN74      -0.2715
     73  CB         5.9400    5.9220   -7.2540 C.3    74  GLN74       0.0408
     74  CG         6.8320    5.9040   -8.4690 C.3    74  GLN74       0.0908
     75  CD         6.0840    6.1210   -9.7750 C.2    74  GLN74       0.2608
     76  OE1        6.6260    6.6930  -10.7210 O.2    74  GLN74      -0.2717
     77  NE2        4.8350    5.6750   -9.8290 N.am   74  GLN74      -0.0878
     78  N          5.6510    7.1940   -4.3830 N.am   75  THR75      -0.1937
     79  CA         4.6880    7.5350   -3.3530 C.3    75  THR75       0.2028
     80  C          3.3020    7.4870   -3.9630 C.2    75  THR75       0.2642
     81  O          3.1460    7.3760   -5.1870 O.2    75  THR75      -0.2714
     82  CB         4.9070    8.9330   -2.8290 C.3    75  THR75       0.1808
     83  OG1        4.6850    9.8510   -3.9050 O.3    75  THR75      -0.2208
     84  CG2        6.3290    9.0940   -2.3000 C.3    75  THR75       0.0379
     85  N          2.2910    7.5900   -3.1090 N.am   76  VAL76      -0.1977
     86  CA         0.9040    7.5030   -3.5780 C.3    76  VAL76       0.1596
     87  C          0.5870    8.5840   -4.6140 C.2    76  VAL76       0.2287
     88  O         -0.2670    8.3820   -5.4760 O.2    76  VAL76      -0.2864
     89  CB        -0.1240    7.4980   -2.4090 C.3    76  VAL76       0.0276
     90  CG1       -0.1450    8.8220   -1.6780 C.3    76  VAL76       0.0022
     91  CG2       -1.5190    7.1460   -2.9140 C.3    76  VAL76       0.0022
     92  N          9.2880    5.2500    3.4550 N.3    97  GLN97      -0.1245
     93  CA         9.6700    5.7640    2.1500 C.3    97  GLN97       0.1566
     94  C         10.5420    7.0040    2.2780 C.2    97  GLN97       0.2260
     95  O         10.2630    7.8900    3.0920 O.2    97  GLN97      -0.2867
     96  CB         8.4280    6.1050    1.3230 C.3    97  GLN97       0.0367
     97  CG         7.4560    4.9400    1.0850 C.3    97  GLN97       0.0905
     98  CD         6.2960    5.3380    0.2010 C.2    97  GLN97       0.2608
     99  OE1        5.8500    6.4890    0.2240 O.2    97  GLN97      -0.2717
    100  NE2        5.8120    4.4000   -0.6160 N.am   97  GLN97      -0.0878
    101  N          4.5290    6.5660    4.4380 N.3   108  SER108     -0.1202
    102  CA         4.7900    5.1780    4.7460 C.3   108  SER108      0.2020
    103  C          3.5550    4.4160    4.3620 C.2   108  SER108      0.2618
    104  O          2.5270    5.0200    4.0600 O.2   108  SER108     -0.2717
    105  CB         4.9930    4.9790    6.2460 C.3   108  SER108      0.2103
    106  OG         3.9690    5.6490    6.9540 O.3   108  SER108     -0.2182
    107  N          3.6570    3.0980    4.3940 N.am  109  TRP109     -0.1975
    108  CA         2.4660    2.2700    4.2300 C.3   109  TRP109      0.1640
    109  C          2.6430    0.9840    4.9990 C.2   109  TRP109      0.2290
    110  O          3.7640    0.5900    5.3410 O.2   109  TRP109     -0.2864
    111  CB         2.1470    2.0210    2.7430 C.3   109  TRP109      0.0576
    112  CG         3.2490    1.3610    1.9380 C.ar  109  TRP109      0.0006
    113  CD1        4.1500    1.9970    1.1320 C.ar  109  TRP109      0.0946
    114  CD2        3.5350   -0.0510    1.8090 C.ar  109  TRP109      0.0152
    115  NE1        4.9790    1.0770    0.5390 N.ar  109  TRP109     -0.2442
    116  CE2        4.6190   -0.1780    0.9310 C.ar  109  TRP109      0.0810
    117  CE3        2.9870   -1.2100    2.3620 C.ar  109  TRP109      0.0012
    118  CZ2        5.1830   -1.4200    0.5990 C.ar  109  TRP109      0.0191
    119  CZ3        3.5400   -2.4460    2.0240 C.ar  109  TRP109      0.0001
    120  CH2        4.6280   -2.5350    1.1590 C.ar  109  TRP109      0.0015
    121  N          0.9680   -3.1740    5.5060 N.3   111  LEU111     -0.1245
    122  CA         0.0260   -4.2090    5.0600 C.3   111  LEU111      0.1561
    123  C         -0.0440   -5.2540    6.1430 C.2   111  LEU111      0.2260
    124  O          0.9910   -5.7300    6.6420 O.2   111  LEU111     -0.2867
    125  CB         0.5000   -4.9170    3.7900 C.3   111  LEU111      0.0270
    126  CG         0.2360   -4.4190    2.3610 C.3   111  LEU111      0.0019
    127  CD1        0.8650   -5.4200    1.4150 C.3   111  LEU111      0.0001
    128  CD2       -1.2680   -4.2450    2.0560 C.3   111  LEU111      0.0001
    129  N         -4.5330   -2.3330    4.1190 N.3   121  LEU121     -0.1245
    130  CA        -3.4700   -1.4220    3.7360 C.3   121  LEU121      0.1561
    131  C         -3.7190   -0.1120    4.4840 C.2   121  LEU121      0.2260
    132  O         -4.8320    0.3790    4.4880 O.2   121  LEU121     -0.2867
    133  CB        -3.5490   -1.1780    2.2300 C.3   121  LEU121      0.0270
    134  CG        -2.8700    0.0840    1.7110 C.3   121  LEU121      0.0019
    135  CD1       -1.3410   -0.1020    1.7080 C.3   121  LEU121      0.0001
    136  CD2       -3.3830    0.4770    0.3360 C.3   121  LEU121      0.0001
    137  N         -2.0710    3.8270    4.4250 N.3   123  MET123     -0.1245
    138  CA        -1.1020    4.7100    3.8270 C.3   123  MET123      0.1570
    139  C         -1.1550    6.0010    4.6260 C.2   123  MET123      0.2261
    140  O         -2.2260    6.5600    4.8070 O.2   123  MET123     -0.2867
    141  CB        -1.4950    5.0040    2.3820 C.3   123  MET123      0.0387
    142  CG        -1.3070    3.8310    1.4290 C.3   123  MET123      0.0595
    143  SD        -1.8020    4.3120   -0.2480 S.3   123  MET123     -0.1393
    144  CE        -3.5770    4.2930   -0.0440 C.3   123  MET123      0.0692
    145  N         -7.5200    0.9410    3.4000 N.3   132  LYS132     -0.1245
    146  CA        -8.2630    0.1830    2.3820 C.3   132  LYS132      0.1561
    147  C         -8.2360   -1.2590    2.8400 C.2   132  LYS132      0.2260
    148  O         -7.2730   -1.6900    3.4740 O.2   132  LYS132     -0.2867
    149  CB        -7.6150    0.3380    1.0040 C.3   132  LYS132      0.0271
    150  CG        -7.6240    1.7730    0.5030 C.3   132  LYS132      0.0035
    151  CD        -7.1730    1.8560   -0.9540 C.3   132  LYS132      0.0206
    152  CE        -7.3620    3.2410   -1.5040 C.3   132  LYS132      0.1093
    153  NZ        -6.7150    3.2970   -2.8510 N.3   132  LYS132     -0.1314
@<TRIPOS>BOND
     1    50    49   ar
     2    51    49   ar
     3    49    48    1
     4    48    47    1
     5    36    37    1
     6    47    44    1
     7    76    75    2
     8    37    38    1
     9    37    40    1
    10    30    29    2
    11    43    38   am
    12    43    44    1
    13    38    39    2
    14    44    45    1
    15    77    75   am
    16    75    74    1
    17    29    28    1
    18    42    40    1
    19    46    45    2
    20    40    41    1
    21    45    52   am
    22    74    73    1
    23    27    28    1
    24    28    31    1
    25    52    53    1
    26    22    21    2
    27    73    70    1
    28    31    32    1
    29    53    54    1
    30    53    56    1
    31    12    13    1
    32    32    33    1
    33    21    20    1
    34    35    33   ar
    35    54    55    2
    36    63    62    2
    37    14    13    1
    38    14    15    2
    39    33    34   ar
    40    13    16    1
    41    62    61    1
    42    62    69   am
    43    58    56    1
    44    61    60    1
    45    61    64    1
    46    70    69    1
    47    70    71    1
    48    19    20    1
    49    56    57    1
    50    20    23    1
    51    88    87    2
    52    81    80    2
    53    64    65    1
    54    57    59    1
    55    16    18    1
    56    16    17    1
    57    71    78   am
    58    71    72    2
    59    87    86    1
    60    10    11   ar
    61    10     8   ar
    62    23    25    1
    63    23    24    1
    64    78    79    1
    65    11     9   ar
    66    80    79    1
    67    80    85   am
    68    83    82    1
    69    86    85    1
    70    86    89    1
    71    65    66    1
    72     8     6   ar
    73    79    82    1
    74    24    26    1
    75    67    66   ar
    76     9     7   ar
    77    91    89    1
    78   153   152    1
    79    82    84    1
    80    66    68   ar
    81    89    90    1
    82     6     7   ar
    83     6     5    1
    84   152   151    1
    85     5     2    1
    86     4     3    2
    87   151   150    1
    88     3     2    1
    89   100    98   am
    90   143   144    1
    91   143   142    1
    92     2     1    1
    93    98    99    2
    94    98    97    1
    95   136   134    1
    96   150   149    1
    97   115   116   ar
    98   115   113   ar
    99   118   116   ar
   100   118   120   ar
   101   116   114   ar
   102   149   146    1
   103    97    96    1
   104   113   112   ar
   105   120   119   ar
   106    96    93    1
   107   127   126    1
   108   142   141    1
   109   135   134    1
   110   134   133    1
   111   114   112   ar
   112   114   117   ar
   113   112   111    1
   114   119   117   ar
   115   128   126    1
   116    93    94    1
   117    93    92    1
   118   133   130    1
   119    94    95    2
   120   126   125    1
   121   141   138    1
   122   146   147    1
   123   146   145    1
   124   111   108    1
   125   147   148    2
   126   130   129    1
   127   130   131    1
   128   125   122    1
   129   138   137    1
   130   138   139    1
   131   104   103    2
   132   108   107    1
   133   108   109    1
   134   103   107   am
   135   103   102    1
   136   101   102    1
   137   131   132    2
   138   139   140    2
   139   102   105    1
   140   109   110    2
   141   122   121    1
   142   122   123    1
   143   123   124    2
   144   105   106    1
