@<TRIPOS>MOLECULE
tmp/3fepA00.pdb
 147 140 0 0 0
SMALL
GASTEIGER

@<TRIPOS>ATOM
      1  N         26.1510  -22.5820    9.8020 N.3     9  ILE9       -0.1245
      2  CA        25.9370  -21.4990    8.8490 C.3     9  ILE9        0.1561
      3  C         24.9950  -21.9240    7.7230 C.2     9  ILE9        0.2260
      4  O         25.1740  -22.9800    7.1160 O.2     9  ILE9       -0.2867
      5  CB        27.2750  -20.9960    8.2600 C.3     9  ILE9        0.0252
      6  CG1       27.0650  -19.7200    7.4530 C.3     9  ILE9        0.0019
      7  CG2       27.9260  -22.0710    7.4060 C.3     9  ILE9        0.0019
      8  CD1       28.3490  -19.0990    6.9790 C.3     9  ILE9        0.0001
      9  N         30.6810  -11.9810    1.0310 N.3    15  PHE15      -0.1241
     10  CA        31.8940  -12.4280    1.6980 C.3    15  PHE15       0.1605
     11  C         33.1500  -12.2430    0.8430 C.2    15  PHE15       0.2264
     12  O         34.1900  -11.8040    1.3400 O.2    15  PHE15      -0.2867
     13  CB        31.7730  -13.8760    2.1680 C.3    15  PHE15       0.0534
     14  CG        32.9550  -14.3450    2.9720 C.ar   15  PHE15      -0.0203
     15  CD1       33.3710  -13.6370    4.0960 C.ar   15  PHE15      -0.0042
     16  CD2       33.6670  -15.4720    2.5960 C.ar   15  PHE15      -0.0042
     17  CE1       34.4680  -14.0500    4.8310 C.ar   15  PHE15      -0.0003
     18  CE2       34.7690  -15.8910    3.3280 C.ar   15  PHE15      -0.0003
     19  CZ        35.1670  -15.1790    4.4480 C.ar   15  PHE15      -0.0000
     20  N         43.1520  -17.5410   -2.6840 N.3    28  LEU28      -0.1245
     21  CA        42.6110  -17.8110   -1.3620 C.3    28  LEU28       0.1561
     22  C         41.1520  -17.3790   -1.2860 C.2    28  LEU28       0.2260
     23  O         40.3570  -17.9770   -0.5600 O.2    28  LEU28      -0.2867
     24  CB        43.4360  -17.1150   -0.2810 C.3    28  LEU28       0.0270
     25  CG        43.0470  -17.4070    1.1710 C.3    28  LEU28       0.0019
     26  CD1       43.2030  -18.8720    1.4880 C.3    28  LEU28       0.0001
     27  CD2       43.8730  -16.5700    2.1270 C.3    28  LEU28       0.0001
     28  N         39.0560  -20.3390   -2.8080 N.3    31  ILE31      -0.1231
     29  CA        38.9620  -21.4620   -1.8870 C.3    31  ILE31       0.1692
     30  C         38.1230  -21.0840   -0.6630 C.2    31  ILE31       0.2591
     31  O         37.4660  -21.9330   -0.0580 O.2    31  ILE31      -0.2718
     32  CB        40.3680  -21.9710   -1.4450 C.3    31  ILE31       0.0266
     33  CG1       40.2910  -23.4290   -0.9780 C.3    31  ILE31       0.0019
     34  CG2       40.9530  -21.0830   -0.3560 C.3    31  ILE31       0.0020
     35  CD1       39.9040  -24.4080   -2.0800 C.3    31  ILE31       0.0001
     36  N         38.1210  -19.7990   -0.3280 N.am   32  ALA32      -0.1980
     37  CA        37.4260  -19.3200    0.8550 C.3    32  ALA32       0.1597
     38  C         35.9190  -19.4410    0.7150 C.2    32  ALA32       0.2287
     39  O         35.2120  -19.6030    1.7040 O.2    32  ALA32      -0.2864
     40  CB        37.8120  -17.8880    1.1490 C.3    32  ALA32       0.0319
     41  N         34.4490  -24.8910    2.5940 N.3    37  SER37      -0.1202
     42  CA        35.1000  -23.9950    3.5480 C.3    37  SER37       0.2020
     43  C         34.1180  -23.3220    4.5150 C.2    37  SER37       0.2619
     44  O         34.5140  -22.4770    5.3200 O.2    37  SER37      -0.2717
     45  CB        35.9320  -22.9450    2.8140 C.3    37  SER37       0.2103
     46  OG        36.9070  -23.5600    1.9900 O.3    37  SER37      -0.2182
     47  N         32.8430  -23.7030    4.4330 N.am   38  LYS38      -0.1966
     48  CA        31.8460  -23.2330    5.3890 C.3    38  LYS38       0.1713
     49  C         32.3880  -23.4000    6.8050 C.2    38  LYS38       0.2458
     50  O         32.8450  -24.4850    7.1700 O.2    38  LYS38      -0.2730
     51  CB        30.5390  -24.0150    5.2330 C.3    38  LYS38       0.0311
     52  CG        30.1010  -24.2100    3.7920 C.3    38  LYS38       0.0038
     53  CD        29.3150  -23.0140    3.2670 C.3    38  LYS38       0.0206
     54  CE        27.8230  -23.1570    3.5590 C.3    38  LYS38       0.1093
     55  NZ        27.2480  -24.3920    2.9540 N.3    38  LYS38      -0.1314
     56  N         32.3650  -22.3130    7.6030 N.am   39  PRO39      -0.2727
     57  CA        32.8920  -22.3490    8.9560 C.3    39  PRO39       0.1402
     58  C         31.8840  -22.9200    9.9450 C.2    39  PRO39       0.2269
     59  O         30.6710  -22.7700    9.7600 O.2    39  PRO39      -0.2865
     60  CB        33.1420  -20.8760    9.2640 C.3    39  PRO39       0.0296
     61  CG        32.0890  -20.1680    8.5190 C.3    39  PRO39       0.0237
     62  CD        31.8410  -20.9770    7.2570 C.3    39  PRO39       0.0939
     63  N         35.9860  -20.8370   15.7090 N.3    54  THR54      -0.1218
     64  CA        35.6100  -20.8680   14.3100 C.3    54  THR54       0.1862
     65  C         36.4780  -21.8830   13.5910 C.2    54  THR54       0.2287
     66  O         37.6960  -21.7360   13.5450 O.2    54  THR54      -0.2866
     67  CB        35.8390  -19.4950   13.6580 C.3    54  THR54       0.1770
     68  OG1       35.4860  -18.4540   14.5820 O.3    54  THR54      -0.2211
     69  CG2       35.0190  -19.3620   12.3940 C.3    54  THR54       0.0375
     70  N         37.2050  -24.1760   10.0730 N.3    56  THR56      -0.1203
     71  CA        37.0250  -24.5900    8.6850 C.3    56  THR56       0.1994
     72  C         37.6870  -25.9630    8.4250 C.2    56  THR56       0.2619
     73  O         37.8090  -26.7780    9.3410 O.2    56  THR56      -0.2717
     74  CB        37.5750  -23.5400    7.7240 C.3    56  THR56       0.1784
     75  OG1       38.9840  -23.3960    7.9270 O.3    56  THR56      -0.2211
     76  CG2       36.9020  -22.2090    7.9760 C.3    56  THR56       0.0376
     77  N         38.1100  -26.2100    7.1820 N.am   57  THR57      -0.1938
     78  CA        38.6240  -27.5420    6.7910 C.3    57  THR57       0.2028
     79  C         39.9240  -27.9210    7.5140 C.2    57  THR57       0.2642
     80  O         40.0630  -29.0390    8.0150 O.2    57  THR57      -0.2714
     81  CB        38.8350  -27.6690    5.2450 C.3    57  THR57       0.1808
     82  OG1       39.3460  -26.4340    4.7150 O.3    57  THR57      -0.2208
     83  CG2       37.5250  -28.0230    4.5450 C.3    57  THR57       0.0379
     84  N         40.8670  -26.9850    7.5640 N.am   58  VAL58      -0.1963
     85  CA        42.1900  -27.2650    8.1020 C.3    58  VAL58       0.1727
     86  C         42.6680  -26.1760    9.0660 C.2    58  VAL58       0.2616
     87  O         43.8490  -26.1300    9.4310 O.2    58  VAL58      -0.2715
     88  CB        43.2240  -27.4200    6.9750 C.3    58  VAL58       0.0290
     89  CG1       42.9230  -28.6630    6.1520 C.3    58  VAL58       0.0023
     90  CG2       43.2490  -26.1720    6.0910 C.3    58  VAL58       0.0023
     91  N         41.7510  -25.3000    9.4740 N.am   59  TRP59      -0.1974
     92  CA        42.1000  -24.1720   10.3340 C.3    59  TRP59       0.1640
     93  C         41.0700  -24.0070   11.4470 C.2    59  TRP59       0.2290
     94  O         39.8960  -24.3440   11.2690 O.2    59  TRP59      -0.2864
     95  CB        42.1920  -22.8920    9.5070 C.3    59  TRP59       0.0576
     96  CG        43.0140  -21.8010   10.1360 C.ar   59  TRP59       0.0006
     97  CD1       42.5950  -20.8900   11.0580 C.ar   59  TRP59       0.0946
     98  CD2       44.3830  -21.4870    9.8560 C.ar   59  TRP59       0.0152
     99  NE1       43.6210  -20.0350   11.3830 N.ar   59  TRP59      -0.2442
    100  CE2       44.7310  -20.3790   10.6590 C.ar   59  TRP59       0.0810
    101  CE3       45.3520  -22.0390    9.0150 C.ar   59  TRP59       0.0012
    102  CZ2       46.0090  -19.8130   10.6460 C.ar   59  TRP59       0.0191
    103  CZ3       46.6220  -21.4730    9.0000 C.ar   59  TRP59       0.0001
    104  CH2       46.9370  -20.3710    9.8120 C.ar   59  TRP59       0.0015
    105  N         40.1430  -20.9910   14.7610 N.3    61  THR61      -0.1218
    106  CA        40.4330  -19.7820   15.5030 C.3    61  THR61       0.1862
    107  C         39.7010  -19.8010   16.8400 C.2    61  THR61       0.2287
    108  O         38.4970  -20.0750   16.8970 O.2    61  THR61      -0.2866
    109  CB        39.9900  -18.5530   14.7290 C.3    61  THR61       0.1770
    110  OG1       40.1240  -18.8000   13.3220 O.3    61  THR61      -0.2211
    111  CG2       40.8310  -17.3610   15.1140 C.3    61  THR61       0.0375
    112  N         39.7290  -10.8310    9.8370 N.3    76  VAL76      -0.1245
    113  CA        39.2150  -11.9280    9.0360 C.3    76  VAL76       0.1561
    114  C         40.3060  -12.4830    8.1290 C.2    76  VAL76       0.2260
    115  O         40.4210  -13.6980    7.9520 O.2    76  VAL76      -0.2867
    116  CB        37.9990  -11.5090    8.1960 C.3    76  VAL76       0.0252
    117  CG1       37.3610  -12.7290    7.5450 C.3    76  VAL76       0.0019
    118  CG2       36.9920  -10.7940    9.0610 C.3    76  VAL76       0.0019
    119  N         30.3110   -8.6440    9.2370 N.3   123  MET123     -0.1245
    120  CA        31.7090   -8.2730    9.2380 C.3   123  MET123      0.1570
    121  C         31.8930   -7.1290    8.2660 C.2   123  MET123      0.2261
    122  O         31.3250   -7.1350    7.1770 O.2   123  MET123     -0.2867
    123  CB        32.5820   -9.4580    8.8210 C.3   123  MET123      0.0387
    124  CG        32.5490  -10.6370    9.7870 C.3   123  MET123      0.0595
    125  SD        33.3960  -12.1030    9.1470 S.3   123  MET123     -0.1393
    126  CE        32.3870  -12.4790    7.7140 C.3   123  MET123      0.0692
    127  N         26.3760  -13.0500    7.5600 N.3   132  LYS132     -0.1245
    128  CA        26.2770  -14.4910    7.5650 C.3   132  LYS132      0.1561
    129  C         25.2960  -14.9070    8.6180 C.2   132  LYS132      0.2260
    130  O         25.1840  -14.2650    9.6370 O.2   132  LYS132     -0.2867
    131  CB        27.6140  -15.0910    7.9540 C.3   132  LYS132      0.0271
    132  CG        28.7530  -14.5330    7.1200 C.3   132  LYS132      0.0035
    133  CD        30.0810  -15.0970    7.5970 C.3   132  LYS132      0.0206
    134  CE        30.6890  -15.9960    6.5340 C.3   132  LYS132      0.1093
    135  NZ        32.0250  -16.2950    7.0140 N.3   132  LYS132     -0.1314
    136  N         23.5550  -18.0050   10.9980 N.3   134  TYR134     -0.1241
    137  CA        23.8080  -19.3160   11.5910 C.3   134  TYR134      0.1605
    138  C         22.5520  -19.8970   12.2370 C.2   134  TYR134      0.2264
    139  O         21.6150  -19.1690   12.5620 O.2   134  TYR134     -0.2867
    140  CB        24.9140  -19.2240   12.6440 C.3   134  TYR134      0.0534
    141  CG        26.2550  -18.7840   12.1180 C.ar  134  TYR134     -0.0201
    142  CD1       26.5450  -17.4380   11.9440 C.ar  134  TYR134     -0.0009
    143  CD2       27.2510  -19.7100   11.8420 C.ar  134  TYR134     -0.0009
    144  CE1       27.7880  -17.0240   11.4840 C.ar  134  TYR134      0.0417
    145  CE2       28.4960  -19.3120   11.3830 C.ar  134  TYR134      0.0417
    146  CZ        28.7600  -17.9650   11.2040 C.ar  134  TYR134      0.1957
    147  OH        29.9980  -17.5580   10.7500 O.3   134  TYR134     -0.2866
@<TRIPOS>BOND
     1    28    29    1
     2    20    21    1
     3    35    33    1
     4    29    32    1
     5    29    30    1
     6    32    33    1
     7    32    34    1
     8    21    22    1
     9    21    24    1
    10    22    23    2
    11    30    36   am
    12    30    31    2
    13    36    37    1
    14    24    25    1
    15    38    37    1
    16    38    39    2
    17    11    12    2
    18    11    10    1
    19    37    40    1
    20     9    10    1
    21    25    26    1
    22    25    27    1
    23    10    13    1
    24    46    45    1
    25    13    14    1
    26    41    42    1
    27    16    14   ar
    28    16    18   ar
    29    45    42    1
    30    55    54    1
    31    14    15   ar
    32    53    54    1
    33    53    52    1
    34    18    19   ar
    35    42    43    1
    36    52    51    1
    37    15    17   ar
    38    47    43   am
    39    47    48    1
    40    19    17   ar
    41    43    44    2
    42    83    81    1
    43    82    81    1
    44    51    48    1
    45    81    78    1
    46    48    49    1
    47    90    88    1
    48    89    88    1
    49   134   135    1
    50   134   133    1
    51    78    77    1
    52    78    79    1
    53    49    50    2
    54    49    56   am
    55    88    85    1
    56     8     6    1
    57     4     3    2
    58   132   133    1
    59   132   131    1
    60   122   121    2
    61    77    72   am
    62    62    56    1
    63    62    61    1
    64     7     5    1
    65     6     5    1
    66    79    84   am
    67    79    80    2
    68   117   116    1
    69   127   128    1
    70    84    85    1
    71   128   131    1
    72   128   129    1
    73    56    57    1
    74   126   125    1
    75     3     2    1
    76    74    75    1
    77    74    76    1
    78    74    71    1
    79   115   114    2
    80    85    86    1
    81   114   113    1
    82   116   113    1
    83   116   118    1
    84     5     2    1
    85   121   120    1
    86    72    71    1
    87    72    73    2
    88    61    60    1
    89   129   130    2
    90    71    70    1
    91   123   120    1
    92   123   124    1
    93     2     1    1
    94    57    60    1
    95    57    58    1
    96   103   101   ar
    97   103   104   ar
    98   101    98   ar
    99   113   112    1
   100    86    87    2
   101    86    91   am
   102   125   124    1
   103   119   120    1
   104    91    92    1
   105    95    96    1
   106    95    92    1
   107    59    58    2
   108   104   102   ar
   109    98    96   ar
   110    98   100   ar
   111    96    97   ar
   112    92    93    1
   113   102   100   ar
   114   100    99   ar
   115   147   146    1
   116   136   137    1
   117    97    99   ar
   118   146   145   ar
   119   146   144   ar
   120    94    93    2
   121   145   143   ar
   122   144   142   ar
   123   137   138    1
   124   137   140    1
   125   143   141   ar
   126   142   141   ar
   127   141   140    1
   128   138   139    2
   129    69    67    1
   130   110   109    1
   131    66    65    2
   132    65    64    1
   133    67    64    1
   134    67    68    1
   135    64    63    1
   136   109   111    1
   137   109   106    1
   138   105   106    1
   139   106   107    1
   140   107   108    2
