@<TRIPOS>MOLECULE
tmp/3fepA01.pdb
 106 98 0 0 0
SMALL
GASTEIGER

@<TRIPOS>ATOM
      1  N         30.8910  -22.6700   13.9970 N.3    41  VAL41      -0.1245
      2  CA        31.0890  -21.7730   15.1200 C.3    41  VAL41       0.1561
      3  C         30.5690  -22.3890   16.4140 C.2    41  VAL41       0.2260
      4  O         29.3990  -22.7730   16.5060 O.2    41  VAL41      -0.2867
      5  CB        30.3980  -20.4030   14.8760 C.3    41  VAL41       0.0252
      6  CG1       30.5370  -19.5000   16.0980 C.3    41  VAL41       0.0019
      7  CG2       30.9720  -19.7280   13.6340 C.3    41  VAL41       0.0019
      8  N         34.7160  -18.1130   21.6980 N.3    52  ILE52      -0.1245
      9  CA        34.1820  -18.4020   20.3820 C.3    52  ILE52       0.1561
     10  C         35.2170  -19.1240   19.5460 C.2    52  ILE52       0.2260
     11  O         36.3750  -18.6950   19.4590 O.2    52  ILE52      -0.2867
     12  CB        33.7040  -17.1150   19.6600 C.3    52  ILE52       0.0252
     13  CG1       32.6360  -16.4040   20.5010 C.3    52  ILE52       0.0019
     14  CG2       33.1500  -17.4480   18.2840 C.3    52  ILE52       0.0019
     15  CD1       32.3460  -14.9770   20.0660 C.3    52  ILE52       0.0001
     16  N         35.9860  -20.8370   15.7090 N.3    54  THR54      -0.1218
     17  CA        35.6100  -20.8680   14.3100 C.3    54  THR54       0.1862
     18  C         36.4780  -21.8830   13.5910 C.2    54  THR54       0.2287
     19  O         37.6960  -21.7360   13.5450 O.2    54  THR54      -0.2866
     20  CB        35.8390  -19.4950   13.6580 C.3    54  THR54       0.1770
     21  OG1       35.4860  -18.4540   14.5820 O.3    54  THR54      -0.2211
     22  CG2       35.0190  -19.3620   12.3940 C.3    54  THR54       0.0375
     23  N         38.9870  -17.3880   20.2370 N.3    63  ILE63      -0.1245
     24  CA        39.1010  -16.0990   20.9020 C.3    63  ILE63       0.1561
     25  C         38.4350  -16.1280   22.2700 C.2    63  ILE63       0.2260
     26  O         37.4200  -16.8040   22.4690 O.2    63  ILE63      -0.2867
     27  CB        38.5270  -14.9380   20.0400 C.3    63  ILE63       0.0252
     28  CG1       37.0010  -15.0400   19.9240 C.3    63  ILE63       0.0019
     29  CG2       39.1890  -14.9150   18.6600 C.3    63  ILE63       0.0019
     30  CD1       36.3610  -13.8750   19.1870 C.3    63  ILE63       0.0001
     31  N         43.9120  -10.3880   18.9640 N.3    73  GLU73      -0.1231
     32  CA        43.1040  -11.2270   18.0810 C.3    73  GLU73       0.1699
     33  C         43.5950  -11.1040   16.6420 C.2    73  GLU73       0.2592
     34  O         44.6290  -10.4870   16.3820 O.2    73  GLU73      -0.2718
     35  CB        41.6320  -10.8100   18.1750 C.3    73  GLU73       0.0402
     36  CG        40.6730  -11.6020   17.3020 C.3    73  GLU73       0.1161
     37  CD        39.2970  -10.9420   17.1990 C.2    73  GLU73       0.3649
     38  OE1       38.3020  -11.6630   16.9690 O.co2  73  GLU73      -0.2457
     39  OE2       39.2130   -9.7030   17.3490 O.co2  73  GLU73      -0.2457
     40  N         42.8620  -11.7010   15.7110 N.am   74  GLN74      -0.1979
     41  CA        43.1550  -11.5420   14.2950 C.3    74  GLN74       0.1601
     42  C         41.9300  -11.0270   13.5460 C.2    74  GLN74       0.2287
     43  O         40.7910  -11.3360   13.9100 O.2    74  GLN74      -0.2864
     44  CB        43.6080  -12.8680   13.6860 C.3    74  GLN74       0.0394
     45  CG        44.8570  -13.4590   14.3080 C.3    74  GLN74       0.0908
     46  CD        45.2130  -14.8180   13.7140 C.2    74  GLN74       0.2608
     47  OE1       44.3330  -15.5950   13.3300 O.2    74  GLN74      -0.2717
     48  NE2       46.5090  -15.1100   13.6390 N.am   74  GLN74      -0.0878
     49  N         39.7290  -10.8310    9.8370 N.3    76  VAL76      -0.1245
     50  CA        39.2150  -11.9280    9.0360 C.3    76  VAL76       0.1561
     51  C         40.3060  -12.4830    8.1290 C.2    76  VAL76       0.2260
     52  O         40.4210  -13.6980    7.9520 O.2    76  VAL76      -0.2867
     53  CB        37.9990  -11.5090    8.1960 C.3    76  VAL76       0.0252
     54  CG1       37.3610  -12.7290    7.5450 C.3    76  VAL76       0.0019
     55  CG2       36.9920  -10.7940    9.0610 C.3    76  VAL76       0.0019
     56  N         33.2260   -6.4540   13.5120 N.3   109  TRP109     -0.1241
     57  CA        32.1630   -7.4310   13.3570 C.3   109  TRP109      0.1605
     58  C         31.0750   -7.2230   14.3940 C.2   109  TRP109      0.2264
     59  O         31.2570   -6.4750   15.3550 O.2   109  TRP109     -0.2867
     60  CB        32.7170   -8.8670   13.4280 C.3   109  TRP109      0.0550
     61  CG        33.5510   -9.1470   14.6430 C.ar  109  TRP109      0.0003
     62  CD1       34.8980   -8.9910   14.7620 C.ar  109  TRP109      0.0946
     63  CD2       33.0900   -9.6450   15.9040 C.ar  109  TRP109      0.0152
     64  NE1       35.3050   -9.3490   16.0220 N.ar  109  TRP109     -0.2442
     65  CE2       34.2130   -9.7560   16.7420 C.ar  109  TRP109      0.0810
     66  CE3       31.8370  -10.0010   16.4050 C.ar  109  TRP109      0.0012
     67  CZ2       34.1220  -10.2110   18.0600 C.ar  109  TRP109      0.0191
     68  CZ3       31.7460  -10.4490   17.7190 C.ar  109  TRP109      0.0001
     69  CH2       32.8830  -10.5520   18.5260 C.ar  109  TRP109      0.0015
     70  N         27.5880   -9.5000   16.4120 N.3   111  LEU111     -0.1245
     71  CA        26.9140  -10.7680   16.6440 C.3   111  LEU111      0.1561
     72  C         25.5320  -10.5250   17.2100 C.2   111  LEU111      0.2260
     73  O         25.3580   -9.7050   18.1080 O.2   111  LEU111     -0.2867
     74  CB        27.7170  -11.6330   17.6090 C.3   111  LEU111      0.0270
     75  CG        28.6630  -12.6630   17.0060 C.3   111  LEU111      0.0019
     76  CD1       29.2710  -13.4970   18.1150 C.3   111  LEU111      0.0001
     77  CD2       27.9340  -13.5510   16.0110 C.3   111  LEU111      0.0001
     78  N         25.6080  -12.7560   12.0420 N.3   121  GLU121     -0.1245
     79  CA        26.9170  -12.1540   12.1670 C.3   121  GLU121      0.1567
     80  C         27.1690  -11.2440   10.9890 C.2   121  GLU121      0.2260
     81  O         26.8930  -11.6070    9.8490 O.2   121  GLU121     -0.2867
     82  CB        28.0020  -13.2320   12.2100 C.3   121  GLU121      0.0388
     83  CG        29.4130  -12.6640   12.2700 C.3   121  GLU121      0.1160
     84  CD        30.4800  -13.6620   11.8600 C.2   121  GLU121      0.3649
     85  OE1       30.1300  -14.8070   11.4790 O.co2 121  GLU121     -0.2457
     86  OE2       31.6740  -13.2970   11.9200 O.co2 121  GLU121     -0.2457
     87  N         30.3110   -8.6440    9.2370 N.3   123  MET123     -0.1245
     88  CA        31.7090   -8.2730    9.2380 C.3   123  MET123      0.1570
     89  C         31.8930   -7.1290    8.2660 C.2   123  MET123      0.2261
     90  O         31.3250   -7.1350    7.1770 O.2   123  MET123     -0.2867
     91  CB        32.5820   -9.4580    8.8210 C.3   123  MET123      0.0387
     92  CG        32.5490  -10.6370    9.7870 C.3   123  MET123      0.0595
     93  SD        33.3960  -12.1030    9.1470 S.3   123  MET123     -0.1393
     94  CE        32.3870  -12.4790    7.7140 C.3   123  MET123      0.0692
     95  N         23.5550  -18.0050   10.9980 N.3   134  TYR134     -0.1241
     96  CA        23.8080  -19.3160   11.5910 C.3   134  TYR134      0.1605
     97  C         22.5520  -19.8970   12.2370 C.2   134  TYR134      0.2264
     98  O         21.6150  -19.1690   12.5620 O.2   134  TYR134     -0.2867
     99  CB        24.9140  -19.2240   12.6440 C.3   134  TYR134      0.0534
    100  CG        26.2550  -18.7840   12.1180 C.ar  134  TYR134     -0.0201
    101  CD1       26.5450  -17.4380   11.9440 C.ar  134  TYR134     -0.0009
    102  CD2       27.2510  -19.7100   11.8420 C.ar  134  TYR134     -0.0009
    103  CE1       27.7880  -17.0240   11.4840 C.ar  134  TYR134      0.0417
    104  CE2       28.4960  -19.3120   11.3830 C.ar  134  TYR134      0.0417
    105  CZ        28.7600  -17.9650   11.2040 C.ar  134  TYR134      0.1957
    106  OH        29.9980  -17.5580   10.7500 O.3   134  TYR134     -0.2866
@<TRIPOS>BOND
     1    90    89    2
     2    54    53    1
     3    94    93    1
     4    52    51    2
     5    51    50    1
     6    53    50    1
     7    53    55    1
     8    89    88    1
     9    91    88    1
    10    91    92    1
    11    50    49    1
    12    93    92    1
    13    87    88    1
    14    81    80    2
    15   106   105    1
    16    80    79    1
    17    95    96    1
    18   105   104   ar
    19   105   103   ar
    20   104   102   ar
    21    85    84   ar
    22   103   101   ar
    23    96    97    1
    24    96    99    1
    25   102   100   ar
    26    84    86   ar
    27    84    83    1
    28   101   100   ar
    29    78    79    1
    30   100    99    1
    31    79    82    1
    32    82    83    1
    33    97    98    2
    34    22    20    1
    35    47    46    2
    36    57    60    1
    37    57    56    1
    38    57    58    1
    39    60    61    1
    40    19    18    2
    41    42    43    2
    42    42    41    1
    43    18    17    1
    44     7     5    1
    45    48    46   am
    46    20    17    1
    47    20    21    1
    48    44    41    1
    49    44    45    1
    50    46    45    1
    51     1     2    1
    52    41    40    1
    53    17    16    1
    54    58    59    2
    55    61    62   ar
    56    61    63   ar
    57    62    64   ar
    58     5     2    1
    59     5     6    1
    60     2     3    1
    61    40    33   am
    62    63    66   ar
    63    63    65   ar
    64    77    75    1
    65    64    65   ar
    66    34    33    2
    67    66    68   ar
    68    70    71    1
    69     3     4    2
    70    33    32    1
    71    71    72    1
    72    71    74    1
    73    65    67   ar
    74    38    37   ar
    75    75    74    1
    76    75    76    1
    77    37    36    1
    78    37    39   ar
    79    72    73    2
    80    36    35    1
    81    68    69   ar
    82    67    69   ar
    83    32    35    1
    84    32    31    1
    85    14    12    1
    86    29    27    1
    87    30    28    1
    88    11    10    2
    89    10     9    1
    90    12     9    1
    91    12    13    1
    92    28    27    1
    93    27    24    1
    94    15    13    1
    95    23    24    1
    96     9     8    1
    97    24    25    1
    98    25    26    2
