@<TRIPOS>MOLECULE
tmp/3fesC00.pdb
 99 95 0 0 0
SMALL
GASTEIGER

@<TRIPOS>ATOM
      1  N         22.9310   65.3200   78.2480 N.3    25  HIS25      -0.1226
      2  CA        21.6780   64.7200   78.6820 C.3    25  HIS25       0.1752
      3  C         21.8170   64.2210   80.1390 C.2    25  HIS25       0.2596
      4  O         22.7360   63.4510   80.4660 O.2    25  HIS25      -0.2718
      5  CB        21.2630   63.5700   77.7260 C.3    25  HIS25       0.0759
      6  CG        21.0020   64.0110   76.3030 C.ar   25  HIS25       0.0818
      7  ND1       20.8050   63.1160   75.2650 N.ar   25  HIS25      -0.2268
      8  CD2       20.8920   65.2480   75.7530 C.ar   25  HIS25       0.1154
      9  CE1       20.5840   63.7750   74.1390 C.ar   25  HIS25       0.1986
     10  NE2       20.6390   65.0760   74.4040 N.ar   25  HIS25      -0.2212
     11  N         20.8860   64.6580   80.9800 N.am   26  ASN26      -0.1960
     12  CA        20.7840   64.3370   82.4040 C.3    26  ASN26       0.1819
     13  C         20.3290   62.9360   82.7560 C.2    26  ASN26       0.2621
     14  O         20.5300   62.4690   83.8660 O.2    26  ASN26      -0.2715
     15  CB        19.7120   65.2490   83.0210 C.3    26  ASN26       0.1195
     16  CG        20.2610   66.5360   83.5070 C.2    26  ASN26       0.2630
     17  OD1       21.4700   66.6810   83.6790 O.2    26  ASN26      -0.2716
     18  ND2       19.3820   67.5000   83.7470 N.am   26  ASN26      -0.0877
     19  N         19.6120   62.3240   81.8300 N.am   27  ILE27      -0.1977
     20  CA        18.9250   61.0800   82.1100 C.3    27  ILE27       0.1596
     21  C         19.3290   60.1260   80.9890 C.2    27  ILE27       0.2287
     22  O         19.2850   60.4890   79.8100 O.2    27  ILE27      -0.2864
     23  CB        17.3550   61.2760   82.1120 C.3    27  ILE27       0.0276
     24  CG1       16.9060   62.3360   83.1220 C.3    27  ILE27       0.0022
     25  CG2       16.5940   59.9270   82.3120 C.3    27  ILE27       0.0022
     26  CD1       17.0390   61.9340   84.5600 C.3    27  ILE27       0.0001
     27  N         18.2960   57.3760   78.8140 N.3    29  GLY29      -0.1210
     28  CA        17.0740   56.6860   78.3080 C.3    29  GLY29       0.1956
     29  C         17.3790   55.4540   77.4720 C.2    29  GLY29       0.2613
     30  O         18.5560   55.1060   77.2470 O.2    29  GLY29      -0.2717
     31  N         16.3260   54.7880   76.9930 N.am   30  SER30      -0.1938
     32  CA        16.4800   53.5830   76.2020 C.3    30  SER30       0.2055
     33  C         17.3290   53.8780   74.9580 C.2    30  SER30       0.2643
     34  O         18.0690   53.0200   74.5010 O.2    30  SER30      -0.2714
     35  CB        15.0720   53.0260   75.8110 C.3    30  SER30       0.2130
     36  OG        14.3700   53.9810   75.0350 O.3    30  SER30      -0.2179
     37  N         17.2570   55.1040   74.4420 N.am   31  GLU31      -0.1963
     38  CA        18.0140   55.4700   73.2330 C.3    31  GLU31       0.1733
     39  C         19.5380   55.5160   73.5120 C.2    31  GLU31       0.2616
     40  O         20.3490   55.1810   72.6440 O.2    31  GLU31      -0.2715
     41  CB        17.5270   56.8160   72.6230 C.3    31  GLU31       0.0429
     42  CG        17.8810   58.1260   73.4390 C.3    31  GLU31       0.1163
     43  CD        16.9530   58.4200   74.6340 C.2    31  GLU31       0.3649
     44  OE1       16.3390   57.5230   75.2310 O.co2  31  GLU31      -0.2457
     45  OE2       16.7710   59.6080   74.9550 O.co2  31  GLU31      -0.2457
     46  N         19.8960   55.9300   74.7250 N.am   32  HIS32      -0.1973
     47  CA        21.3210   55.9540   75.1330 C.3    32  HIS32       0.1656
     48  C         21.8010   54.5180   75.3530 C.2    32  HIS32       0.2291
     49  O         22.9340   54.2020   75.0370 O.2    32  HIS32      -0.2864
     50  CB        21.5180   56.7870   76.4140 C.3    32  HIS32       0.0771
     51  CG        21.0170   58.1890   76.2890 C.ar   32  HIS32       0.0820
     52  ND1       21.6640   59.1620   75.5450 N.ar   32  HIS32      -0.2267
     53  CD2       19.9120   58.7780   76.7950 C.ar   32  HIS32       0.1154
     54  CE1       20.9680   60.2880   75.5940 C.ar   32  HIS32       0.1986
     55  NE2       19.9150   60.0890   76.3640 N.ar   32  HIS32      -0.2212
     56  N         16.4530   65.2680   70.1710 N.3    66  GLU66      -0.1245
     57  CA        16.5320   65.7030   71.5870 C.3    66  GLU66       0.1567
     58  C         17.4600   66.8870   71.7930 C.2    66  GLU66       0.2260
     59  O         17.4880   67.4590   72.8880 O.2    66  GLU66      -0.2867
     60  CB        17.0250   64.5370   72.4850 C.3    66  GLU66       0.0388
     61  CG        16.1560   63.2560   72.3260 C.3    66  GLU66       0.1160
     62  CD        16.3200   62.2650   73.4320 C.2    66  GLU66       0.3649
     63  OE1       17.0390   61.2980   73.2160 O.co2  66  GLU66      -0.2457
     64  OE2       15.6740   62.4030   74.5030 O.co2  66  GLU66      -0.2457
     65  N         16.7110   56.5070   83.3030 N.3    77  SER77      -0.1217
     66  CA        15.2800   56.8310   83.2250 C.3    77  SER77       0.1889
     67  C         14.4800   55.6780   83.8580 C.2    77  SER77       0.2288
     68  O         14.9800   54.5580   83.9780 O.2    77  SER77      -0.2866
     69  CB        14.8610   57.0060   81.7570 C.3    77  SER77       0.2089
     70  OG        14.7560   55.7540   81.0680 O.3    77  SER77      -0.2183
     71  N         12.1250   53.9850   82.4130 N.3    79  ARG79      -0.1231
     72  CA        12.0610   52.8850   81.4300 C.3    79  ARG79       0.1694
     73  C         13.4010   52.1330   81.2560 C.2    79  ARG79       0.2592
     74  O         13.4200   50.9030   81.0380 O.2    79  ARG79      -0.2718
     75  CB        11.5660   53.4370   80.0860 C.3    79  ARG79       0.0321
     76  CG        11.5250   52.3890   79.0110 C.3    79  ARG79       0.0489
     77  CD        11.2740   53.0010   77.6600 C.3    79  ARG79       0.2205
     78  NE        10.1430   53.8970   77.6400 N.pl3  79  ARG79      -0.0865
     79  CZ         8.8790   53.5180   77.6540 C.cat  79  ARG79       0.5346
     80  NH1        8.5660   52.2380   77.7020 N.pl3  79  ARG79       0.1354
     81  NH2        7.9390   54.4220   77.6360 N.pl3  79  ARG79       0.1354
     82  N         14.5280   52.8480   81.3520 N.am   80  SER80      -0.1952
     83  CA        15.8240   52.1830   81.2950 C.3    80  SER80       0.1924
     84  C         15.9530   51.1980   82.4440 C.2    80  SER80       0.2314
     85  O         16.4850   50.0770   82.2760 O.2    80  SER80      -0.2863
     86  CB        17.0010   53.1870   81.3450 C.3    80  SER80       0.2116
     87  OG        17.1460   53.9160   80.1110 O.3    80  SER80      -0.2180
     88  N          9.8340   52.7330   74.2340 N.3   113  GLY113     -0.1210
     89  CA        10.6710   53.9730   74.4200 C.3   113  GLY113      0.1956
     90  C         11.1670   54.7160   73.1720 C.2   113  GLY113      0.2611
     91  O         10.8010   54.3990   72.0210 O.2   113  GLY113     -0.2717
     92  N         12.0250   55.7130   73.3870 N.am  114  ILE114     -0.1979
     93  CA        12.7090   56.3600   72.2530 C.3   114  ILE114      0.1595
     94  C         13.5210   55.3560   71.4060 C.2   114  ILE114      0.2287
     95  O         13.5720   55.4680   70.1890 O.2   114  ILE114     -0.2864
     96  CB        13.6390   57.5510   72.7120 C.3   114  ILE114      0.0276
     97  CG1       12.8560   58.6280   73.4870 C.3   114  ILE114      0.0022
     98  CG2       14.3730   58.2300   71.5180 C.3   114  ILE114      0.0022
     99  CD1       11.7700   59.3330   72.6970 C.3   114  ILE114      0.0001
@<TRIPOS>BOND
     1    56    57    1
     2    95    94    2
     3    94    93    1
     4    98    96    1
     5    57    58    1
     6    57    60    1
     7    58    59    2
     8    91    90    2
     9    93    96    1
    10    93    92    1
    11    61    60    1
    12    61    62    1
    13    41    38    1
    14    41    42    1
    15    40    39    2
    16    99    97    1
    17    96    97    1
    18    90    92   am
    19    90    89    1
    20    63    62   ar
    21    38    39    1
    22    38    37    1
    23    62    64   ar
    24    42    43    1
    25    39    46   am
    26     9    10   ar
    27     9     7   ar
    28    88    89    1
    29    10     8   ar
    30    37    33   am
    31    34    33    2
    32    43    45   ar
    33    43    44   ar
    34    46    47    1
    35    33    32    1
    36    36    35    1
    37    49    48    2
    38    47    48    1
    39    47    50    1
    40     7     6   ar
    41    52    54   ar
    42    52    51   ar
    43    54    55   ar
    44     8     6   ar
    45    35    32    1
    46    32    31    1
    47    51    50    1
    48    51    53   ar
    49     6     5    1
    50    55    53   ar
    51    31    29   am
    52    30    29    2
    53    29    28    1
    54    81    79    1
    55    78    79    2
    56    78    77    1
    57    79    80    1
    58    77    76    1
    59     5     2    1
    60     1     2    1
    61    28    27    1
    62     2     3    1
    63    76    75    1
    64    22    21    2
    65    75    72    1
    66    87    86    1
    67     3     4    2
    68     3    11   am
    69    11    12    1
    70    21    20    1
    71    74    73    2
    72    70    69    1
    73    73    82   am
    74    73    72    1
    75    83    86    1
    76    83    82    1
    77    83    84    1
    78    72    71    1
    79    69    66    1
    80    19    20    1
    81    19    13   am
    82    20    23    1
    83    23    25    1
    84    23    24    1
    85    85    84    2
    86    12    13    1
    87    12    15    1
    88    13    14    2
    89    15    16    1
    90    24    26    1
    91    66    65    1
    92    66    67    1
    93    16    17    2
    94    16    18   am
    95    67    68    2
