@<TRIPOS>MOLECULE
tmp/3ff0B00.pdb
 104 100 0 0 0
SMALL
GASTEIGER

@<TRIPOS>ATOM
      1  N         59.7640   40.8500   28.3040 N.3    40  GLY40      -0.1210
      2  CA        60.2340   42.2230   28.1540 C.3    40  GLY40       0.1956
      3  C         60.9600   42.5100   26.8590 C.2    40  GLY40       0.2611
      4  O         60.8970   41.7340   25.8710 O.2    40  GLY40      -0.2717
      5  N         61.6380   43.6540   26.8670 N.am   41  LEU41      -0.1979
      6  CA        62.1860   44.2800   25.6700 C.3    41  LEU41       0.1596
      7  C         63.7170   44.2770   25.7750 C.2    41  LEU41       0.2287
      8  O         64.2830   44.8040   26.7380 O.2    41  LEU41      -0.2864
      9  CB        61.6660   45.7000   25.5460 C.3    41  LEU41       0.0297
     10  CG        62.2210   46.5200   24.3570 C.3    41  LEU41       0.0022
     11  CD1       61.9090   45.8140   22.9860 C.3    41  LEU41       0.0001
     12  CD2       61.7080   48.0270   24.4530 C.3    41  LEU41       0.0001
     13  N         64.3560   45.7680   29.5120 N.3    50  ILE50      -0.1245
     14  CA        63.2500   46.0640   30.4030 C.3    50  ILE50       0.1561
     15  C         62.7090   44.6780   30.6960 C.2    50  ILE50       0.2260
     16  O         62.1510   44.0490   29.8260 O.2    50  ILE50      -0.2867
     17  CB        62.1650   46.9220   29.7540 C.3    50  ILE50       0.0252
     18  CG1       62.6790   48.3370   29.4550 C.3    50  ILE50       0.0019
     19  CG2       60.9060   46.9570   30.6720 C.3    50  ILE50       0.0019
     20  CD1       61.7600   49.1080   28.4850 C.3    50  ILE50       0.0001
     21  N         60.3500   42.0810   32.7640 N.3    52  ILE52      -0.1245
     22  CA        59.0830   41.9250   33.4460 C.3    52  ILE52       0.1561
     23  C         59.0540   40.5070   34.0690 C.2    52  ILE52       0.2260
     24  O         58.6660   39.5470   33.4130 O.2    52  ILE52      -0.2867
     25  CB        57.9110   42.0830   32.4550 C.3    52  ILE52       0.0252
     26  CG1       58.0080   43.4320   31.7090 C.3    52  ILE52       0.0019
     27  CG2       56.5720   41.9190   33.1870 C.3    52  ILE52       0.0019
     28  CD1       57.3450   43.4300   30.3540 C.3    52  ILE52       0.0001
     29  N         51.7160   44.3720   33.9610 N.3    61  HIS61      -0.1241
     30  CA        52.2190   44.9960   32.7520 C.3    61  HIS61       0.1621
     31  C         51.2100   44.9680   31.6110 C.2    61  HIS61       0.2264
     32  O         51.1830   45.8720   30.8050 O.2    61  HIS61      -0.2867
     33  CB        53.4890   44.3300   32.2770 C.3    61  HIS61       0.0745
     34  CG        54.1380   45.0380   31.1390 C.ar   61  HIS61       0.0817
     35  ND1       54.0190   44.6130   29.8310 N.ar   61  HIS61      -0.2268
     36  CD2       54.8850   46.1700   31.1110 C.ar   61  HIS61       0.1154
     37  CE1       54.6930   45.4410   29.0510 C.ar   61  HIS61       0.1986
     38  NE2       55.2320   46.3870   29.8050 N.ar   61  HIS61      -0.2212
     39  N         49.0310   48.0520   31.7310 N.3    64  TRP64      -0.1241
     40  CA        49.7680   49.1870   31.1650 C.3    64  TRP64       0.1605
     41  C         49.8620   49.0720   29.6180 C.2    64  TRP64       0.2264
     42  O         49.7270   50.0550   28.8890 O.2    64  TRP64      -0.2867
     43  CB        51.1740   49.2400   31.7680 C.3    64  TRP64       0.0550
     44  CG        52.0470   50.3160   31.1340 C.ar   64  TRP64       0.0003
     45  CD1       52.1020   51.6280   31.5050 C.ar   64  TRP64       0.0946
     46  CD2       52.9490   50.1780   30.0120 C.ar   64  TRP64       0.0152
     47  NE1       52.9960   52.3040   30.7070 N.ar   64  TRP64      -0.2442
     48  CE2       53.5210   51.4460   29.7790 C.ar   64  TRP64       0.0810
     49  CE3       53.3040   49.1120   29.1710 C.ar   64  TRP64       0.0012
     50  CZ2       54.4330   51.6810   28.7450 C.ar   64  TRP64       0.0191
     51  CZ3       54.2230   49.3300   28.1580 C.ar   64  TRP64       0.0001
     52  CH2       54.7910   50.6120   27.9640 C.ar   64  TRP64       0.0015
     53  N         49.1010   50.7740   24.2660 N.3    69  PHE69      -0.1241
     54  CA        49.0130   50.1850   22.9350 C.3    69  PHE69       0.1605
     55  C         47.6420   49.4910   22.8540 C.2    69  PHE69       0.2264
     56  O         47.5370   48.2770   22.8520 O.2    69  PHE69      -0.2867
     57  CB        50.1310   49.1680   22.6770 C.3    69  PHE69       0.0534
     58  CG        51.5240   49.6760   22.9290 C.ar   69  PHE69      -0.0203
     59  CD1       52.2110   50.3810   21.9450 C.ar   69  PHE69      -0.0042
     60  CD2       52.1500   49.4420   24.1480 C.ar   69  PHE69      -0.0042
     61  CE1       53.5410   50.8010   22.1690 C.ar   69  PHE69      -0.0003
     62  CE2       53.4760   49.8320   24.3700 C.ar   69  PHE69      -0.0003
     63  CZ        54.1620   50.5230   23.3890 C.ar   69  PHE69      -0.0000
     64  N         51.7650   57.1630   24.8250 N.3   100  PHE100     -0.1241
     65  CA        52.6880   57.3280   25.9580 C.3   100  PHE100      0.1605
     66  C         52.4230   58.7100   26.5600 C.2   100  PHE100      0.2264
     67  O         52.4310   59.7290   25.8480 O.2   100  PHE100     -0.2867
     68  CB        54.1650   57.2800   25.5350 C.3   100  PHE100      0.0534
     69  CG        54.7490   55.8950   25.4140 C.ar  100  PHE100     -0.0203
     70  CD1       53.9460   54.7700   25.3150 C.ar  100  PHE100     -0.0042
     71  CD2       56.1280   55.7420   25.3250 C.ar  100  PHE100     -0.0042
     72  CE1       54.4940   53.5030   25.1770 C.ar  100  PHE100     -0.0003
     73  CE2       56.6950   54.4780   25.1670 C.ar  100  PHE100     -0.0003
     74  CZ        55.8760   53.3480   25.0990 C.ar  100  PHE100     -0.0000
     75  N         52.1890   53.4280   15.5930 N.3   108  TYR108     -0.1241
     76  CA        53.4310   52.7110   15.7730 C.3   108  TYR108      0.1605
     77  C         53.4340   51.4280   14.9090 C.2   108  TYR108      0.2264
     78  O         52.5120   50.6000   14.9830 O.2   108  TYR108     -0.2867
     79  CB        53.5780   52.3670   17.2450 C.3   108  TYR108      0.0534
     80  CG        54.8140   51.5580   17.6620 C.ar  108  TYR108     -0.0201
     81  CD1       56.0510   51.7360   17.0380 C.ar  108  TYR108     -0.0009
     82  CD2       54.7460   50.6810   18.7340 C.ar  108  TYR108     -0.0009
     83  CE1       57.1760   51.0270   17.4660 C.ar  108  TYR108      0.0417
     84  CE2       55.8470   49.9610   19.1620 C.ar  108  TYR108      0.0417
     85  CZ        57.0760   50.1380   18.5190 C.ar  108  TYR108      0.1957
     86  OH        58.1640   49.4210   18.9270 O.3   108  TYR108     -0.2866
     87  N         61.6910   40.3600   23.3710 N.3   128  GLU128     -0.1245
     88  CA        61.3690   41.1360   22.1570 C.3   128  GLU128      0.1567
     89  C         62.5940   41.9300   21.6930 C.2   128  GLU128      0.2260
     90  O         63.2540   42.6340   22.4970 O.2   128  GLU128     -0.2867
     91  CB        60.2220   42.1610   22.3740 C.3   128  GLU128      0.0388
     92  CG        58.8810   41.6370   22.8410 C.3   128  GLU128      0.1160
     93  CD        57.7470   42.6960   22.7740 C.2   128  GLU128      0.3649
     94  OE1       57.9960   43.8230   22.2600 O.co2 128  GLU128     -0.2457
     95  OE2       56.5940   42.3990   23.2480 O.co2 128  GLU128     -0.2457
     96  N         60.0500   53.2150   17.0880 N.3   134  GLN134     -0.1245
     97  CA        59.3440   53.7530   18.2410 C.3   134  GLN134      0.1566
     98  C         59.5620   55.2470   18.4190 C.2   134  GLN134      0.2260
     99  O         58.6150   55.9960   18.7450 O.2   134  GLN134     -0.2867
    100  CB        59.7230   53.0350   19.5260 C.3   134  GLN134      0.0367
    101  CG        58.7010   53.3260   20.6310 C.3   134  GLN134      0.0905
    102  CD        58.8500   52.4140   21.7950 C.2   134  GLN134      0.2608
    103  OE1       59.9790   52.1470   22.2490 O.2   134  GLN134     -0.2717
    104  NE2       57.7270   51.8630   22.2570 N.am  134  GLN134     -0.0878
@<TRIPOS>BOND
     1    77    78    2
     2    77    76    1
     3    75    76    1
     4    76    79    1
     5    81    83   ar
     6    81    80   ar
     7    96    97    1
     8    79    80    1
     9    83    85   ar
    10    80    82   ar
    11    97    98    1
    12    97   100    1
    13    98    99    2
    14    85    86    1
    15    85    84   ar
    16    82    84   ar
    17   100   101    1
    18   101   102    1
    19    89    88    1
    20    89    90    2
    21   102   103    2
    22   102   104   am
    23    59    61   ar
    24    59    58   ar
    25    88    91    1
    26    88    87    1
    27    61    63   ar
    28    94    93   ar
    29    91    92    1
    30    57    58    1
    31    57    54    1
    32    93    92    1
    33    93    95   ar
    34    56    55    2
    35    55    54    1
    36    58    60   ar
    37    54    53    1
    38    11    10    1
    39    63    62   ar
    40    60    62   ar
    41    10    12    1
    42    10     9    1
    43    64    65    1
    44    74    73   ar
    45    74    72   ar
    46    73    71   ar
    47    72    70   ar
    48    70    69   ar
    49    71    69   ar
    50    69    68    1
    51    68    65    1
    52     9     6    1
    53     6     7    1
    54     6     5    1
    55     7     8    2
    56    67    66    2
    57     4     3    2
    58    65    66    1
    59     3     5   am
    60     3     2    1
    61    52    51   ar
    62    52    50   ar
    63     2     1    1
    64    51    49   ar
    65    20    18    1
    66    50    48   ar
    67    42    41    2
    68    37    38   ar
    69    37    35   ar
    70    49    46   ar
    71    18    17    1
    72    13    14    1
    73    41    40    1
    74    17    14    1
    75    17    19    1
    76    48    46   ar
    77    48    47   ar
    78    38    36   ar
    79    16    15    2
    80    35    34   ar
    81    46    44   ar
    82    28    26    1
    83    14    15    1
    84    47    45   ar
    85    32    31    2
    86    36    34   ar
    87    44    45   ar
    88    44    43    1
    89    34    33    1
    90    40    39    1
    91    40    43    1
    92    31    30    1
    93    26    25    1
    94    33    30    1
    95    25    27    1
    96    25    22    1
    97    30    29    1
    98    21    22    1
    99    24    23    2
   100    22    23    1
