@<TRIPOS>MOLECULE
tmp/3ff3A03.pdb
 133 128 0 0 0
SMALL
GASTEIGER

@<TRIPOS>ATOM
      1  N         23.0070   37.2120   12.5100 N.3   150  PHE150     -0.1227
      2  CA        21.9390   37.1330   13.4960 C.3   150  PHE150      0.1736
      3  C         21.6470   35.7040   14.0130 C.2   150  PHE150      0.2595
      4  O         21.5160   34.7300   13.2260 O.2   150  PHE150     -0.2718
      5  CB        20.6800   37.7630   12.8930 C.3   150  PHE150      0.0547
      6  CG        19.4840   37.6720   13.8160 C.ar  150  PHE150     -0.0202
      7  CD1       19.4660   38.3220   15.0750 C.ar  150  PHE150     -0.0042
      8  CD2       18.3570   37.0000   13.3930 C.ar  150  PHE150     -0.0042
      9  CE1       18.2930   38.2300   15.9010 C.ar  150  PHE150     -0.0003
     10  CE2       17.1930   36.8990   14.2280 C.ar  150  PHE150     -0.0003
     11  CZ        17.2070   37.5130   15.4590 C.ar  150  PHE150     -0.0000
     12  N         21.5160   35.5390   15.3280 N.am  151  ARG151     -0.1980
     13  CA        21.4010   34.1770   15.8850 C.3   151  ARG151      0.1597
     14  C         20.1160   33.4780   15.4690 C.2   151  ARG151      0.2287
     15  O         20.0630   32.2540   15.3610 O.2   151  ARG151     -0.2864
     16  CB        21.4790   34.2540   17.4050 C.3   151  ARG151      0.0334
     17  CG        20.2620   35.0110   18.0300 C.3   151  ARG151      0.0492
     18  CD        20.4230   35.1750   19.5870 C.3   151  ARG151      0.2205
     19  NE        21.2650   36.3370   19.9180 N.pl3 151  ARG151     -0.0865
     20  CZ        20.8670   37.5950   19.7110 C.cat 151  ARG151      0.5346
     21  NH1       19.6230   37.8580   19.2020 N.pl3 151  ARG151      0.1354
     22  NH2       21.7010   38.6120   20.0310 N.pl3 151  ARG151      0.1354
     23  N         16.8870   36.9850   21.3380 N.3   198  ASN198     -0.1240
     24  CA        15.8170   36.1980   20.7750 C.3   198  ASN198      0.1653
     25  C         16.3100   35.4210   19.5610 C.2   198  ASN198      0.2266
     26  O         17.2600   35.8210   18.8510 O.2   198  ASN198     -0.2867
     27  CB        14.5800   37.0940   20.4520 C.3   198  ASN198      0.1155
     28  CG        14.6810   37.7370   19.0940 C.2   198  ASN198      0.2627
     29  OD1       14.4640   37.0710   18.0600 O.2   198  ASN198     -0.2716
     30  ND2       14.9440   39.0750   19.0810 N.am  198  ASN198     -0.0877
     31  N         14.8470   52.2230   21.1240 N.3   317  HIS317     -0.1241
     32  CA        14.3150   51.3610   22.1540 C.3   317  HIS317      0.1621
     33  C         14.9380   51.6360   23.5160 C.2   317  HIS317      0.2264
     34  O         16.0770   52.1340   23.6290 O.2   317  HIS317     -0.2867
     35  CB        14.3330   49.8490   21.7820 C.3   317  HIS317      0.0745
     36  CG        15.6690   49.1630   21.8670 C.ar  317  HIS317      0.0817
     37  ND1       15.9930   48.2530   22.8490 N.ar  317  HIS317     -0.2268
     38  CD2       16.7240   49.1660   21.0010 C.ar  317  HIS317      0.1154
     39  CE1       17.1860   47.7220   22.5930 C.ar  317  HIS317      0.1986
     40  NE2       17.6440   48.2490   21.4700 N.ar  317  HIS317     -0.2212
     41  N         23.7330   48.8440   24.8310 N.3   327  ASP327     -0.1239
     42  CA        22.5530   48.4930   24.0490 C.3   327  ASP327      0.1674
     43  C         21.3380   48.3180   24.9910 C.2   327  ASP327      0.2266
     44  O         21.2650   47.3020   25.7130 O.2   327  ASP327     -0.2867
     45  CB        22.8300   47.1400   23.3320 C.3   327  ASP327      0.1410
     46  CG        21.6310   46.6530   22.6050 C.2   327  ASP327      0.3668
     47  OD1       20.6760   47.4930   22.3850 O.co2 327  ASP327     -0.2456
     48  OD2       21.6070   45.4510   22.3310 O.co2 327  ASP327     -0.2456
     49  N         12.0740   45.8220   21.9100 N.3   364  GLU364     -0.1231
     50  CA        12.8980   45.6550   20.6850 C.3   364  GLU364      0.1699
     51  C         13.6780   44.3340   20.7600 C.2   364  GLU364      0.2592
     52  O         13.8700   43.6430   19.7410 O.2   364  GLU364     -0.2718
     53  CB        13.8820   46.8480   20.5860 C.3   364  GLU364      0.0402
     54  CG        14.7030   46.8190   19.2670 C.3   364  GLU364      0.1161
     55  CD        16.0130   46.0150   19.3170 C.2   364  GLU364      0.3649
     56  OE1       16.3930   45.4640   20.3620 O.co2 364  GLU364     -0.2457
     57  OE2       16.6890   45.9970   18.2490 O.co2 364  GLU364     -0.2457
     58  N         14.0900   43.9670   21.9660 N.am  365  GLU365     -0.1979
     59  CA        14.9920   42.8010   22.0940 C.3   365  GLU365      0.1602
     60  C         14.2000   41.5190   21.8130 C.2   365  GLU365      0.2287
     61  O         14.8300   40.4620   21.5950 O.2   365  GLU365     -0.2864
     62  CB        15.5250   42.6740   23.5010 C.3   365  GLU365      0.0415
     63  CG        16.5290   43.7980   23.8390 C.3   365  GLU365      0.1163
     64  CD        17.8130   43.8010   23.0470 C.2   365  GLU365      0.3649
     65  OE1       18.0200   42.9700   22.1250 O.co2 365  GLU365     -0.2457
     66  OE2       18.6970   44.6320   23.4390 O.co2 365  GLU365     -0.2457
     67  N         12.1230   41.2020   19.1960 N.3   367  GLY367     -0.1210
     68  CA        11.7540   41.1390   17.7710 C.3   367  GLY367      0.1956
     69  C         11.2270   42.4690   17.2450 C.2   367  GLY367      0.2611
     70  O         10.3890   42.4720   16.3340 O.2   367  GLY367     -0.2717
     71  N         11.7450   43.6090   17.7620 N.am  368  LEU368     -0.1979
     72  CA        11.3090   44.9290   17.2440 C.3   368  LEU368      0.1596
     73  C          9.8170   45.1100   17.5260 C.2   368  LEU368      0.2287
     74  O          9.0770   45.7300   16.7310 O.2   368  LEU368     -0.2864
     75  CB        11.5960   45.0870   15.7320 C.3   368  LEU368      0.0297
     76  CG        12.9560   44.5000   15.2700 C.3   368  LEU368      0.0022
     77  CD1       13.1020   44.7560   13.7690 C.3   368  LEU368      0.0001
     78  CD2       14.1200   45.1310   16.0310 C.3   368  LEU368      0.0001
     79  N         19.1630   53.9470   18.8290 N.3   393  ASP393     -0.1239
     80  CA        19.6490   52.7450   19.5380 C.3   393  ASP393      0.1674
     81  C         21.0750   53.0760   20.0370 C.2   393  ASP393      0.2266
     82  O         21.4850   54.2570   20.0940 O.2   393  ASP393     -0.2867
     83  CB        19.5970   51.5110   18.5550 C.3   393  ASP393      0.1410
     84  CG        19.5920   50.1030   19.2600 C.2   393  ASP393      0.3668
     85  OD1       20.1270   49.8870   20.3700 O.co2 393  ASP393     -0.2456
     86  OD2       18.9670   49.1760   18.6450 O.co2 393  ASP393     -0.2456
     87  N         17.5350   44.3730   12.2540 N.3   458  GLY458     -0.1225
     88  CA        17.9820   44.1880   13.5980 C.3   458  GLY458      0.1811
     89  C         17.8240   45.3670   14.5210 C.2   458  GLY458      0.2280
     90  O         18.4230   45.3560   15.6010 O.2   458  GLY458     -0.2866
     91  N         28.5510   42.3040   24.6190 N.3   492  TYR492     -0.1227
     92  CA        27.1990   42.4580   24.0330 C.3   492  TYR492      0.1736
     93  C         26.2020   41.4370   24.6170 C.2   492  TYR492      0.2595
     94  O         26.4260   40.2260   24.5780 O.2   492  TYR492     -0.2718
     95  CB        27.3340   42.2290   22.5220 C.3   492  TYR492      0.0548
     96  CG        26.0680   42.1030   21.7390 C.ar  492  TYR492     -0.0200
     97  CD1       25.1840   43.2010   21.6150 C.ar  492  TYR492     -0.0009
     98  CD2       25.7170   40.9040   21.1320 C.ar  492  TYR492     -0.0009
     99  CE1       24.0150   43.0710   20.9160 C.ar  492  TYR492      0.0417
    100  CE2       24.5530   40.7940   20.4060 C.ar  492  TYR492      0.0417
    101  CZ        23.6840   41.8740   20.3020 C.ar  492  TYR492      0.1957
    102  OH        22.5170   41.7440   19.5500 O.3   492  TYR492     -0.2866
    103  N         25.0750   41.9900   25.1080 N.am  493  HIS493     -0.1975
    104  CA        23.9540   41.1680   25.5390 C.3   493  HIS493      0.1656
    105  C         24.2870   40.2990   26.7530 C.2   493  HIS493      0.2291
    106  O         23.6110   39.2770   27.0210 O.2   493  HIS493     -0.2864
    107  CB        23.3740   40.3520   24.3820 C.3   493  HIS493      0.0771
    108  CG        22.3580   41.0820   23.5430 C.ar  493  HIS493      0.0820
    109  ND1       21.4830   40.3920   22.7250 N.ar  493  HIS493     -0.2267
    110  CD2       22.0550   42.4130   23.3950 C.ar  493  HIS493      0.1154
    111  CE1       20.7030   41.2750   22.0890 C.ar  493  HIS493      0.1986
    112  NE2       21.0370   42.5100   22.4770 N.ar  493  HIS493     -0.2212
    113  N         19.8640   38.6020    9.1150 N.3   639  LYS639     -0.1231
    114  CA        18.9530   39.7130    9.2580 C.3   639  LYS639      0.1693
    115  C         19.6820   41.0530    9.4380 C.2   639  LYS639      0.2592
    116  O         19.1570   42.1170    9.1140 O.2   639  LYS639     -0.2718
    117  CB        18.0770   39.3980   10.4820 C.3   639  LYS639      0.0285
    118  CG        16.9810   40.3610   10.6700 C.3   639  LYS639      0.0035
    119  CD        16.1080   39.9510   11.8620 C.3   639  LYS639      0.0206
    120  CE        14.9200   40.7540   11.8110 C.3   639  LYS639      0.1093
    121  NZ        14.0840   40.3390   12.9680 N.3   639  LYS639     -0.1314
    122  N         20.8630   41.0250   10.0560 N.am  640  TYR640     -0.1976
    123  CA        21.5900   42.2910   10.3210 C.3   640  TYR640      0.1639
    124  C         22.0780   42.9870    9.0660 C.2   640  TYR640      0.2290
    125  O         22.2540   44.2210    9.0770 O.2   640  TYR640     -0.2864
    126  CB        22.8010   42.0450   11.2240 C.3   640  TYR640      0.0560
    127  CG        22.4980   41.5670   12.6120 C.ar  640  TYR640     -0.0198
    128  CD1       21.4260   42.1110   13.3620 C.ar  640  TYR640     -0.0009
    129  CD2       23.3730   40.6780   13.2400 C.ar  640  TYR640     -0.0009
    130  CE1       21.2410   41.7540   14.6880 C.ar  640  TYR640      0.0417
    131  CE2       23.1580   40.3040   14.5480 C.ar  640  TYR640      0.0417
    132  CZ        22.0630   40.8360   15.2320 C.ar  640  TYR640      0.1957
    133  OH        21.8730   40.4490   16.5740 O.3   640  TYR640     -0.2866
@<TRIPOS>BOND
     1   124   125    2
     2   124   123    1
     3   116   115    2
     4   113   114    1
     5   114   115    1
     6   114   117    1
     7   115   122   am
     8   122   123    1
     9   123   126    1
    10   117   118    1
    11   118   119    1
    12   126   127    1
    13   120   119    1
    14   120   121    1
    15    87    88    1
    16     1     2    1
    17   127   129   ar
    18   127   128   ar
    19     5     2    1
    20     5     6    1
    21     4     3    2
    22   129   131   ar
    23   128   130   ar
    24     8     6   ar
    25     8    10   ar
    26     2     3    1
    27    88    89    1
    28    77    76    1
    29     6     7   ar
    30     3    12   am
    31    10    11   ar
    32    89    90    2
    33   131   132   ar
    34   130   132   ar
    35     7     9   ar
    36   132   133    1
    37    76    75    1
    38    76    78    1
    39    12    13    1
    40    15    14    2
    41    11     9   ar
    42    14    13    1
    43    75    72    1
    44    13    16    1
    45    70    69    2
    46    74    73    2
    47    72    73    1
    48    72    71    1
    49    69    71   am
    50    69    68    1
    51    16    17    1
    52    68    67    1
    53    17    18    1
    54    29    28    2
    55    57    55   ar
    56    83    84    1
    57    83    80    1
    58    86    84   ar
    59    79    80    1
    60    26    25    2
    61    30    28   am
    62    28    27    1
    63    21    20    1
    64    84    85   ar
    65    54    55    1
    66    54    53    1
    67    55    56   ar
    68    80    81    1
    69   102   101    1
    70    25    24    1
    71    18    19    1
    72    20    19    2
    73    20    22    1
    74    52    51    2
    75    81    82    2
    76   101   100   ar
    77   101    99   ar
    78   100    98   ar
    79    27    24    1
    80    53    50    1
    81    50    51    1
    82    50    49    1
    83    51    58   am
    84    24    23    1
    85    99    97   ar
    86    38    40   ar
    87    38    36   ar
    88    31    32    1
    89    98    96   ar
    90    40    39   ar
    91    61    60    2
    92    97    96   ar
    93    96    95    1
    94    35    36    1
    95    35    32    1
    96    60    59    1
    97    36    37   ar
    98    58    59    1
    99   111   112   ar
   100   111   109   ar
   101    59    62    1
   102    65    64   ar
   103    32    33    1
   104    48    46   ar
   105    47    46   ar
   106   112   110   ar
   107    95    92    1
   108    39    37   ar
   109    46    45    1
   110   109   108   ar
   111    64    66   ar
   112    64    63    1
   113    45    42    1
   114   110   108   ar
   115    62    63    1
   116    33    34    2
   117   108   107    1
   118    92    93    1
   119    92    91    1
   120    42    41    1
   121    42    43    1
   122   107   104    1
   123    94    93    2
   124    93   103   am
   125    43    44    2
   126   103   104    1
   127   104   105    1
   128   105   106    2
