@<TRIPOS>MOLECULE
tmp/3ff6A00.pdb
 136 129 0 0 0
SMALL
GASTEIGER

@<TRIPOS>ATOM
      1  N          8.2190   11.5800   28.0030 N.3   431  ALA431     -0.1245
      2  CA         7.0840   12.2450   28.6150 C.3   431  ALA431      0.1562
      3  C          5.7890   11.7120   28.0380 C.2   431  ALA431      0.2260
      4  O          5.7100   11.3920   26.8480 O.2   431  ALA431     -0.2867
      5  CB         7.1750   13.7430   28.3870 C.3   431  ALA431      0.0290
      6  N          3.1990   12.9850   24.4780 N.3   434  VAL434     -0.1245
      7  CA         4.1430   13.5810   23.5410 C.3   434  VAL434      0.1561
      8  C          4.4370   12.5970   22.4050 C.2   434  VAL434      0.2260
      9  O          4.5950   11.4030   22.6370 O.2   434  VAL434     -0.2867
     10  CB         5.4460   14.0160   24.2720 C.3   434  VAL434      0.0252
     11  CG1        6.5820   14.2710   23.2880 C.3   434  VAL434      0.0019
     12  CG2        5.1940   15.2560   25.1150 C.3   434  VAL434      0.0019
     13  N          7.1860   11.3240   20.0760 N.3   436  PHE436     -0.1241
     14  CA         8.6110   11.2710   19.8120 C.3   436  PHE436      0.1605
     15  C          8.8240   10.6730   18.4320 C.2   436  PHE436      0.2264
     16  O          7.8640   10.2390   17.7920 O.2   436  PHE436     -0.2867
     17  CB         9.2950   10.4720   20.9100 C.3   436  PHE436      0.0534
     18  CG         9.2410   11.1560   22.2340 C.ar  436  PHE436     -0.0203
     19  CD1        8.3730   10.7280   23.2220 C.ar  436  PHE436     -0.0042
     20  CD2       10.0260   12.2770   22.4740 C.ar  436  PHE436     -0.0042
     21  CE1        8.3150   11.3860   24.4450 C.ar  436  PHE436     -0.0003
     22  CE2        9.9730   12.9390   23.6880 C.ar  436  PHE436     -0.0003
     23  CZ         9.1140   12.4950   24.6730 C.ar  436  PHE436     -0.0000
     24  N          0.0100   16.5790   23.6740 N.3   464  ARG464     -0.1231
     25  CA         0.3580   17.9960   23.8540 C.3   464  ARG464      0.1694
     26  C          1.1940   18.5830   22.7220 C.2   464  ARG464      0.2593
     27  O          1.4930   19.7790   22.7460 O.2   464  ARG464     -0.2718
     28  CB         1.1510   18.1890   25.1360 C.3   464  ARG464      0.0321
     29  CG         0.3770   18.0010   26.3970 C.3   464  ARG464      0.0489
     30  CD         1.2930   18.3200   27.5340 C.3   464  ARG464      0.2205
     31  NE         0.6360   18.2050   28.8230 N.pl3 464  ARG464     -0.0865
     32  CZ         1.0990   18.7280   29.9610 C.cat 464  ARG464      0.5346
     33  NH1        2.2340   19.4390   29.9870 N.pl3 464  ARG464      0.1354
     34  NH2        0.4130   18.5460   31.0920 N.pl3 464  ARG464      0.1354
     35  N          1.5920   17.7460   21.7600 N.am  465  GLY465     -0.1942
     36  CA         2.4410   18.1690   20.6370 C.3   465  GLY465      0.2014
     37  C          3.5820   17.2000   20.3610 C.2   465  GLY465      0.2639
     38  O          3.7050   16.1630   21.0040 O.2   465  GLY465     -0.2714
     39  N          4.4220   17.5440   19.3960 N.am  466  PHE466     -0.1959
     40  CA         5.6180   16.7660   19.1200 C.3   466  PHE466      0.1771
     41  C          6.7670   17.2650   19.9920 C.2   466  PHE466      0.2620
     42  O          6.8510   18.4460   20.3310 O.2   466  PHE466     -0.2715
     43  CB         6.0040   16.8610   17.6400 C.3   466  PHE466      0.0574
     44  CG         5.0720   16.1330   16.7160 C.ar  466  PHE466     -0.0200
     45  CD1        3.9590   16.7660   16.1850 C.ar  466  PHE466     -0.0042
     46  CD2        5.3110   14.8130   16.3700 C.ar  466  PHE466     -0.0042
     47  CE1        3.0880   16.0810   15.3260 C.ar  466  PHE466     -0.0003
     48  CE2        4.4570   14.1270   15.5130 C.ar  466  PHE466     -0.0003
     49  CZ         3.3440   14.7620   14.9900 C.ar  466  PHE466     -0.0000
     50  N          7.6460   16.3450   20.3650 N.am  467  SER467     -0.1936
     51  CA         8.8990   16.6990   21.0130 C.3   467  SER467      0.2055
     52  C          9.6930   17.5300   20.0400 C.2   467  SER467      0.2644
     53  O          9.7780   17.1780   18.8710 O.2   467  SER467     -0.2714
     54  CB         9.6980   15.4460   21.3560 C.3   467  SER467      0.2130
     55  OG        11.0120   15.7920   21.7530 O.3   467  SER467     -0.2179
     56  N         10.2880   18.6170   20.5090 N.am  468  GLY468     -0.1939
     57  CA        10.9260   19.5550   19.5930 C.3   468  GLY468      0.2014
     58  C         12.2450   20.1300   20.0380 C.2   468  GLY468      0.2639
     59  O         12.6160   21.2230   19.6180 O.2   468  GLY468     -0.2714
     60  N         12.9550   19.3970   20.8820 N.am  469  GLY469     -0.1954
     61  CA        14.2850   19.8010   21.3050 C.3   469  GLY469      0.1869
     62  C         15.2750   19.3050   20.2790 C.2   469  GLY469      0.2309
     63  O         14.8920   18.6380   19.3170 O.2   469  GLY469     -0.2863
     64  N         15.7220   15.1980   19.4540 N.3   472  ASP472     -0.1239
     65  CA        14.5700   14.6230   18.7650 C.3   472  ASP472      0.1674
     66  C         14.3770   15.2210   17.3580 C.2   472  ASP472      0.2266
     67  O         13.9570   14.5200   16.4380 O.2   472  ASP472     -0.2867
     68  CB        13.3060   14.7220   19.6330 C.3   472  ASP472      0.1410
     69  CG        13.3300   13.7350   20.8100 C.2   472  ASP472      0.3668
     70  OD1       13.5950   12.5280   20.5850 O.co2 472  ASP472     -0.2456
     71  OD2       13.0940   14.1610   21.9650 O.co2 472  ASP472     -0.2456
     72  N         -3.1630   19.4650   21.5640 N.3   506  ARG506     -0.1245
     73  CA        -2.6000   20.8040   21.4600 C.3   506  ARG506      0.1563
     74  C         -1.6960   20.9360   20.2370 C.2   506  ARG506      0.2260
     75  O         -1.0720   19.9690   19.8010 O.2   506  ARG506     -0.2867
     76  CB        -1.7970   21.1270   22.7200 C.3   506  ARG506      0.0307
     77  CG        -2.5620   21.0010   24.0390 C.3   506  ARG506      0.0489
     78  CD        -2.9370   22.3530   24.6010 C.3   506  ARG506      0.2205
     79  NE        -3.7710   22.2290   25.7960 N.pl3 506  ARG506     -0.0865
     80  CZ        -4.5580   23.1910   26.2790 C.cat 506  ARG506      0.5346
     81  NH1       -4.6380   24.3760   25.6850 N.pl3 506  ARG506      0.1354
     82  NH2       -5.2780   22.9750   27.3680 N.pl3 506  ARG506      0.1354
     83  N         -3.9930   25.8090   20.2640 N.3   534  VAL534     -0.1231
     84  CA        -2.6750   25.9530   19.6460 C.3   534  VAL534      0.1692
     85  C         -1.5960   25.7100   20.7060 C.2   534  VAL534      0.2592
     86  O         -0.8240   24.7530   20.6050 O.2   534  VAL534     -0.2718
     87  CB        -2.4840   27.3390   18.9920 C.3   534  VAL534      0.0266
     88  CG1       -1.1720   27.3960   18.2640 C.3   534  VAL534      0.0020
     89  CG2       -3.6300   27.6500   18.0370 C.3   534  VAL534      0.0020
     90  N         -1.5670   26.5540   21.7370 N.am  535  LEU535     -0.1966
     91  CA        -0.6170   26.4010   22.8450 C.3   535  LEU535      0.1728
     92  C         -1.3280   25.9320   24.1130 C.2   535  LEU535      0.2616
     93  O         -2.5430   25.7910   24.1440 O.2   535  LEU535     -0.2715
     94  CB         0.0870   27.7320   23.1180 C.3   535  LEU535      0.0311
     95  CG         1.0870   28.2250   22.0770 C.3   535  LEU535      0.0022
     96  CD1        1.5400   29.6170   22.4430 C.3   535  LEU535      0.0001
     97  CD2        2.2680   27.2900   21.9830 C.3   535  LEU535      0.0001
     98  N         -0.5590   25.6820   25.1590 N.am  536  GLU536     -0.1977
     99  CA        -1.1280   25.4820   26.4720 C.3   536  GLU536      0.1602
    100  C         -1.4660   26.8580   27.0330 C.2   536  GLU536      0.2287
    101  O         -0.8920   27.8550   26.5940 O.2   536  GLU536     -0.2864
    102  CB        -0.1400   24.7630   27.3780 C.3   536  GLU536      0.0415
    103  CG         0.2460   23.3870   26.8720 C.3   536  GLU536      0.1163
    104  CD         0.8700   22.5160   27.9580 C.2   536  GLU536      0.3649
    105  OE1        1.4440   23.0690   28.9270 O.co2 536  GLU536     -0.2457
    106  OE2        0.7780   21.2720   27.8450 O.co2 536  GLU536     -0.2457
    107  N         -0.8230   28.4850   29.8100 N.3   538  GLU538     -0.1231
    108  CA         0.3480   29.1800   30.3430 C.3   538  GLU538      0.1699
    109  C          1.0930   29.8750   29.2040 C.2   538  GLU538      0.2592
    110  O          1.5660   31.0040   29.3540 O.2   538  GLU538     -0.2718
    111  CB         1.2490   28.1700   31.0720 C.3   538  GLU538      0.0402
    112  CG         2.6750   28.6230   31.4210 C.3   538  GLU538      0.1161
    113  CD         2.8000   29.3900   32.7270 C.2   538  GLU538      0.3649
    114  OE1        2.2030   28.9540   33.7380 O.co2 538  GLU538     -0.2457
    115  OE2        3.5290   30.4110   32.7470 O.co2 538  GLU538     -0.2457
    116  N          1.1760   29.1960   28.0620 N.am  539  GLY539     -0.1957
    117  CA         1.8860   29.7160   26.8970 C.3   539  GLY539      0.1869
    118  C          1.1340   30.8000   26.1620 C.2   539  GLY539      0.2309
    119  O          1.7230   31.7690   25.7020 O.2   539  GLY539     -0.2863
    120  N          1.6520   33.8370   28.0430 N.3   542  GLU542     -0.1231
    121  CA         3.0290   34.3010   27.8520 C.3   542  GLU542      0.1699
    122  C          3.1810   35.1410   26.5910 C.2   542  GLU542      0.2592
    123  O          3.9360   36.1050   26.5690 O.2   542  GLU542     -0.2718
    124  CB         3.9860   33.0990   27.8070 C.3   542  GLU542      0.0402
    125  CG         5.4650   33.4380   27.6150 C.3   542  GLU542      0.1161
    126  CD         6.0100   34.4070   28.6490 C.2   542  GLU542      0.3649
    127  OE1        5.4350   34.4870   29.7560 O.co2 542  GLU542     -0.2457
    128  OE2        7.0230   35.0870   28.3560 O.co2 542  GLU542     -0.2457
    129  N          2.4540   34.7700   25.5460 N.am  543  ILE543     -0.1980
    130  CA         2.5060   35.4770   24.2770 C.3   543  ILE543      0.1595
    131  C          1.4610   36.5790   24.2130 C.2   543  ILE543      0.2287
    132  O          1.8040   37.7160   23.8890 O.2   543  ILE543     -0.2864
    133  CB         2.3260   34.5060   23.0840 C.3   543  ILE543      0.0276
    134  CG1        3.6120   33.6990   22.8790 C.3   543  ILE543      0.0022
    135  CG2        1.9480   35.2630   21.8210 C.3   543  ILE543      0.0022
    136  CD1        3.6320   32.8600   21.6200 C.3   543  ILE543      0.0001
@<TRIPOS>BOND
     1    49    47   ar
     2    49    48   ar
     3    47    45   ar
     4    48    46   ar
     5    45    44   ar
     6    46    44   ar
     7    67    66    2
     8    44    43    1
     9    66    65    1
    10    43    40    1
    11    16    15    2
    12    89    87    1
    13    88    87    1
    14    15    14    1
    15    65    64    1
    16    65    68    1
    17    53    52    2
    18    87    84    1
    19    40    39    1
    20    40    41    1
    21    63    62    2
    22    39    37   am
    23    57    58    1
    24    57    56    1
    25    59    58    2
    26    68    69    1
    27    84    83    1
    28    84    85    1
    29    75    74    2
    30    14    13    1
    31    14    17    1
    32    41    42    2
    33    41    50   am
    34    58    60   am
    35    52    56   am
    36    52    51    1
    37    74    73    1
    38    62    61    1
    39    37    36    1
    40    37    38    2
    41    50    51    1
    42    70    69   ar
    43    86    85    2
    44    36    35    1
    45    85    90   am
    46    69    71   ar
    47    60    61    1
    48    17    18    1
    49    51    54    1
    50    54    55    1
    51    73    72    1
    52    73    76    1
    53   136   134    1
    54    90    91    1
    55    35    26   am
    56   135   133    1
    57    97    95    1
    58    95    96    1
    59    95    94    1
    60    18    20   ar
    61    18    19   ar
    62     8     9    2
    63     8     7    1
    64    20    22   ar
    65    76    77    1
    66    26    27    2
    67    26    25    1
    68    91    94    1
    69    91    92    1
    70   134   133    1
    71   133   130    1
    72    19    21   ar
    73    11    10    1
    74     7    10    1
    75     7     6    1
    76    24    25    1
    77    22    23   ar
    78    25    28    1
    79   132   131    2
    80    77    78    1
    81    92    93    2
    82    92    98   am
    83   131   130    1
    84    10    12    1
    85   130   129    1
    86    21    23   ar
    87    78    79    1
    88    28    29    1
    89    98    99    1
    90   129   122   am
    91    81    80    1
    92   119   118    2
    93    79    80    2
    94   118   117    1
    95    80    82    1
    96    29    30    1
    97    99   100    1
    98    99   102    1
    99   123   122    2
   100   122   121    1
   101   101   100    2
   102     4     3    2
   103   103   102    1
   104   103   104    1
   105   117   116    1
   106    30    31    1
   107   125   124    1
   108   125   126    1
   109   124   121    1
   110   106   104   ar
   111   121   120    1
   112   104   105   ar
   113     1     2    1
   114     3     2    1
   115   116   109   am
   116   128   126   ar
   117     5     2    1
   118   126   127   ar
   119    31    32    2
   120   109   110    2
   121   109   108    1
   122   107   108    1
   123    32    33    1
   124    32    34    1
   125   108   111    1
   126   111   112    1
   127   112   113    1
   128   113   115   ar
   129   113   114   ar
