@<TRIPOS>MOLECULE
tmp/3ffbA00.pdb
 155 148 0 0 0
SMALL
GASTEIGER

@<TRIPOS>ATOM
      1  N        -37.0860   16.8150   -4.7020 N.3    37  GLY37      -0.1210
      2  CA       -38.0850   17.8680   -4.8280 C.3    37  GLY37       0.1956
      3  C        -39.2400   17.5550   -3.8940 C.2    37  GLY37       0.2612
      4  O        -39.5490   16.3910   -3.6370 O.2    37  GLY37      -0.2717
      5  N        -39.8570   18.6030   -3.3670 N.am   38  GLU38      -0.1965
      6  CA       -40.9890   18.4720   -2.4280 C.3    38  GLU38       0.1733
      7  C        -40.6150   17.9480   -1.0300 C.2    38  GLU38       0.2617
      8  O        -41.5030   17.5790   -0.2590 O.2    38  GLU38      -0.2715
      9  CB       -42.1430   17.6330   -3.0280 C.3    38  GLU38       0.0429
     10  CG       -42.7000   18.1340   -4.3630 C.3    38  GLU38       0.1163
     11  CD       -43.3080   19.5250   -4.2360 C.2    38  GLU38       0.3649
     12  OE1      -42.7000   20.4840   -4.7670 O.co2  38  GLU38      -0.2457
     13  OE2      -44.3780   19.6700   -3.5730 O.co2  38  GLU38      -0.2457
     14  N        -39.3250   17.9200   -0.6890 N.am   39  SER39      -0.1936
     15  CA       -38.9470   17.3500    0.6040 C.3    39  SER39       0.2055
     16  C        -38.9410   18.3730    1.7600 C.2    39  SER39       0.2644
     17  O        -38.8840   17.9930    2.9500 O.2    39  SER39      -0.2714
     18  CB       -37.6370   16.5690    0.5210 C.3    39  SER39       0.2130
     19  OG       -36.5520   17.4370    0.2600 O.3    39  SER39      -0.2179
     20  N        -39.0260   19.6590    1.4060 N.am   40  GLY40      -0.1939
     21  CA       -39.2160   20.7420    2.3810 C.3    40  GLY40       0.2014
     22  C        -38.0940   21.7690    2.3890 C.2    40  GLY40       0.2639
     23  O        -38.0330   22.6360    3.2750 O.2    40  GLY40      -0.2714
     24  N        -37.1980   21.6860    1.4040 N.am   41  LYS41      -0.1963
     25  CA       -36.0230   22.5490    1.3950 C.3    41  LYS41       0.1728
     26  C        -36.4480   24.0080    1.4090 C.2    41  LYS41       0.2617
     27  O        -35.9740   24.8090    2.2300 O.2    41  LYS41      -0.2715
     28  CB       -35.1190   22.2670    0.1960 C.3    41  LYS41       0.0311
     29  CG       -34.5740   20.8420    0.1420 C.3    41  LYS41       0.0038
     30  CD       -33.6690   20.6300   -1.0830 C.3    41  LYS41       0.0206
     31  CE       -34.4230   20.9050   -2.3820 C.3    41  LYS41       0.1093
     32  NZ       -35.4330   19.8490   -2.6900 N.3    41  LYS41      -0.1314
     33  N        -37.3830   24.3580    0.5420 N.am   42  SER42      -0.1936
     34  CA       -37.6920   25.7570    0.4310 C.3    42  SER42       0.2055
     35  C        -38.5000   26.2720    1.6370 C.2    42  SER42       0.2643
     36  O        -38.4240   27.4410    1.9820 O.2    42  SER42      -0.2714
     37  CB       -38.3060   26.0750   -0.9370 C.3    42  SER42       0.2130
     38  OG       -39.7100   26.0220   -0.8920 O.3    42  SER42      -0.2179
     39  N        -39.2430   25.3840    2.2890 N.am   43  THR43      -0.1950
     40  CA       -39.9140   25.6910    3.5600 C.3    43  THR43       0.1897
     41  C        -38.9110   25.9890    4.7010 C.2    43  THR43       0.2313
     42  O        -39.1030   26.9250    5.4870 O.2    43  THR43      -0.2863
     43  CB       -40.8300   24.5300    3.9340 C.3    43  THR43       0.1794
     44  OG1      -41.6240   24.1980    2.7820 O.3    43  THR43      -0.2208
     45  CG2      -41.7380   24.8520    5.1410 C.3    43  THR43       0.0378
     46  N        -48.7510   18.9860   -1.0120 N.3   145  ASP145     -0.1225
     47  CA       -49.1080   18.9260    0.4140 C.3   145  ASP145      0.1805
     48  C        -49.6090   20.2420    1.0510 C.2   145  ASP145      0.2598
     49  O        -49.7470   20.3140    2.2710 O.2   145  ASP145     -0.2718
     50  CB       -47.8970   18.4390    1.2160 C.3   145  ASP145      0.1424
     51  CG       -47.7000   16.9460    1.1270 C.2   145  ASP145      0.3668
     52  OD1      -48.7180   16.2330    1.0580 O.co2 145  ASP145     -0.2456
     53  OD2      -46.5400   16.4730    1.1540 O.co2 145  ASP145     -0.2456
     54  N        -49.8140   21.3010    0.2760 N.am  146  SER146     -0.1952
     55  CA       -50.4740   22.4810    0.8230 C.3   146  SER146      0.1924
     56  C        -51.9180   22.4920    0.3630 C.2   146  SER146      0.2314
     57  O        -52.6210   23.4850    0.5680 O.2   146  SER146     -0.2863
     58  CB       -49.8220   23.7670    0.3470 C.3   146  SER146      0.2116
     59  OG       -48.5380   23.9380    0.9040 O.3   146  SER146     -0.2180
     60  N        -45.5180   30.8150    3.6970 N.3   170  LEU170     -0.1231
     61  CA       -44.7310   29.6280    3.9790 C.3   170  LEU170      0.1693
     62  C        -45.2300   28.4770    3.1400 C.2   170  LEU170      0.2592
     63  O        -44.4400   27.7220    2.5790 O.2   170  LEU170     -0.2718
     64  CB       -44.8980   29.2440    5.4420 C.3   170  LEU170      0.0284
     65  CG       -43.6940   28.9610    6.3260 C.3   170  LEU170      0.0019
     66  CD1      -44.1590   28.0830    7.4520 C.3   170  LEU170      0.0001
     67  CD2      -42.5450   28.3170    5.5870 C.3   170  LEU170      0.0001
     68  N        -46.5490   28.3570    3.0650 N.am  171  ARG171     -0.1966
     69  CA       -47.2140   27.2090    2.4760 C.3   171  ARG171      0.1729
     70  C        -47.2220   27.2480    0.9490 C.2   171  ARG171      0.2617
     71  O        -47.5990   26.2530    0.3050 O.2   171  ARG171     -0.2715
     72  CB       -48.6440   27.1220    2.9950 C.3   171  ARG171      0.0348
     73  CG       -48.7810   26.4650    4.3670 C.3   171  ARG171      0.0492
     74  CD       -48.3040   25.0330    4.3270 C.3   171  ARG171      0.2205
     75  NE       -48.8880   24.2500    5.4090 N.pl3 171  ARG171     -0.0865
     76  CZ       -48.9920   22.9270    5.4020 C.cat 171  ARG171      0.5346
     77  NH1      -48.5400   22.2100    4.3660 N.pl3 171  ARG171      0.1354
     78  NH2      -49.5590   22.3200    6.4250 N.pl3 171  ARG171      0.1354
     79  N        -46.8110   28.3820    0.3730 N.am  172  THR172     -0.1937
     80  CA       -46.7670   28.4960   -1.0690 C.3   172  THR172      0.2028
     81  C        -45.6990   27.5830   -1.6450 C.2   172  THR172      0.2642
     82  O        -44.7490   27.1990   -0.9540 O.2   172  THR172     -0.2714
     83  CB       -46.5390   29.9570   -1.5740 C.3   172  THR172      0.1808
     84  OG1      -45.2870   30.4830   -1.0920 O.3   172  THR172     -0.2208
     85  CG2      -47.6970   30.8660   -1.1800 C.3   172  THR172      0.0379
     86  N        -45.8830   27.2270   -2.9160 N.am  173  ARG173     -0.1977
     87  CA       -44.8660   26.5240   -3.6990 C.3   173  ARG173      0.1597
     88  C        -44.5090   27.3900   -4.8880 C.2   173  ARG173      0.2287
     89  O        -45.3700   27.7080   -5.7020 O.2   173  ARG173     -0.2864
     90  CB       -45.3770   25.1900   -4.1830 C.3   173  ARG173      0.0334
     91  CG       -45.5730   24.2010   -3.0860 C.3   173  ARG173      0.0492
     92  CD       -46.4210   23.0670   -3.5780 C.3   173  ARG173      0.2205
     93  NE       -47.7320   23.5750   -3.9830 N.pl3 173  ARG173     -0.0865
     94  CZ       -48.1650   23.6520   -5.2420 C.cat 173  ARG173      0.5346
     95  NH1      -47.3890   23.2420   -6.2420 N.pl3 173  ARG173      0.1354
     96  NH2      -49.3800   24.1420   -5.4970 N.pl3 173  ARG173      0.1354
     97  N        -29.8440   26.5530   -1.1720 N.3   195  ASP195     -0.1239
     98  CA       -30.7590   25.5190   -1.5830 C.3   195  ASP195      0.1674
     99  C        -30.4550   25.0840   -3.0190 C.2   195  ASP195      0.2266
    100  O        -30.7770   25.7610   -4.0020 O.2   195  ASP195     -0.2867
    101  CB       -32.2040   25.9610   -1.3790 C.3   195  ASP195      0.1410
    102  CG       -33.2120   24.9710   -1.9330 C.2   195  ASP195      0.3668
    103  OD1      -32.8410   23.8500   -2.3550 O.co2 195  ASP195     -0.2456
    104  OD2      -34.4050   25.3230   -1.9420 O.co2 195  ASP195     -0.2456
    105  N        -38.4300   14.7260    7.4120 N.3   242  ASN242     -0.1225
    106  CA       -39.3920   15.7930    7.4430 C.3   242  ASN242      0.1785
    107  C        -40.8040   15.2660    7.2120 C.2   242  ASN242      0.2597
    108  O        -40.9850   14.0800    6.9490 O.2   242  ASN242     -0.2718
    109  CB       -38.9930   16.8140    6.3830 C.3   242  ASN242      0.1169
    110  CG       -39.7980   18.0620    6.4670 C.2   242  ASN242      0.2627
    111  OD1      -40.0290   18.5750    7.5560 O.2   242  ASN242     -0.2716
    112  ND2      -40.2570   18.5550    5.3270 N.am  242  ASN242     -0.0877
    113  N        -41.8030   16.1430    7.3130 N.am  243  LYS243     -0.1980
    114  CA       -43.2180   15.7590    7.1570 C.3   243  LYS243      0.1596
    115  C        -43.6280   14.6560    8.1390 C.2   243  LYS243      0.2287
    116  O        -44.3630   13.7400    7.7830 O.2   243  LYS243     -0.2864
    117  CB       -43.5430   15.3660    5.7020 C.3   243  LYS243      0.0298
    118  CG       -43.1870   16.4560    4.7110 C.3   243  LYS243      0.0038
    119  CD       -43.7490   16.2240    3.3220 C.3   243  LYS243      0.0206
    120  CE       -43.4740   17.4100    2.3910 C.3   243  LYS243      0.1093
    121  NZ       -43.9830   17.1990    0.9800 N.3   243  LYS243     -0.1314
    122  N        -45.5620   14.9760   10.6040 N.3   245  ASP245     -0.1225
    123  CA       -46.9990   15.1810   10.8040 C.3   245  ASP245      0.1805
    124  C        -47.8130   14.3780    9.8040 C.2   245  ASP245      0.2597
    125  O        -48.7480   13.6740   10.1980 O.2   245  ASP245     -0.2718
    126  CB       -47.3950   16.6740   10.7690 C.3   245  ASP245      0.1424
    127  CG       -47.1000   17.3530    9.4260 C.2   245  ASP245      0.3668
    128  OD1      -46.0300   17.1340    8.8280 O.co2 245  ASP245     -0.2456
    129  OD2      -47.9580   18.1300    8.9640 O.co2 245  ASP245     -0.2456
    130  N        -47.4460   14.4580    8.5250 N.am  246  LEU246     -0.1979
    131  CA       -48.1610   13.7190    7.4970 C.3   246  LEU246      0.1596
    132  C        -47.8830   12.2250    7.6120 C.2   246  LEU246      0.2287
    133  O        -48.7700   11.4010    7.3500 O.2   246  LEU246     -0.2864
    134  CB       -47.8200   14.2190    6.0900 C.3   246  LEU246      0.0297
    135  CG       -48.2070   15.6690    5.7940 C.3   246  LEU246      0.0022
    136  CD1      -47.7750   16.0780    4.3800 C.3   246  LEU246      0.0001
    137  CD2      -49.7210   15.9630    6.0370 C.3   246  LEU246      0.0001
    138  N        -41.0790   18.8400   11.3060 N.3   298  CYS298     -0.1221
    139  CA       -42.2410   19.2980   10.6260 C.3   298  CYS298      0.1808
    140  C        -41.8950   20.7150   10.1450 C.2   298  CYS298      0.2601
    141  O        -41.9650   21.6940   10.9080 O.2   298  CYS298     -0.2717
    142  CB       -43.4450   19.2610   11.5540 C.3   298  CYS298      0.0970
    143  SG       -44.8600   19.9110   10.7100 S.3   298  CYS298     -0.0800
    144  N        -41.4800   20.8150    8.8900 N.am  299  ALA299     -0.1965
    145  CA       -40.8940   22.0480    8.3970 C.3   299  ALA299      0.1728
    146  C        -41.8640   23.2320    8.3880 C.2   299  ALA299      0.2616
    147  O        -41.4360   24.3800    8.4660 O.2   299  ALA299     -0.2715
    148  CB       -40.2480   21.8450    7.0040 C.3   299  ALA299      0.0334
    149  N        -43.1600   22.9640    8.2880 N.am  300  THR300     -0.1951
    150  CA       -44.1660   24.0300    8.3470 C.3   300  THR300      0.1897
    151  C        -44.5590   24.4280    9.7790 C.2   300  THR300      0.2313
    152  O        -45.4490   25.2710    9.9670 O.2   300  THR300     -0.2863
    153  CB       -45.4420   23.6000    7.6540 C.3   300  THR300      0.1794
    154  OG1      -45.7830   22.2810    8.1130 O.3   300  THR300     -0.2208
    155  CG2      -45.2500   23.5930    6.1530 C.3   300  THR300      0.0378
@<TRIPOS>BOND
     1    95    94    1
     2    89    88    2
     3    96    94    1
     4    94    93    2
     5    88    87    1
     6     2     1    1
     7     2     3    1
     8    12    11   ar
     9    10    11    1
    10    10     9    1
    11    11    13   ar
    12    90    87    1
    13    90    91    1
    14   100    99    2
    15    93    92    1
    16     3     4    2
    17     3     5   am
    18    87    86    1
    19    92    91    1
    20     5     6    1
    21     9     6    1
    22    99    98    1
    23    86    81   am
    24    32    31    1
    25     6     7    1
    26    31    30    1
    27   103   102   ar
    28   104   102   ar
    29   102   101    1
    30    81    80    1
    31    81    82    2
    32    98   101    1
    33    98    97    1
    34    83    85    1
    35    83    84    1
    36    83    80    1
    37    30    29    1
    38    80    79    1
    39     7    14   am
    40     7     8    2
    41    46    47    1
    42    37    38    1
    43    37    34    1
    44    14    15    1
    45    29    28    1
    46    28    25    1
    47    19    18    1
    48    54    55    1
    49    54    48   am
    50    71    70    2
    51    58    55    1
    52    58    59    1
    53    56    57    2
    54    56    55    1
    55    79    70   am
    56    47    48    1
    57    47    50    1
    58    34    33    1
    59    34    35    1
    60    18    15    1
    61    33    26   am
    62    15    16    1
    63    70    69    1
    64   121   120    1
    65    48    49    2
    66    52    51   ar
    67    51    53   ar
    68    51    50    1
    69    25    24    1
    70    25    26    1
    71    24    22   am
    72    20    16   am
    73    20    21    1
    74    26    27    2
    75    35    36    2
    76    35    39   am
    77    16    17    2
    78    39    40    1
    79    21    22    1
    80    22    23    2
    81   120   119    1
    82    69    72    1
    83    69    68    1
    84    63    62    2
    85    44    43    1
    86    72    73    1
    87    68    62   am
    88    62    61    1
    89   119   118    1
    90    40    43    1
    91    40    41    1
    92    60    61    1
    93    43    45    1
    94    61    64    1
    95    74    73    1
    96    74    75    1
    97    77    76    1
    98   136   135    1
    99    41    42    2
   100   118   117    1
   101   112   110   am
   102    76    75    2
   103    76    78    1
   104    64    65    1
   105    67    65    1
   106   117   114    1
   107   135   137    1
   108   135   134    1
   109   134   131    1
   110   155   153    1
   111    65    66    1
   112   109   110    1
   113   109   106    1
   114   110   111    2
   115   108   107    2
   116   148   145    1
   117   114   113    1
   118   114   115    1
   119   107   113   am
   120   107   106    1
   121   133   132    2
   122   105   106    1
   123   131   132    1
   124   131   130    1
   125   153   154    1
   126   153   150    1
   127   116   115    2
   128   149   150    1
   129   149   146   am
   130   150   151    1
   131   146   145    1
   132   146   147    2
   133   145   144    1
   134   130   124   am
   135   128   127   ar
   136   144   140   am
   137   129   127   ar
   138   127   126    1
   139   151   152    2
   140   124   125    2
   141   124   123    1
   142   140   139    1
   143   140   141    2
   144   122   123    1
   145   139   138    1
   146   139   142    1
   147   143   142    1
   148   126   123    1
