@<TRIPOS>MOLECULE
tmp/3ffgA00.pdb
 223 221 0 0 0
SMALL
GASTEIGER

@<TRIPOS>ATOM
      1  N         42.0950   24.9850   24.7380 N.3    42  HIS42      -0.1241
      2  CA        40.6370   25.0400   24.7230 C.3    42  HIS42       0.1621
      3  C         40.0270   23.7080   24.2910 C.2    42  HIS42       0.2264
      4  O         38.8410   23.4590   24.5080 O.2    42  HIS42      -0.2867
      5  CB        40.1410   26.1820   23.8180 C.3    42  HIS42       0.0745
      6  CG        40.0300   25.8220   22.3680 C.ar   42  HIS42       0.0817
      7  ND1       40.9420   26.2450   21.4260 N.ar   42  HIS42      -0.2268
      8  CD2       39.0900   25.1190   21.6910 C.ar   42  HIS42       0.1154
      9  CE1       40.5690   25.8190   20.2310 C.ar   42  HIS42       0.1986
     10  NE2       39.4480   25.1330   20.3650 N.ar   42  HIS42      -0.2212
     11  N         38.8490   31.2450   28.4210 N.3    82  LYS82      -0.1231
     12  CA        37.9240   31.3790   27.3040 C.3    82  LYS82       0.1693
     13  C         37.4540   32.8170   27.1310 C.2    82  LYS82       0.2592
     14  O         36.7960   33.1490   26.1430 O.2    82  LYS82      -0.2718
     15  CB        36.7170   30.4570   27.5060 C.3    82  LYS82       0.0285
     16  CG        36.0060   30.6340   28.8390 C.3    82  LYS82       0.0035
     17  CD        34.9760   29.5360   29.0550 C.3    82  LYS82       0.0206
     18  CE        34.2640   29.6840   30.3880 C.3    82  LYS82       0.1093
     19  NZ        33.2530   28.6070   30.5860 N.3    82  LYS82      -0.1314
     20  N         37.7910   33.6730   28.0920 N.am   83  GLU83      -0.1966
     21  CA        37.4250   35.0820   28.0010 C.3    83  GLU83       0.1733
     22  C         38.2120   35.7810   26.8970 C.2    83  GLU83       0.2617
     23  O         37.6890   36.6570   26.2130 O.2    83  GLU83      -0.2715
     24  CB        37.6820   35.7890   29.3360 C.3    83  GLU83       0.0429
     25  CG        36.9220   35.1960   30.5130 C.3    83  GLU83       0.1163
     26  CD        35.4170   35.2780   30.3410 C.2    83  GLU83       0.3649
     27  OE1       34.6930   34.6180   31.1140 O.co2  83  GLU83      -0.2457
     28  OE2       34.9580   36.0030   29.4340 O.co2  83  GLU83      -0.2457
     29  N         39.4700   35.3850   26.7270 N.am   84  THR84      -0.1937
     30  CA        40.3520   36.0240   25.7530 C.3    84  THR84       0.2028
     31  C         40.8940   35.0370   24.7240 C.2    84  THR84       0.2642
     32  O         41.3770   35.4420   23.6660 O.2    84  THR84      -0.2714
     33  CB        41.5610   36.6720   26.4400 C.3    84  THR84       0.1808
     34  OG1       42.2910   35.6640   27.1500 O.3    84  THR84      -0.2208
     35  CG2       41.1090   37.7530   27.4180 C.3    84  THR84       0.0379
     36  N         40.8230   33.7500   25.0530 N.am   85  TYR85      -0.1973
     37  CA        41.4670   32.6960   24.2710 C.3    85  TYR85       0.1639
     38  C         42.9720   32.8900   24.1490 C.2    85  TYR85       0.2290
     39  O         43.6180   32.2880   23.2940 O.2    85  TYR85      -0.2864
     40  CB        40.8400   32.5910   22.8760 C.3    85  TYR85       0.0560
     41  CG        39.7610   31.5380   22.7960 C.ar   85  TYR85      -0.0198
     42  CD1       38.5780   31.6820   23.5040 C.ar   85  TYR85      -0.0009
     43  CD2       39.9320   30.3860   22.0330 C.ar   85  TYR85      -0.0009
     44  CE1       37.5950   30.7150   23.4620 C.ar   85  TYR85       0.0417
     45  CE2       38.9460   29.4070   21.9840 C.ar   85  TYR85       0.0417
     46  CZ        37.7800   29.5820   22.7060 C.ar   85  TYR85       0.1957
     47  OH        36.7950   28.6200   22.6930 O.3    85  TYR85      -0.2866
     48  N         35.7290   20.4000   10.0050 N.3   132  ARG132     -0.1245
     49  CA        34.6430   20.5770    9.0530 C.3   132  ARG132      0.1563
     50  C         35.1420   21.1310    7.7260 C.2   132  ARG132      0.2260
     51  O         36.1030   21.9030    7.6860 O.2   132  ARG132     -0.2867
     52  CB        33.5800   21.4970    9.6590 C.3   132  ARG132      0.0307
     53  CG        32.7950   20.8140   10.7710 C.3   132  ARG132      0.0489
     54  CD        32.6100   21.6880   11.9970 C.3   132  ARG132      0.2205
     55  NE        31.5940   22.7100   11.7890 N.pl3 132  ARG132     -0.0865
     56  CZ        30.6780   23.0580   12.6890 C.cat 132  ARG132      0.5346
     57  NH1       30.6370   22.4640   13.8750 N.pl3 132  ARG132      0.1354
     58  NH2       29.8060   24.0120   12.4030 N.pl3 132  ARG132      0.1354
     59  N         31.5250   25.6330    6.7640 N.3   135  GLU135     -0.1245
     60  CA        31.3130   26.2450    8.0710 C.3   135  GLU135      0.1567
     61  C         30.1950   25.5230    8.8100 C.2   135  GLU135      0.2260
     62  O         30.2590   25.3290   10.0240 O.2   135  GLU135     -0.2867
     63  CB        30.9680   27.7290    7.9280 C.3   135  GLU135      0.0388
     64  CG        30.9890   28.4790    9.2480 C.3   135  GLU135      0.1160
     65  CD        30.7740   29.9710    9.0800 C.2   135  GLU135      0.3649
     66  OE1       31.6030   30.6290    8.4150 O.co2 135  GLU135     -0.2457
     67  OE2       29.7720   30.4860    9.6180 O.co2 135  GLU135     -0.2457
     68  N         37.8690   40.7070   17.5410 N.3   162  PHE162     -0.1227
     69  CA        38.3920   40.4080   18.8680 C.3   162  PHE162      0.1736
     70  C         39.8720   40.7620   18.9570 C.2   162  PHE162      0.2595
     71  O         40.5510   40.8860   17.9420 O.2   162  PHE162     -0.2718
     72  CB        38.1930   38.9240   19.1860 C.3   162  PHE162      0.0547
     73  CG        36.7600   38.4830   19.1390 C.ar  162  PHE162     -0.0202
     74  CD1       35.9000   38.7660   20.1870 C.ar  162  PHE162     -0.0042
     75  CD2       36.2720   37.7860   18.0460 C.ar  162  PHE162     -0.0042
     76  CE1       34.5800   38.3610   20.1450 C.ar  162  PHE162     -0.0003
     77  CE2       34.9560   37.3790   17.9980 C.ar  162  PHE162     -0.0003
     78  CZ        34.1070   37.6670   19.0510 C.ar  162  PHE162     -0.0000
     79  N         40.3700   40.9210   20.1760 N.am  163  ILE163     -0.1980
     80  CA        41.7550   41.3220   20.3730 C.3   163  ILE163      0.1595
     81  C         42.7190   40.2040   19.9830 C.2   163  ILE163      0.2287
     82  O         42.6300   39.0900   20.4950 O.2   163  ILE163     -0.2864
     83  CB        42.0100   41.7110   21.8400 C.3   163  ILE163      0.0276
     84  CG1       41.1130   42.8900   22.2210 C.3   163  ILE163      0.0022
     85  CG2       43.4740   42.0850   22.0340 C.3   163  ILE163      0.0022
     86  CD1       41.0390   43.1420   23.7070 C.3   163  ILE163      0.0001
     87  N         40.0640   27.8430    4.2200 N.3   179  ASP179     -0.1225
     88  CA        40.7000   28.0840    5.5180 C.3   179  ASP179      0.1805
     89  C         40.4010   26.9130    6.4460 C.2   179  ASP179      0.2598
     90  O         39.6950   25.9830    6.0610 O.2   179  ASP179     -0.2718
     91  CB        40.1750   29.3870    6.1400 C.3   179  ASP179      0.1424
     92  CG        41.2320   30.1120    6.9590 C.2   179  ASP179      0.3668
     93  OD1       41.4160   31.3350    6.7580 O.co2 179  ASP179     -0.2456
     94  OD2       41.8840   29.4590    7.8020 O.co2 179  ASP179     -0.2456
     95  N         40.9400   26.9570    7.6630 N.am  180  ALA180     -0.1966
     96  CA        40.6320   25.9460    8.6720 C.3   180  ALA180      0.1728
     97  C         39.2260   26.1620    9.2310 C.2   180  ALA180      0.2616
     98  O         38.5890   27.1730    8.9420 O.2   180  ALA180     -0.2715
     99  CB        41.6640   26.0000    9.8000 C.3   180  ALA180      0.0334
    100  N         38.7460   25.2110   10.0260 N.am  181  CYS181     -0.1954
    101  CA        37.3910   25.2820   10.5660 C.3   181  CYS181      0.1843
    102  C         37.3000   24.5110   11.8830 C.2   181  CYS181      0.2625
    103  O         38.2740   23.8970   12.3260 O.2   181  CYS181     -0.2714
    104  CB        36.3950   24.7050    9.5470 C.3   181  CYS181      0.0997
    105  SG        34.6580   25.1900    9.7850 S.3   181  CYS181     -0.0797
    106  N         36.1260   24.5440   12.5050 N.am  182  GLN182     -0.1977
    107  CA        35.8980   23.8300   13.7530 C.3   182  GLN182      0.1601
    108  C         36.3430   22.3760   13.6420 C.2   182  GLN182      0.2287
    109  O         36.0380   21.6890   12.6640 O.2   182  GLN182     -0.2864
    110  CB        34.4120   23.8900   14.1270 C.3   182  GLN182      0.0394
    111  CG        34.0890   23.2310   15.4590 C.3   182  GLN182      0.0908
    112  CD        32.8970   23.8590   16.1540 C.2   182  GLN182      0.2608
    113  OE1       32.6860   25.0720   16.0830 O.2   182  GLN182     -0.2717
    114  NE2       32.1090   23.0350   16.8360 N.am  182  GLN182     -0.0878
    115  N         41.0230   22.7770   15.2620 N.3   185  SER185     -0.1217
    116  CA        41.6350   23.3120   16.4780 C.3   185  SER185      0.1889
    117  C         42.6360   22.3510   17.1070 C.2   185  SER185      0.2288
    118  O         42.3850   21.1510   17.2010 O.2   185  SER185     -0.2866
    119  CB        40.5580   23.6440   17.5180 C.3   185  SER185      0.2089
    120  OG        39.7240   24.6990   17.0830 O.3   185  SER185     -0.2183
    121  N         46.3300   25.5830   15.5920 N.3   203  VAL203     -0.1231
    122  CA        45.0290   26.1250   15.2050 C.3   203  VAL203      0.1692
    123  C         44.2620   26.4990   16.4740 C.2   203  VAL203      0.2593
    124  O         44.0570   25.6590   17.3480 O.2   203  VAL203     -0.2718
    125  CB        44.1980   25.0950   14.4080 C.3   203  VAL203      0.0266
    126  CG1       42.8530   25.7000   14.0360 C.3   203  VAL203      0.0020
    127  CG2       44.9490   24.6630   13.1500 C.3   203  VAL203      0.0020
    128  N         43.8400   27.7570   16.5740 N.am  204  SER204     -0.1938
    129  CA        43.2070   28.2440   17.8000 C.3   204  SER204      0.2055
    130  C         41.7390   28.6480   17.6240 C.2   204  SER204      0.2643
    131  O         40.8570   28.0760   18.2660 O.2   204  SER204     -0.2714
    132  CB        44.0040   29.4240   18.3640 C.3   204  SER204      0.2130
    133  OG        43.4990   29.8340   19.6260 O.3   204  SER204     -0.2179
    134  N         41.4730   29.6290   16.7680 N.am  205  TRP205     -0.1959
    135  CA        40.0950   30.0800   16.5710 C.3   205  TRP205      0.1771
    136  C         39.9040   30.8750   15.2830 C.2   205  TRP205      0.2620
    137  O         40.8630   31.1960   14.5880 O.2   205  TRP205     -0.2715
    138  CB        39.6260   30.9070   17.7830 C.3   205  TRP205      0.0590
    139  CG        40.4350   32.1470   18.0620 C.ar  205  TRP205      0.0006
    140  CD1       41.5730   32.2300   18.8150 C.ar  205  TRP205      0.0946
    141  CD2       40.1420   33.4850   17.6280 C.ar  205  TRP205      0.0152
    142  NE1       42.0040   33.5360   18.8780 N.ar  205  TRP205     -0.2442
    143  CE2       41.1440   34.3240   18.1590 C.ar  205  TRP205      0.0810
    144  CE3       39.1290   34.0530   16.8460 C.ar  205  TRP205      0.0012
    145  CZ2       41.1620   35.7040   17.9340 C.ar  205  TRP205      0.0191
    146  CZ3       39.1490   35.4260   16.6240 C.ar  205  TRP205      0.0001
    147  CH2       40.1590   36.2330   17.1670 C.ar  205  TRP205      0.0015
    148  N         38.6490   31.1700   14.9580 N.am  206  GLY206     -0.1940
    149  CA        38.3600   32.0050   13.8090 C.3   206  GLY206      0.2014
    150  C         36.9090   32.4350   13.8350 C.2   206  GLY206      0.2639
    151  O         36.0740   31.7550   14.4310 O.2   206  GLY206     -0.2714
    152  N         36.6050   33.5620   13.2000 N.am  207  GLU207     -0.1963
    153  CA        35.2230   34.0160   13.0990 C.3   207  GLU207      0.1733
    154  C         34.5700   33.3390   11.9000 C.2   207  GLU207      0.2617
    155  O         34.7460   33.7630   10.7600 O.2   207  GLU207     -0.2715
    156  CB        35.1760   35.5400   12.9430 C.3   207  GLU207      0.0429
    157  CG        35.7410   36.2900   14.1430 C.3   207  GLU207      0.1163
    158  CD        35.6940   37.7970   13.9690 C.2   207  GLU207      0.3649
    159  OE1       34.5780   38.3510   13.8650 O.co2 207  GLU207     -0.2457
    160  OE2       36.7710   38.4280   13.9340 O.co2 207  GLU207     -0.2457
    161  N         33.8210   32.2770   12.1680 N.am  208  GLY208     -0.1940
    162  CA        33.3390   31.4390   11.0890 C.3   208  GLY208      0.2014
    163  C         34.5030   30.7380   10.4180 C.2   208  GLY208      0.2639
    164  O         35.5760   30.5960   11.0130 O.2   208  GLY208     -0.2714
    165  N         34.2960   30.2970    9.1820 N.am  209  CYS209     -0.1953
    166  CA        35.3420   29.6110    8.4330 C.3   209  CYS209      0.1843
    167  C         35.4120   30.0650    6.9810 C.2   209  CYS209      0.2625
    168  O         34.3970   30.1030    6.2800 O.2   209  CYS209     -0.2714
    169  CB        35.1060   28.1070    8.4980 C.3   209  CYS209      0.0997
    170  SG        34.8550   27.5540   10.1900 S.3   209  CYS209     -0.0797
    171  N         36.6160   30.4120    6.5370 N.am  210  ALA210     -0.1963
    172  CA        36.8450   30.8120    5.1520 C.3   210  ALA210      0.1728
    173  C         36.0280   32.0430    4.7730 C.2   210  ALA210      0.2616
    174  O         35.7520   32.2740    3.5960 O.2   210  ALA210     -0.2715
    175  CB        36.5190   29.6540    4.2070 C.3   210  ALA210      0.0334
    176  N         35.6480   32.8350    5.7680 N.am  211  ARG211     -0.1977
    177  CA        34.9030   34.0630    5.5040 C.3   211  ARG211      0.1597
    178  C         35.8070   35.1090    4.8590 C.2   211  ARG211      0.2287
    179  O         36.9690   35.2570    5.2370 O.2   211  ARG211     -0.2864
    180  CB        34.3150   34.6170    6.8030 C.3   211  ARG211      0.0334
    181  CG        33.2170   33.7550    7.3960 C.3   211  ARG211      0.0492
    182  CD        32.5690   34.4300    8.5950 C.3   211  ARG211      0.2205
    183  NE        31.5460   33.5880    9.2070 N.pl3 211  ARG211     -0.0865
    184  CZ        30.9230   33.8780   10.3450 C.cat 211  ARG211      0.5346
    185  NH1       31.2210   34.9940   10.9990 N.pl3 211  ARG211      0.1354
    186  NH2       30.0040   33.0530   10.8300 N.pl3 211  ARG211      0.1354
    187  N         38.2860   37.6790    6.7290 N.3   214  LYS214     -0.1231
    188  CA        38.6430   37.0660    8.0060 C.3   214  LYS214      0.1693
    189  C         39.7580   36.0490    7.7930 C.2   214  LYS214      0.2592
    190  O         40.0150   35.6300    6.6660 O.2   214  LYS214     -0.2718
    191  CB        37.4240   36.3720    8.6220 C.3   214  LYS214      0.0285
    192  CG        36.2670   37.3080    8.9400 C.3   214  LYS214      0.0035
    193  CD        36.6190   38.2610   10.0690 C.3   214  LYS214      0.0206
    194  CE        35.4570   39.1940   10.3820 C.3   214  LYS214      0.1093
    195  NZ        35.7920   40.1390   11.4770 N.3   214  LYS214     -0.1314
    196  N         40.4190   35.6550    8.8780 N.am  215  TYR215     -0.1962
    197  CA        41.5360   34.7180    8.7920 C.3   215  TYR215      0.1771
    198  C         41.4940   33.6870    9.9150 C.2   215  TYR215      0.2620
    199  O         40.8030   33.8690   10.9140 O.2   215  TYR215     -0.2715
    200  CB        42.8660   35.4780    8.8590 C.3   215  TYR215      0.0574
    201  CG        42.9990   36.5720    7.8240 C.ar  215  TYR215     -0.0198
    202  CD1       43.3130   36.2730    6.5050 C.ar  215  TYR215     -0.0009
    203  CD2       42.8000   37.9050    8.1640 C.ar  215  TYR215     -0.0009
    204  CE1       43.4250   37.2710    5.5520 C.ar  215  TYR215      0.0417
    205  CE2       42.9110   38.9090    7.2170 C.ar  215  TYR215      0.0417
    206  CZ        43.2230   38.5860    5.9130 C.ar  215  TYR215      0.1957
    207  OH        43.3320   39.5790    4.9610 O.3   215  TYR215     -0.2866
    208  N         42.2430   32.6020    9.7470 N.am  216  GLY216     -0.1954
    209  CA        42.4720   31.6990   10.8600 C.3   216  GLY216      0.1869
    210  C         43.4250   32.3020   11.8750 C.2   216  GLY216      0.2309
    211  O         44.4100   32.9480   11.5030 O.2   216  GLY216     -0.2863
    212  N         46.0400   31.5490   15.0110 N.3   218  TYR218     -0.1241
    213  CA        46.8930   30.4730   15.5070 C.3   218  TYR218      0.1605
    214  C         47.6410   30.9230   16.7540 C.2   218  TYR218      0.2264
    215  O         48.0350   32.0820   16.8620 O.2   218  TYR218     -0.2867
    216  CB        47.9150   30.0810   14.4350 C.3   218  TYR218      0.0534
    217  CG        47.2970   29.5590   13.1580 C.ar  218  TYR218     -0.0201
    218  CD1       46.7720   30.4280   12.2100 C.ar  218  TYR218     -0.0009
    219  CD2       47.2220   28.1970   12.9110 C.ar  218  TYR218     -0.0009
    220  CE1       46.1830   29.9480   11.0480 C.ar  218  TYR218      0.0417
    221  CE2       46.6390   27.7110   11.7580 C.ar  218  TYR218      0.0417
    222  CZ        46.1200   28.5880   10.8300 C.ar  218  TYR218      0.1957
    223  OH        45.5370   28.0920    9.6830 O.3   218  TYR218     -0.2866
@<TRIPOS>BOND
     1   174   173    2
     2   175   172    1
     3    87    88    1
     4   173   172    1
     5   173   176   am
     6   178   179    2
     7   178   177    1
     8   207   206    1
     9   172   171    1
    10   177   176    1
    11   177   180    1
    12    88    91    1
    13    88    89    1
    14   204   206   ar
    15   204   202   ar
    16   206   205   ar
    17    90    89    2
    18    91    92    1
    19   168   167    2
    20    89    95   am
    21   202   201   ar
    22   171   167   am
    23   190   189    2
    24   187   188    1
    25    93    92   ar
    26    59    60    1
    27   180   181    1
    28    92    94   ar
    29   167   166    1
    30   205   203   ar
    31   181   182    1
    32    95    96    1
    33    51    50    2
    34    50    49    1
    35   189   188    1
    36   189   196   am
    37   201   203   ar
    38   201   200    1
    39    63    60    1
    40    63    64    1
    41   188   191    1
    42    60    61    1
    43    66    65   ar
    44   166   169    1
    45   166   165    1
    46   169   170    1
    47   182   183    1
    48   191   192    1
    49    96    97    1
    50    96    99    1
    51   197   200    1
    52   197   196    1
    53   197   198    1
    54    61    62    2
    55   192   193    1
    56    98    97    2
    57    49    52    1
    58    49    48    1
    59    65    64    1
    60    65    67   ar
    61   165   163   am
    62   183   184    2
    63    97   100   am
    64   104   105    1
    65   104   101    1
    66    52    53    1
    67   223   222    1
    68   208   198   am
    69   208   209    1
    70   105   170    1
    71   198   199    2
    72   100   101    1
    73   193   194    1
    74   184   186    1
    75   184   185    1
    76   194   195    1
    77   163   164    2
    78   163   162    1
    79   101   102    1
    80   155   154    2
    81    53    54    1
    82   222   220   ar
    83   222   221   ar
    84   209   210    1
    85   220   218   ar
    86   162   161    1
    87   211   210    2
    88   221   219   ar
    89    55    54    1
    90    55    56    2
    91   102   103    2
    92   102   106   am
    93   154   161   am
    94   154   153    1
    95   218   217   ar
    96    58    56    1
    97   106   107    1
    98   109   108    2
    99    56    57    1
   100   219   217   ar
   101   156   153    1
   102   156   157    1
   103   153   152    1
   104   127   125    1
   105   217   216    1
   106   152   150   am
   107   108   107    1
   108   107   110    1
   109   149   150    1
   110   149   148    1
   111   150   151    2
   112   159   158   ar
   113   160   158   ar
   114   158   157    1
   115   126   125    1
   116   110   111    1
   117   125   122    1
   118   216   213    1
   119   137   136    2
   120   148   136   am
   121   212   213    1
   122   122   121    1
   123   122   123    1
   124   115   116    1
   125   136   135    1
   126   111   112    1
   127   213   214    1
   128   113   112    2
   129   112   114   am
   130   123   128   am
   131   123   124    2
   132   116   117    1
   133   116   119    1
   134   135   134    1
   135   135   138    1
   136   128   129    1
   137   146   144   ar
   138   146   147   ar
   139   214   215    2
   140   134   130   am
   141   144   141   ar
   142   120   119    1
   143   117   118    2
   144   147   145   ar
   145    68    69    1
   146   130   129    1
   147   130   131    2
   148   141   139   ar
   149   141   143   ar
   150   138   139    1
   151   129   132    1
   152   145   143   ar
   153    71    70    2
   154    77    75   ar
   155    77    78   ar
   156    75    73   ar
   157   139   140   ar
   158   143   142   ar
   159   132   133    1
   160   140   142   ar
   161    69    70    1
   162    69    72    1
   163    70    79   am
   164    78    76   ar
   165    73    72    1
   166    73    74   ar
   167    81    80    1
   168    81    82    2
   169    76    74   ar
   170    79    80    1
   171     9    10   ar
   172     9     7   ar
   173    10     8   ar
   174    80    83    1
   175     7     6   ar
   176     8     6   ar
   177    83    85    1
   178    83    84    1
   179    45    43   ar
   180    45    46   ar
   181    43    41   ar
   182    84    86    1
   183     6     5    1
   184    47    46    1
   185    46    44   ar
   186    41    40    1
   187    41    42   ar
   188    40    37    1
   189    39    38    2
   190    44    42   ar
   191    32    31    2
   192     5     2    1
   193    38    37    1
   194    37    36    1
   195     3     4    2
   196     3     2    1
   197     2     1    1
   198    31    36   am
   199    31    30    1
   200    30    33    1
   201    30    29    1
   202    14    13    2
   203    23    22    2
   204    33    34    1
   205    33    35    1
   206    29    22   am
   207    22    21    1
   208    13    12    1
   209    13    20   am
   210    12    15    1
   211    12    11    1
   212    15    16    1
   213    21    20    1
   214    21    24    1
   215    16    17    1
   216    17    18    1
   217    24    25    1
   218    28    26   ar
   219    26    25    1
   220    26    27   ar
   221    18    19    1
