@<TRIPOS>MOLECULE
tmp/3ffiA00.pdb
 197 197 0 0 0
SMALL
GASTEIGER

@<TRIPOS>ATOM
      1  N         47.2460   54.5920   21.3840 N.3    91  PRO91      -0.2116
      2  CA        48.0390   54.7670   20.1690 C.3    91  PRO91       0.1372
      3  C         49.5180   54.9270   20.4570 C.2    91  PRO91       0.2244
      4  O         49.8970   55.4100   21.5270 O.2    91  PRO91      -0.2868
      5  CB        47.4990   56.0740   19.5660 C.3    91  PRO91       0.0268
      6  CG        46.2340   56.3340   20.2390 C.3    91  PRO91       0.0207
      7  CD        46.3180   55.7140   21.5890 C.3    91  PRO91       0.0892
      8  N         52.9300   56.8740   19.1080 N.3    93  PRO93      -0.2116
      9  CA        53.4180   57.9630   18.2660 C.3    93  PRO93       0.1372
     10  C         53.9300   57.4960   16.9070 C.2    93  PRO93       0.2244
     11  O         53.6230   58.1170   15.8920 O.2    93  PRO93      -0.2868
     12  CB        54.5620   58.5440   19.0900 C.3    93  PRO93       0.0268
     13  CG        54.1730   58.3010   20.4870 C.3    93  PRO93       0.0207
     14  CD        53.3940   57.0160   20.5000 C.3    93  PRO93       0.0892
     15  N         51.2790   57.3430   14.2470 N.3    96  LEU96      -0.1231
     16  CA        50.6530   58.5910   13.8020 C.3    96  LEU96       0.1693
     17  C         51.1380   58.9850   12.4090 C.2    96  LEU96       0.2592
     18  O         52.3340   58.9460   12.1320 O.2    96  LEU96      -0.2718
     19  CB        50.9590   59.7270   14.7830 C.3    96  LEU96       0.0284
     20  CG        50.4180   59.5650   16.2040 C.3    96  LEU96       0.0019
     21  CD1       51.0230   60.6010   17.1330 C.3    96  LEU96       0.0001
     22  CD2       48.9110   59.6710   16.2040 C.3    96  LEU96       0.0001
     23  N         50.2030   59.3460   11.5340 N.am   97  LYS97      -0.1966
     24  CA        50.5480   59.9120   10.2310 C.3    97  LYS97       0.1728
     25  C         51.0220   61.3470   10.4340 C.2    97  LYS97       0.2616
     26  O         50.6140   62.0050   11.3930 O.2    97  LYS97      -0.2715
     27  CB        49.3500   59.8800    9.2870 C.3    97  LYS97       0.0311
     28  CG        48.8720   58.4780    8.9460 C.3    97  LYS97       0.0038
     29  CD        47.5080   58.5220    8.2780 C.3    97  LYS97       0.0206
     30  CE        47.0510   57.1430    7.8220 C.3    97  LYS97       0.1093
     31  NZ        45.7340   57.2150    7.1130 N.3    97  LYS97      -0.1314
     32  N         51.8960   61.8320    9.5550 N.am   98  LYS98      -0.1963
     33  CA        52.4050   63.1930    9.7020 C.3    98  LYS98       0.1728
     34  C         51.4070   64.1850    9.1170 C.2    98  LYS98       0.2616
     35  O         50.9060   63.9890    8.0080 O.2    98  LYS98      -0.2715
     36  CB        53.7800   63.3730    9.0490 C.3    98  LYS98       0.0311
     37  CG        54.6010   64.4830    9.7190 C.3    98  LYS98       0.0038
     38  CD        55.4560   65.2810    8.7440 C.3    98  LYS98       0.0206
     39  CE        56.6270   64.4780    8.2050 C.3    98  LYS98       0.1093
     40  NZ        57.7230   65.3610    7.7200 N.3    98  LYS98      -0.1314
     41  N         51.1160   65.2360    9.8820 N.am   99  LYS99      -0.1963
     42  CA        50.1860   66.2890    9.4760 C.3    99  LYS99       0.1728
     43  C         50.9150   67.6310    9.4550 C.2    99  LYS99       0.2616
     44  O         51.8810   67.8280   10.1960 O.2    99  LYS99      -0.2715
     45  CB        49.0090   66.3690   10.4550 C.3    99  LYS99       0.0311
     46  CG        48.3550   65.0270   10.8370 C.3    99  LYS99       0.0038
     47  CD        47.9770   64.1340    9.6460 C.3    99  LYS99       0.0206
     48  CE        47.1160   64.8440    8.6050 C.3    99  LYS99       0.1093
     49  NZ        46.9020   63.9960    7.3950 N.3    99  LYS99      -0.1314
     50  N         50.4540   68.5530    8.6150 N.am  100  LYS100     -0.1963
     51  CA        51.0380   69.8980    8.5680 C.3   100  LYS100      0.1728
     52  C         50.7620   70.6470    9.8690 C.2   100  LYS100      0.2617
     53  O         51.6510   71.2860   10.4310 O.2   100  LYS100     -0.2715
     54  CB        50.5010   70.7050    7.3790 C.3   100  LYS100      0.0311
     55  CG        51.1390   72.0960    7.2410 C.3   100  LYS100      0.0038
     56  CD        50.5860   72.9020    6.0600 C.3   100  LYS100      0.0206
     57  CE        51.2970   72.5800    4.7490 C.3   100  LYS100      0.1093
     58  NZ        50.9570   71.2240    4.2290 N.3   100  LYS100     -0.1314
     59  N         49.5230   70.5700   10.3370 N.am  101  SER101     -0.1936
     60  CA        49.1370   71.2210   11.5860 C.3   101  SER101      0.2055
     61  C         48.2830   70.2910   12.4560 C.2   101  SER101      0.2642
     62  O         47.4560   69.5300   11.9480 O.2   101  SER101     -0.2714
     63  CB        48.4160   72.5520   11.3020 C.3   101  SER101      0.2130
     64  OG        47.5670   72.4620   10.1660 O.3   101  SER101     -0.2179
     65  N         48.5290   70.3470   13.7650 N.am  102  VAL102     -0.1977
     66  CA        47.7730   69.5980   14.7660 C.3   102  VAL102      0.1596
     67  C         47.5290   70.5280   15.9550 C.2   102  VAL102      0.2287
     68  O         48.4300   71.2650   16.3570 O.2   102  VAL102     -0.2864
     69  CB        48.5490   68.3340   15.2440 C.3   102  VAL102      0.0276
     70  CG1       47.9280   67.7420   16.5080 C.3   102  VAL102      0.0022
     71  CG2       48.6140   67.2850   14.1360 C.3   102  VAL102      0.0022
     72  N         45.6510   70.7810   20.0340 N.3   104  VAL104     -0.1245
     73  CA        45.0700   70.1040   21.1860 C.3   104  VAL104      0.1561
     74  C         43.9140   70.9390   21.7250 C.2   104  VAL104      0.2260
     75  O         44.0610   72.1400   21.9540 O.2   104  VAL104     -0.2867
     76  CB        46.1110   69.9130   22.3090 C.3   104  VAL104      0.0252
     77  CG1       45.5150   69.1300   23.4700 C.3   104  VAL104      0.0019
     78  CG2       47.3470   69.2120   21.7730 C.3   104  VAL104      0.0019
     79  N         41.5190   64.9070   10.8420 N.3   175  VAL175     -0.1231
     80  CA        41.7460   63.7620   11.7120 C.3   175  VAL175      0.1692
     81  C         41.6580   64.2040   13.1670 C.2   175  VAL175      0.2592
     82  O         42.2650   65.2020   13.5560 O.2   175  VAL175     -0.2718
     83  CB        43.1300   63.1410   11.4490 C.3   175  VAL175      0.0266
     84  CG1       43.5340   62.2070   12.5810 C.3   175  VAL175      0.0020
     85  CG2       43.1300   62.4090   10.1180 C.3   175  VAL175      0.0020
     86  N         40.9010   63.4520   13.9610 N.am  176  ILE176     -0.1966
     87  CA        40.7310   63.7300   15.3840 C.3   176  ILE176      0.1727
     88  C         41.0410   62.4750   16.1940 C.2   176  ILE176      0.2616
     89  O         40.7000   61.3730   15.7800 O.2   176  ILE176     -0.2715
     90  CB        39.2810   64.1760   15.7050 C.3   176  ILE176      0.0290
     91  CG1       38.8590   65.3380   14.8000 C.3   176  ILE176      0.0022
     92  CG2       39.1540   64.5830   17.1750 C.3   176  ILE176      0.0023
     93  CD1       37.4580   65.8440   15.0690 C.3   176  ILE176      0.0001
     94  N         41.6890   62.6440   17.3430 N.am  177  TYR177     -0.1974
     95  CA        41.8790   61.5450   18.2840 C.3   177  TYR177      0.1639
     96  C         41.3300   61.9250   19.6600 C.2   177  TYR177      0.2290
     97  O         41.7180   62.9410   20.2300 O.2   177  TYR177     -0.2864
     98  CB        43.3600   61.1310   18.3880 C.3   177  TYR177      0.0560
     99  CG        43.6200   60.1710   19.5380 C.ar  177  TYR177     -0.0198
    100  CD1       42.9560   58.9510   19.6030 C.ar  177  TYR177     -0.0009
    101  CD2       44.5000   60.4910   20.5710 C.ar  177  TYR177     -0.0009
    102  CE1       43.1600   58.0610   20.6540 C.ar  177  TYR177      0.0417
    103  CE2       44.7170   59.6060   21.6320 C.ar  177  TYR177      0.0417
    104  CZ        44.0370   58.3920   21.6670 C.ar  177  TYR177      0.1957
    105  OH        44.2370   57.5130   22.7080 O.3   177  TYR177     -0.2866
    106  N         42.5740   65.8590   19.8620 N.3   184  TYR184     -0.1227
    107  CA        43.7280   66.2690   19.0850 C.3   184  TYR184      0.1736
    108  C         43.3360   66.2920   17.6260 C.2   184  TYR184      0.2595
    109  O         43.0930   65.2480   17.0240 O.2   184  TYR184     -0.2718
    110  CB        44.8950   65.3170   19.3080 C.3   184  TYR184      0.0548
    111  CG        45.1850   65.0510   20.7600 C.ar  184  TYR184     -0.0200
    112  CD1       44.7470   63.8890   21.3640 C.ar  184  TYR184     -0.0009
    113  CD2       45.8910   65.9640   21.5290 C.ar  184  TYR184     -0.0009
    114  CE1       45.0040   63.6300   22.6900 C.ar  184  TYR184      0.0417
    115  CE2       46.1550   65.7180   22.8680 C.ar  184  TYR184      0.0417
    116  CZ        45.7080   64.5440   23.4420 C.ar  184  TYR184      0.1957
    117  OH        45.9610   64.2760   24.7680 O.3   184  TYR184     -0.2866
    118  N         43.2590   67.4950   17.0680 N.am  185  VAL185     -0.1966
    119  CA        42.7850   67.6840   15.7060 C.3   185  VAL185      0.1727
    120  C         43.9620   67.9520   14.7840 C.2   185  VAL185      0.2616
    121  O         44.8090   68.7940   15.0830 O.2   185  VAL185     -0.2715
    122  CB        41.7940   68.8560   15.6180 C.3   185  VAL185      0.0290
    123  CG1       41.1970   68.9420   14.2170 C.3   185  VAL185      0.0023
    124  CG2       40.7010   68.6990   16.6690 C.3   185  VAL185      0.0023
    125  N         44.0020   67.2330   13.6660 N.am  186  GLY186     -0.1955
    126  CA        45.0920   67.3510   12.7090 C.3   186  GLY186      0.1869
    127  C         44.6030   67.3930   11.2780 C.2   186  GLY186      0.2309
    128  O         43.5610   66.8210   10.9450 O.2   186  GLY186     -0.2863
    129  N         53.1650   72.9280   20.4690 N.3   221  PRO221     -0.2116
    130  CA        54.0920   71.8010   20.3850 C.3   221  PRO221      0.1372
    131  C         55.5040   72.2010   20.8100 C.2   221  PRO221      0.2244
    132  O         55.8810   73.3610   20.6350 O.2   221  PRO221     -0.2868
    133  CB        54.0680   71.4450   18.8990 C.3   221  PRO221      0.0268
    134  CG        53.7720   72.7290   18.2210 C.3   221  PRO221      0.0207
    135  CD        52.8350   73.4640   19.1350 C.3   221  PRO221      0.0892
    136  N         54.1380   68.4450   22.3570 N.3   223  PHE223     -0.1241
    137  CA        53.0580   68.0100   23.2500 C.3   223  PHE223      0.1605
    138  C         53.5230   66.9080   24.1980 C.2   223  PHE223      0.2264
    139  O         53.6800   65.7550   23.7950 O.2   223  PHE223     -0.2867
    140  CB        51.8610   67.4850   22.4540 C.3   223  PHE223      0.0534
    141  CG        51.2580   68.4920   21.5260 C.ar  223  PHE223     -0.0203
    142  CD1       50.7790   69.7010   22.0120 C.ar  223  PHE223     -0.0042
    143  CD2       51.1490   68.2250   20.1680 C.ar  223  PHE223     -0.0042
    144  CE1       50.2190   70.6370   21.1580 C.ar  223  PHE223     -0.0003
    145  CE2       50.5860   69.1540   19.3070 C.ar  223  PHE223     -0.0003
    146  CZ        50.1200   70.3630   19.8040 C.ar  223  PHE223     -0.0000
    147  N         52.7780   64.2450   26.2240 N.3   225  TRP225     -0.1241
    148  CA        51.5910   63.3950   26.3360 C.3   225  TRP225      0.1605
    149  C         51.9340   61.9310   26.5830 C.2   225  TRP225      0.2264
    150  O         52.5470   61.2920   25.7330 O.2   225  TRP225     -0.2867
    151  CB        50.7690   63.4990   25.0520 C.3   225  TRP225      0.0550
    152  CG        49.6470   62.5210   24.9920 C.ar  225  TRP225      0.0003
    153  CD1       48.4610   62.6030   25.6510 C.ar  225  TRP225      0.0946
    154  CD2       49.6080   61.3030   24.2420 C.ar  225  TRP225      0.0152
    155  NE1       47.6800   61.5160   25.3580 N.ar  225  TRP225     -0.2442
    156  CE2       48.3580   60.7000   24.4950 C.ar  225  TRP225      0.0810
    157  CE3       50.5080   60.6600   23.3820 C.ar  225  TRP225      0.0012
    158  CZ2       47.9800   59.4860   23.9170 C.ar  225  TRP225      0.0191
    159  CZ3       50.1310   59.4520   22.8070 C.ar  225  TRP225      0.0001
    160  CH2       48.8750   58.8780   23.0790 C.ar  225  TRP225      0.0015
    161  N         55.7940   65.0870   21.3240 N.3   230  LEU230     -0.1231
    162  CA        55.3520   65.0610   19.9330 C.3   230  LEU230      0.1693
    163  C         55.6610   66.3890   19.2560 C.2   230  LEU230      0.2592
    164  O         54.9440   67.3730   19.4410 O.2   230  LEU230     -0.2718
    165  CB        53.8550   64.7570   19.8600 C.3   230  LEU230      0.0284
    166  CG        53.4410   63.3930   20.4150 C.3   230  LEU230      0.0019
    167  CD1       51.9290   63.2870   20.4650 C.3   230  LEU230      0.0001
    168  CD2       54.0330   62.2620   19.5900 C.3   230  LEU230      0.0001
    169  N         56.7400   66.4040   18.4790 N.am  231  HIS231     -0.1962
    170  CA        57.1830   67.5990   17.7650 C.3   231  HIS231      0.1772
    171  C         56.5870   67.6100   16.3660 C.2   231  HIS231      0.2462
    172  O         56.0890   66.5880   15.9030 O.2   231  HIS231     -0.2730
    173  CB        58.7090   67.6180   17.6860 C.3   231  HIS231      0.0785
    174  CG        59.3750   67.7430   19.0170 C.ar  231  HIS231      0.0821
    175  ND1       59.4330   66.7020   19.9190 N.ar  231  HIS231     -0.2267
    176  CD2       60.0090   68.7850   19.6030 C.ar  231  HIS231      0.1154
    177  CE1       60.0780   67.0960   21.0020 C.ar  231  HIS231      0.1986
    178  NE2       60.4380   68.3560   20.8360 N.ar  231  HIS231     -0.2212
    179  N         56.6060   68.7750   15.6970 N.am  232  PRO232     -0.2727
    180  CA        56.1260   68.9290   14.3200 C.3   232  PRO232      0.1402
    181  C         56.4300   67.7910   13.3330 C.2   232  PRO232      0.2269
    182  O         55.5610   67.4420   12.5430 O.2   232  PRO232     -0.2865
    183  CB        56.8010   70.2220   13.8740 C.3   232  PRO232      0.0296
    184  CG        56.8130   71.0400   15.1090 C.3   232  PRO232      0.0237
    185  CD        57.0310   70.0750   16.2520 C.3   232  PRO232      0.0939
    186  N         57.4540   59.9630   12.2310 N.3   314  TYR314     -0.1241
    187  CA        56.0430   59.5860   12.1150 C.3   314  TYR314      0.1605
    188  C         55.8380   58.6860   10.9010 C.2   314  TYR314      0.2264
    189  O         56.7430   58.5100   10.0900 O.2   314  TYR314     -0.2867
    190  CB        55.1440   60.8280   12.0300 C.3   314  TYR314      0.0534
    191  CG        55.1430   61.6560   13.2930 C.ar  314  TYR314     -0.0201
    192  CD1       55.6170   62.9630   13.2910 C.ar  314  TYR314     -0.0009
    193  CD2       54.6850   61.1260   14.4950 C.ar  314  TYR314     -0.0009
    194  CE1       55.6260   63.7210   14.4480 C.ar  314  TYR314      0.0417
    195  CE2       54.6940   61.8780   15.6640 C.ar  314  TYR314      0.0417
    196  CZ        55.1640   63.1760   15.6330 C.ar  314  TYR314      0.1957
    197  OH        55.1720   63.9320   16.7850 O.3   314  TYR314     -0.2866
@<TRIPOS>BOND
     1    58    57    1
     2    57    56    1
     3    56    55    1
     4    31    30    1
     5    55    54    1
     6    54    51    1
     7    49    48    1
     8    40    39    1
     9    30    29    1
    10    35    34    2
    11    39    38    1
    12    29    28    1
    13    51    50    1
    14    51    52    1
    15    48    47    1
    16    50    43   am
    17    38    37    1
    18    28    27    1
    19    36    33    1
    20    36    37    1
    21    34    33    1
    22    34    41   am
    23    27    24    1
    24    43    42    1
    25    43    44    2
    26    42    41    1
    27    42    45    1
    28    32    33    1
    29    32    25   am
    30    47    46    1
    31    52    59   am
    32    52    53    2
    33   189   188    2
    34    85    83    1
    35    64    63    1
    36    24    25    1
    37    24    23    1
    38    59    60    1
    39    25    26    2
    40    45    46    1
    41    79    80    1
    42   188   187    1
    43   128   127    2
    44   127   126    1
    45    63    60    1
    46    83    80    1
    47    83    84    1
    48    23    17   am
    49    60    61    1
    50    80    81    1
    51    62    61    2
    52   190   187    1
    53   190   191    1
    54   187   186    1
    55    18    17    2
    56    17    16    1
    57    61    65   am
    58   182   181    2
    59   126   125    1
    60    81    82    2
    61    81    86   am
    62   192   191   ar
    63   192   194   ar
    64   191   193   ar
    65   181   180    1
    66   125   120   am
    67    65    66    1
    68    16    15    1
    69    16    19    1
    70   183   180    1
    71   183   184    1
    72    86    87    1
    73    71    69    1
    74   123   122    1
    75   180   179    1
    76   194   196   ar
    77   193   195   ar
    78    66    69    1
    79    66    67    1
    80    19    20    1
    81   120   121    2
    82   120   119    1
    83    91    93    1
    84    91    90    1
    85   184   185    1
    86    69    70    1
    87    87    90    1
    88    87    88    1
    89   122   119    1
    90   122   124    1
    91   196   195   ar
    92   196   197    1
    93   179   185    1
    94   179   171   am
    95    90    92    1
    96   119   118    1
    97    89    88    2
    98    11    10    2
    99   172   171    2
   100    67    68    2
   101    88    94   am
   102    22    20    1
   103    20    21    1
   104   171   170    1
   105    10     9    1
   106   109   108    2
   107   118   108   am
   108    94    95    1
   109   108   107    1
   110   173   170    1
   111   173   174    1
   112   170   169    1
   113   134   133    1
   114   134   135    1
   115     9    12    1
   116     9     8    1
   117    95    98    1
   118    95    96    1
   119    98    99    1
   120   169   163   am
   121   133   130    1
   122   174   176   ar
   123   174   175   ar
   124   107   110    1
   125   107   106    1
   126    12    13    1
   127     8    14    1
   128   135   129    1
   129   163   164    2
   130   163   162    1
   131   145   146   ar
   132   145   143   ar
   133   110   111    1
   134    99   100   ar
   135    99   101   ar
   136     5     2    1
   137     5     6    1
   138   168   166    1
   139   176   178   ar
   140   100   102   ar
   141    96    97    2
   142   146   144   ar
   143   165   162    1
   144   165   166    1
   145   175   177   ar
   146   162   161    1
   147    72    73    1
   148   143   141   ar
   149     2     3    1
   150     2     1    1
   151     6     7    1
   152   130   129    1
   153   130   131    1
   154   166   167    1
   155     3     4    2
   156    13    14    1
   157   101   103   ar
   158   132   131    2
   159   102   104   ar
   160   111   112   ar
   161   111   113   ar
   162   178   177   ar
   163   144   142   ar
   164    73    74    1
   165    73    76    1
   166   112   114   ar
   167     1     7    1
   168   141   142   ar
   169   141   140    1
   170   113   115   ar
   171   103   104   ar
   172   104   105    1
   173    74    75    2
   174    78    76    1
   175    76    77    1
   176   136   137    1
   177   140   137    1
   178   114   116   ar
   179   159   160   ar
   180   159   157   ar
   181   115   116   ar
   182   160   158   ar
   183   137   138    1
   184   157   154   ar
   185   116   117    1
   186   139   138    2
   187   158   156   ar
   188   154   156   ar
   189   154   152   ar
   190   156   155   ar
   191   152   151    1
   192   152   153   ar
   193   151   148    1
   194   155   153   ar
   195   150   149    2
   196   147   148    1
   197   148   149    1
