@<TRIPOS>MOLECULE
tmp/3ffoA00.pdb
 102 99 0 0 0
SMALL
GASTEIGER

@<TRIPOS>ATOM
      1  N        -27.5300   49.4600   -1.2880 N.3    43  ALA43      -0.1231
      2  CA       -28.0880   48.7380   -0.1520 C.3    43  ALA43       0.1694
      3  C        -27.0530   47.9350    0.6400 C.2    43  ALA43       0.2592
      4  O        -27.3070   47.5580    1.7850 O.2    43  ALA43      -0.2718
      5  CB       -29.2380   47.8400   -0.6030 C.3    43  ALA43       0.0304
      6  N        -25.8830   47.6940    0.0500 N.am   44  ASN44      -0.1974
      7  CA       -24.9240   46.7490    0.6330 C.3    44  ASN44       0.1688
      8  C        -23.4940   47.2710    0.7360 C.2    44  ASN44       0.2292
      9  O        -22.6160   46.8620   -0.0220 O.2    44  ASN44      -0.2864
     10  CB       -24.9410   45.4440   -0.1630 C.3    44  ASN44       0.1181
     11  CG       -26.3500   44.9910   -0.4990 C.2    44  ASN44       0.2629
     12  OD1      -27.1420   44.6760    0.3890 O.2    44  ASN44      -0.2716
     13  ND2      -26.6730   44.9710   -1.7850 N.am   44  ASN44      -0.0877
     14  N        -29.7180   56.7560    5.0000 N.3    88  ASP88      -0.1225
     15  CA       -29.8340   55.3160    4.8450 C.3    88  ASP88       0.1805
     16  C        -30.0990   55.0000    3.3840 C.2    88  ASP88       0.2598
     17  O        -30.2800   55.9050    2.5760 O.2    88  ASP88      -0.2718
     18  CB       -30.9660   54.7830    5.7180 C.3    88  ASP88       0.1424
     19  CG       -30.9510   53.2650    5.8350 C.2    88  ASP88       0.3668
     20  OD1      -29.8680   52.6570    5.6720 O.co2  88  ASP88      -0.2456
     21  OD2      -32.0270   52.6870    6.0960 O.co2  88  ASP88      -0.2456
     22  N        -30.1310   53.7160    3.0530 N.am   89  THR89      -0.1953
     23  CA       -30.2260   53.2770    1.6630 C.3    89  THR89       0.1897
     24  C        -31.3170   53.9710    0.8520 C.2    89  THR89       0.2313
     25  O        -31.0800   54.4160   -0.2670 O.2    89  THR89      -0.2863
     26  CB       -30.4630   51.7620    1.5840 C.3    89  THR89       0.1794
     27  OG1      -29.4190   51.0820    2.2870 O.3    89  THR89      -0.2208
     28  CG2      -30.4840   51.3090    0.1350 C.3    89  THR89       0.0378
     29  N        -35.4040   58.5290    2.8530 N.3    93  ARG93      -0.1245
     30  CA       -34.9540   58.6690    4.2270 C.3    93  ARG93       0.1563
     31  C        -33.7260   59.5670    4.3510 C.2    93  ARG93       0.2260
     32  O        -33.1110   59.6410    5.4120 O.2    93  ARG93      -0.2867
     33  CB       -34.7030   57.2910    4.8490 C.3    93  ARG93       0.0307
     34  CG       -35.9470   56.7190    5.5080 C.3    93  ARG93       0.0489
     35  CD       -36.0510   55.2130    5.3470 C.3    93  ARG93       0.2205
     36  NE       -37.4490   54.7870    5.3140 N.pl3  93  ARG93      -0.0865
     37  CZ       -37.8610   53.6000    4.8790 C.cat  93  ARG93       0.5346
     38  NH1      -39.1550   53.3070    4.8810 N.pl3  93  ARG93       0.1354
     39  NH2      -36.9810   52.7090    4.4400 N.pl3  93  ARG93       0.1354
     40  N        -28.3850   59.0700    9.8590 N.3   106  PHE106     -0.1241
     41  CA       -29.2370   57.9020   10.0100 C.3   106  PHE106      0.1605
     42  C        -29.1330   57.4200   11.4450 C.2   106  PHE106      0.2264
     43  O        -28.0630   57.0110   11.9000 O.2   106  PHE106     -0.2867
     44  CB       -28.8430   56.7930    9.0280 C.3   106  PHE106      0.0534
     45  CG       -29.5060   55.4640    9.3170 C.ar  106  PHE106     -0.0203
     46  CD1      -30.8840   55.3830    9.4910 C.ar  106  PHE106     -0.0042
     47  CD2      -28.7540   54.2990    9.4070 C.ar  106  PHE106     -0.0042
     48  CE1      -31.4960   54.1690    9.7540 C.ar  106  PHE106     -0.0003
     49  CE2      -29.3610   53.0800    9.6600 C.ar  106  PHE106     -0.0003
     50  CZ       -30.7350   53.0140    9.8340 C.ar  106  PHE106     -0.0000
     51  N        -29.8770   51.2020   13.4870 N.3   109  TRP109     -0.1241
     52  CA       -30.6570   50.0130   13.8010 C.3   109  TRP109      0.1605
     53  C        -29.7370   48.9020   14.3000 C.2   109  TRP109      0.2264
     54  O        -28.5060   48.9950   14.1970 O.2   109  TRP109     -0.2867
     55  CB       -31.4560   49.5400   12.5800 C.3   109  TRP109      0.0550
     56  CG       -30.6140   48.9090   11.5160 C.ar  109  TRP109      0.0003
     57  CD1      -29.5090   49.4460   10.9210 C.ar  109  TRP109      0.0946
     58  CD2      -30.8130   47.6250   10.9100 C.ar  109  TRP109      0.0152
     59  NE1      -29.0040   48.5740    9.9860 N.ar  109  TRP109     -0.2442
     60  CE2      -29.7840   47.4520    9.9590 C.ar  109  TRP109      0.0810
     61  CE3      -31.7560   46.6080   11.0800 C.ar  109  TRP109      0.0012
     62  CZ2      -29.6760   46.2970    9.1800 C.ar  109  TRP109      0.0191
     63  CZ3      -31.6460   45.4610   10.3040 C.ar  109  TRP109      0.0001
     64  CH2      -30.6130   45.3180    9.3640 C.ar  109  TRP109      0.0015
     65  N        -29.2880   37.3740   12.7600 N.3   114  TYR114     -0.1241
     66  CA       -29.2080   37.0390   11.3480 C.3   114  TYR114      0.1605
     67  C        -28.1090   37.8830   10.7140 C.2   114  TYR114      0.2264
     68  O        -27.5930   38.8110   11.3360 O.2   114  TYR114     -0.2867
     69  CB       -30.5500   37.3000   10.6580 C.3   114  TYR114      0.0534
     70  CG       -31.2500   38.6150   10.8840 C.ar  114  TYR114     -0.0201
     71  CD1      -31.9310   38.8500   12.0500 C.ar  114  TYR114     -0.0009
     72  CD2      -31.2050   39.5590    9.8950 C.ar  114  TYR114     -0.0009
     73  CE1      -32.5760   40.0600   12.2140 C.ar  114  TYR114      0.0417
     74  CE2      -31.8510   40.7630   10.0520 C.ar  114  TYR114      0.0417
     75  CZ       -32.5340   41.0160   11.2050 C.ar  114  TYR114      0.1957
     76  OH       -33.1820   42.2290   11.3740 O.3   114  TYR114     -0.2866
     77  N        -27.2450   40.5270    7.6840 N.3   116  SER116     -0.1202
     78  CA       -27.9220   41.4820    6.8250 C.3   116  SER116      0.2020
     79  C        -26.8960   42.5320    6.4520 C.2   116  SER116      0.2619
     80  O        -25.7030   42.3530    6.7080 O.2   116  SER116     -0.2717
     81  CB       -29.1040   42.1190    7.5580 C.3   116  SER116      0.2103
     82  OG       -29.9650   42.8040    6.6660 O.3   116  SER116     -0.2182
     83  N        -27.3500   43.6290    5.8560 N.am  117  THR117     -0.1938
     84  CA       -26.4370   44.6800    5.4240 C.3   117  THR117      0.2028
     85  C        -26.8740   46.0780    5.8430 C.2   117  THR117      0.2642
     86  O        -28.0520   46.3280    6.1050 O.2   117  THR117     -0.2714
     87  CB       -26.2990   44.7000    3.9030 C.3   117  THR117      0.1808
     88  OG1      -27.6040   44.7810    3.3160 O.3   117  THR117     -0.2208
     89  CG2      -25.5850   43.4450    3.4140 C.3   117  THR117      0.0379
     90  N        -25.9000   46.9810    5.8910 N.am  118  GLN118     -0.1963
     91  CA       -26.1610   48.4030    6.0460 C.3   118  GLN118      0.1733
     92  C        -25.7630   49.1090    4.7600 C.2   118  GLN118      0.2616
     93  O        -24.6410   48.9430    4.2730 O.2   118  GLN118     -0.2715
     94  CB       -25.3600   48.9770    7.2120 C.3   118  GLN118      0.0408
     95  CG       -25.5250   50.4760    7.3780 C.3   118  GLN118      0.0908
     96  CD       -26.9730   50.8650    7.5530 C.2   118  GLN118      0.2608
     97  OE1      -27.7010   50.2480    8.3340 O.2   118  GLN118     -0.2717
     98  NE2      -27.4060   51.8860    6.8220 N.am  118  GLN118     -0.0878
     99  N        -26.6880   49.8890    4.2120 N.am  119  GLY119     -0.1955
    100  CA       -26.4350   50.6180    2.9850 C.3   119  GLY119      0.1869
    101  C        -26.4450   52.1130    3.2300 C.2   119  GLY119      0.2309
    102  O        -26.3940   52.5590    4.3780 O.2   119  GLY119     -0.2863
@<TRIPOS>BOND
     1    13    11   am
     2     1     2    1
     3     5     2    1
     4    11    10    1
     5    11    12    2
     6    25    24    2
     7    10     7    1
     8     2     3    1
     9     9     8    2
    10     6     7    1
    11     6     3   am
    12    28    26    1
    13     7     8    1
    14     3     4    2
    15    24    23    1
    16    26    23    1
    17    26    27    1
    18    23    22    1
    19    17    16    2
    20    29    30    1
    21   100   101    1
    22   100    99    1
    23    22    16   am
    24   101   102    2
    25    88    87    1
    26    16    15    1
    27    89    87    1
    28    87    84    1
    29    99    92   am
    30    30    31    1
    31    30    33    1
    32    93    92    2
    33    31    32    2
    34    39    37    1
    35    92    91    1
    36    15    14    1
    37    15    18    1
    38    33    34    1
    39    37    38    1
    40    37    36    2
    41    36    35    1
    42    35    34    1
    43    84    85    1
    44    84    83    1
    45    20    19   ar
    46    18    19    1
    47    19    21   ar
    48    85    90   am
    49    85    86    2
    50    83    79   am
    51    90    91    1
    52    91    94    1
    53    79    80    2
    54    79    78    1
    55    82    81    1
    56    98    96   am
    57    78    81    1
    58    78    77    1
    59    94    95    1
    60    95    96    1
    61    96    97    2
    62    44    45    1
    63    44    41    1
    64    62    64   ar
    65    62    60   ar
    66    45    47   ar
    67    45    46   ar
    68    64    63   ar
    69    47    49   ar
    70    46    48   ar
    71    49    50   ar
    72    48    50   ar
    73    40    41    1
    74    72    74   ar
    75    72    70   ar
    76    60    59   ar
    77    60    58   ar
    78    59    57   ar
    79    41    42    1
    80    74    75   ar
    81    63    61   ar
    82    69    70    1
    83    69    66    1
    84    67    68    2
    85    67    66    1
    86    70    71   ar
    87    58    61   ar
    88    58    56   ar
    89    57    56   ar
    90    75    76    1
    91    75    73   ar
    92    66    65    1
    93    42    43    2
    94    56    55    1
    95    71    73   ar
    96    55    52    1
    97    51    52    1
    98    52    53    1
    99    54    53    2
