@<TRIPOS>MOLECULE
tmp/3ffpA00.pdb
 122 121 0 0 0
SMALL
GASTEIGER

@<TRIPOS>ATOM
      1  N        -13.9830    8.3520   12.7980 N.3    88  ILE88      -0.1231
      2  CA       -13.0560    8.7270   11.7190 C.3    88  ILE88       0.1692
      3  C        -12.7400    7.5800   10.7270 C.2    88  ILE88       0.2591
      4  O        -12.6620    7.8100    9.5330 O.2    88  ILE88      -0.2718
      5  CB       -11.7340    9.4760   12.2410 C.3    88  ILE88       0.0266
      6  CG1      -10.8320    9.9030   11.0510 C.3    88  ILE88       0.0019
      7  CG2      -10.9630    8.6740   13.2950 C.3    88  ILE88       0.0020
      8  CD1       -9.7660   10.9770   11.4330 C.3    88  ILE88       0.0001
      9  N        -12.5630    6.3530   11.2250 N.am   89  GLN89      -0.1979
     10  CA       -12.2630    5.2170   10.3410 C.3    89  GLN89       0.1601
     11  C        -12.5410    3.9220   11.0870 C.2    89  GLN89       0.2287
     12  O        -12.6510    3.9430   12.3050 O.2    89  GLN89      -0.2864
     13  CB       -10.8070    5.2540    9.8610 C.3    89  GLN89       0.0394
     14  CG        -9.7270    5.2780   10.9900 C.3    89  GLN89       0.0908
     15  CD        -8.9860    3.9310   11.0710 C.2    89  GLN89       0.2608
     16  OE1       -9.6050    2.8990   11.2100 O.2    89  GLN89      -0.2717
     17  NE2       -7.6650    3.9520   10.9230 N.am   89  GLN89      -0.0878
     18  N        -11.1500   -0.4490   10.8440 N.3    91  HIS91      -0.1241
     19  CA       -10.2040   -1.3900   10.2570 C.3    91  HIS91       0.1621
     20  C        -10.2740   -2.6400   11.1030 C.2    91  HIS91       0.2264
     21  O        -10.9290   -2.6520   12.1550 O.2    91  HIS91      -0.2867
     22  CB        -8.7630   -0.8560   10.2440 C.3    91  HIS91       0.0745
     23  CG        -8.2260   -0.5910   11.6080 C.ar   91  HIS91       0.0817
     24  ND1       -8.4100    0.6140   12.2530 N.ar   91  HIS91      -0.2268
     25  CD2       -7.5980   -1.4040   12.4860 C.ar   91  HIS91       0.1154
     26  CE1       -7.8730    0.5400   13.4610 C.ar   91  HIS91       0.1986
     27  NE2       -7.3590   -0.6710   13.6180 N.ar   91  HIS91      -0.2212
     28  N         -8.0380   -6.4020   12.4550 N.3    93  HIS93      -0.1241
     29  CA        -6.7970   -7.1610   12.6110 C.3    93  HIS93       0.1621
     30  C         -7.2260   -8.6240   12.5060 C.2    93  HIS93       0.2264
     31  O         -8.2710   -8.9960   13.0560 O.2    93  HIS93      -0.2867
     32  CB        -6.1660   -6.9170   13.9830 C.3    93  HIS93       0.0745
     33  CG        -5.9000   -5.4740   14.2820 C.ar   93  HIS93       0.0817
     34  ND1       -4.6510   -4.9030   14.1590 N.ar   93  HIS93      -0.2268
     35  CD2       -6.7370   -4.4790   14.6610 C.ar   93  HIS93       0.1154
     36  CE1       -4.7240   -3.6200   14.4930 C.ar   93  HIS93       0.1986
     37  NE2       -5.9850   -3.3350   14.7850 N.ar   93  HIS93      -0.2212
     38  N        -11.9720   -2.5470   14.7920 N.3   116  HIS116     -0.1241
     39  CA       -11.6920   -1.3370   15.5320 C.3   116  HIS116      0.1621
     40  C        -12.3490   -0.1500   14.8420 C.2   116  HIS116      0.2264
     41  O        -11.9980    0.1780   13.7010 O.2   116  HIS116     -0.2867
     42  CB       -10.1610   -1.1400   15.6600 C.3   116  HIS116      0.0745
     43  CG        -9.5230   -2.1160   16.6010 C.ar  116  HIS116      0.0817
     44  ND1       -8.1700   -2.3720   16.6210 N.ar  116  HIS116     -0.2268
     45  CD2      -10.0690   -2.9280   17.5370 C.ar  116  HIS116      0.1154
     46  CE1       -7.9050   -3.2880   17.5370 C.ar  116  HIS116      0.1986
     47  NE2       -9.0410   -3.6360   18.1120 N.ar  116  HIS116     -0.2212
     48  N        -12.7320    3.7460   15.1040 N.3   118  VAL118     -0.1245
     49  CA       -11.8390    4.7080   15.7680 C.3   118  VAL118      0.1561
     50  C        -12.5610    6.0660   15.8280 C.2   118  VAL118      0.2260
     51  O        -13.0310    6.5710   14.7890 O.2   118  VAL118     -0.2867
     52  CB       -10.4850    4.8410   15.0470 C.3   118  VAL118      0.0252
     53  CG1       -9.5160    5.7810   15.8010 C.3   118  VAL118      0.0019
     54  CG2       -9.8600    3.4870   14.7490 C.3   118  VAL118      0.0019
     55  N         -8.5150   15.0750   14.7780 N.3   127  PHE127     -0.1241
     56  CA        -7.7780   13.8590   15.1580 C.3   127  PHE127      0.1605
     57  C         -6.3600   14.1400   15.6400 C.2   127  PHE127      0.2264
     58  O         -5.9120   13.5650   16.6390 O.2   127  PHE127     -0.2867
     59  CB        -7.6830   12.8810   13.9850 C.3   127  PHE127      0.0534
     60  CG        -7.0320   11.5970   14.3440 C.ar  127  PHE127     -0.0203
     61  CD1       -5.6670   11.4000   14.1260 C.ar  127  PHE127     -0.0042
     62  CD2       -7.7800   10.5750   14.9320 C.ar  127  PHE127     -0.0042
     63  CE1       -5.0540   10.1900   14.4600 C.ar  127  PHE127     -0.0003
     64  CE2       -7.1760    9.3660   15.2860 C.ar  127  PHE127     -0.0003
     65  CZ        -5.8140    9.1720   15.0580 C.ar  127  PHE127     -0.0000
     66  N        -11.7720    3.8880   21.0290 N.3   139  VAL139     -0.1245
     67  CA       -11.8730    2.8150   20.0580 C.3   139  VAL139      0.1561
     68  C        -12.8560    1.7560   20.5500 C.2   139  VAL139      0.2260
     69  O        -12.7300    1.2200   21.6580 O.2   139  VAL139     -0.2867
     70  CB       -10.4900    2.2270   19.6680 C.3   139  VAL139      0.0252
     71  CG1      -10.6500    1.1920   18.4950 C.3   139  VAL139      0.0019
     72  CG2       -9.5360    3.3680   19.2090 C.3   139  VAL139      0.0019
     73  N         -3.0010    3.3050   21.0850 N.3   194  LEU194     -0.1231
     74  CA        -3.0590    2.7480   19.7430 C.3   194  LEU194      0.1693
     75  C         -2.2870    1.4190   19.7670 C.2   194  LEU194      0.2593
     76  O         -1.2570    1.3270   20.4390 O.2   194  LEU194     -0.2718
     77  CB        -2.3820    3.7310   18.7940 C.3   194  LEU194      0.0284
     78  CG        -2.9410    5.1450   18.6340 C.3   194  LEU194      0.0019
     79  CD1       -2.0650    5.8750   17.6200 C.3   194  LEU194      0.0001
     80  CD2       -4.3680    5.1060   18.1530 C.3   194  LEU194      0.0001
     81  N         -2.7430    0.4100   19.0140 N.am  195  THR195     -0.1939
     82  CA        -2.0620   -0.8970   18.9830 C.3   195  THR195      0.2028
     83  C         -1.0260   -1.0660   17.8450 C.2   195  THR195      0.2643
     84  O         -0.4070   -2.1300   17.7220 O.2   195  THR195     -0.2714
     85  CB        -3.0430   -2.0840   18.8850 C.3   195  THR195      0.1808
     86  OG1       -3.6520   -2.0540   17.5910 O.3   195  THR195     -0.2208
     87  CG2       -4.1010   -2.0880   20.0300 C.3   195  THR195      0.0379
     88  N         -0.8910   -0.0510   16.9970 N.am  196  THR196     -0.1937
     89  CA         0.2260    0.0190   16.0380 C.3   196  THR196      0.2013
     90  C          1.0730    1.2530   16.3090 C.2   196  THR196      0.2484
     91  O          0.6100    2.2130   16.9300 O.2   196  THR196     -0.2729
     92  CB        -0.2600    0.1440   14.5680 C.3   196  THR196      0.1807
     93  OG1       -0.9120    1.4020   14.3830 O.3   196  THR196     -0.2208
     94  CG2       -1.2210   -0.9590   14.1950 C.3   196  THR196      0.0379
     95  N          2.3350    1.2470   15.8260 N.am  197  PRO197     -0.2715
     96  CA         3.0690    2.4970   15.9040 C.3   197  PRO197      0.1521
     97  C          2.2260    3.6530   15.3440 C.2   197  PRO197      0.2440
     98  O          1.5540    3.4880   14.3240 O.2   197  PRO197     -0.2731
     99  CB         4.3260    2.2060   15.0680 C.3   197  PRO197      0.0310
    100  CG         4.5830    0.7530   15.2910 C.3   197  PRO197      0.0237
    101  CD         3.1610    0.1350   15.3130 C.3   197  PRO197      0.0939
    102  N          2.2740    4.8440   15.9770 N.am  198  PRO198     -0.2727
    103  CA         3.1420    5.2920   17.0480 C.3   198  PRO198      0.1402
    104  C          2.7170    4.9000   18.4850 C.2   198  PRO198      0.2269
    105  O          3.3010    5.4270   19.4220 O.2   198  PRO198     -0.2865
    106  CB         3.1010    6.8290   16.8850 C.3   198  PRO198      0.0296
    107  CG         1.7420    7.0750   16.4100 C.3   198  PRO198      0.0237
    108  CD         1.4370    5.9470   15.4720 C.3   198  PRO198      0.0939
    109  N        -10.4980    2.4070   25.6060 N.3   205  TRP205     -0.1241
    110  CA       -10.9340    1.2140   24.9260 C.3   205  TRP205      0.1605
    111  C        -12.2840    0.7570   25.4230 C.2   205  TRP205      0.2264
    112  O        -12.5410    0.7100   26.6300 O.2   205  TRP205     -0.2867
    113  CB        -9.8980    0.1020   25.0990 C.3   205  TRP205      0.0550
    114  CG        -8.8010    0.2180   24.1020 C.ar  205  TRP205      0.0003
    115  CD1       -7.5650    0.7980   24.2600 C.ar  205  TRP205      0.0946
    116  CD2       -8.8680   -0.2360   22.7460 C.ar  205  TRP205      0.0152
    117  NE1       -6.8740    0.7280   23.0740 N.ar  205  TRP205     -0.2442
    118  CE2       -7.6430    0.0820   22.1350 C.ar  205  TRP205      0.0810
    119  CE3       -9.8630   -0.8730   21.9930 C.ar  205  TRP205      0.0012
    120  CZ2       -7.3690   -0.2200   20.7730 C.ar  205  TRP205      0.0191
    121  CZ3       -9.5950   -1.1960   20.6560 C.ar  205  TRP205      0.0001
    122  CH2       -8.3610   -0.8710   20.0590 C.ar  205  TRP205      0.0015
@<TRIPOS>BOND
     1     4     3    2
     2    13    10    1
     3    13    14    1
     4    22    19    1
     5    22    23    1
     6    19    18    1
     7    19    20    1
     8    10    11    1
     9    10     9    1
    10     3     9   am
    11     3     2    1
    12    17    15   am
    13    14    15    1
    14     6     8    1
    15     6     5    1
    16    15    16    2
    17    11    12    2
    18    20    21    2
    19    23    24   ar
    20    23    25   ar
    21     2     5    1
    22     2     1    1
    23     5     7    1
    24    24    26   ar
    25    28    29    1
    26    25    27   ar
    27    30    29    1
    28    30    31    2
    29    29    32    1
    30    26    27   ar
    31    41    40    2
    32    32    33    1
    33    59    60    1
    34    59    56    1
    35    61    60   ar
    36    61    63   ar
    37    34    33   ar
    38    34    36   ar
    39    94    92    1
    40    33    35   ar
    41    98    97    2
    42    60    62   ar
    43    93    92    1
    44    63    65   ar
    45    36    37   ar
    46    92    89    1
    47    35    37   ar
    48    54    52    1
    49    55    56    1
    50    51    50    2
    51    38    39    1
    52    40    39    1
    53    62    64   ar
    54    52    49    1
    55    52    53    1
    56    65    64   ar
    57    99   100    1
    58    99    96    1
    59    48    49    1
    60    56    57    1
    61   100   101    1
    62   101    95    1
    63    97    96    1
    64    97   102   am
    65   108   102    1
    66   108   107    1
    67    39    42    1
    68    57    58    2
    69    42    43    1
    70    49    50    1
    71    95    96    1
    72    95    90   am
    73   102   103    1
    74    89    90    1
    75    89    88    1
    76    90    91    2
    77   107   106    1
    78    43    44   ar
    79    43    45   ar
    80    44    46   ar
    81   106   103    1
    82    88    83   am
    83   103   104    1
    84    45    47   ar
    85    46    47   ar
    86    86    85    1
    87    79    78    1
    88    84    83    2
    89    83    82    1
    90    80    78    1
    91   104   105    2
    92    71    70    1
    93    78    77    1
    94    77    74    1
    95    85    82    1
    96    85    87    1
    97    82    81    1
    98    81    75   am
    99    72    70    1
   100    70    67    1
   101    74    75    1
   102    74    73    1
   103    75    76    2
   104    67    68    1
   105    67    66    1
   106   122   121   ar
   107   122   120   ar
   108    68    69    2
   109   121   119   ar
   110   120   118   ar
   111   119   116   ar
   112   118   116   ar
   113   118   117   ar
   114   116   114   ar
   115   117   115   ar
   116   114   115   ar
   117   114   113    1
   118   110   113    1
   119   110   111    1
   120   110   109    1
   121   111   112    2
