@<TRIPOS>MOLECULE
tmp/3ffrA06.pdb
 87 80 0 0 0
SMALL
GASTEIGER

@<TRIPOS>ATOM
      1  N         20.3320   30.8860   61.5090 N.3    81  GLU81      -0.1231
      2  CA        19.4060   30.0500   62.2620 C.3    81  GLU81       0.1699
      3  C         20.1510   28.8620   62.8610 C.2    81  GLU81       0.2592
      4  O         20.0200   28.5600   64.0590 O.2    81  GLU81      -0.2718
      5  CB        18.2570   29.5320   61.3790 C.3    81  GLU81       0.0402
      6  CG        17.2070   28.7840   62.2040 C.3    81  GLU81       0.1161
      7  CD        15.9730   28.3930   61.3910 C.2    81  GLU81       0.3649
      8  OE1       15.9600   28.6310   60.1810 O.co2  81  GLU81      -0.2457
      9  OE2       15.0200   27.8550   61.9710 O.co2  81  GLU81      -0.2457
     10  N         20.9380   28.2010   62.0320 N.am   82  LYS82      -0.1980
     11  CA        21.6160   26.9650   62.4250 C.3    82  LYS82       0.1596
     12  C         23.1190   26.8970   62.1700 C.2    82  LYS82       0.2287
     13  O         23.8990   26.5620   63.0620 O.2    82  LYS82      -0.2864
     14  CB        20.9450   25.7940   61.6930 C.3    82  LYS82       0.0298
     15  CG        19.4530   25.6680   61.9860 C.3    82  LYS82       0.0038
     16  CD        18.7950   24.4990   61.3020 C.3    82  LYS82       0.0206
     17  CE        17.3280   24.4310   61.6830 C.3    82  LYS82       0.1093
     18  NZ        17.1710   24.4460   63.1810 N.3    82  LYS82      -0.1314
     19  N         26.3730   23.3390   51.2650 N.3   127  ALA127     -0.1231
     20  CA        25.1430   23.9720   50.8280 C.3   127  ALA127      0.1694
     21  C         24.3020   24.5140   51.9610 C.2   127  ALA127      0.2592
     22  O         23.5940   25.5210   51.8010 O.2   127  ALA127     -0.2718
     23  CB        24.3120   22.9770   49.9510 C.3   127  ALA127      0.0304
     24  N         24.3720   23.8530   53.1060 N.am  128  ASP128     -0.1960
     25  CA        23.5310   24.2500   54.2660 C.3   128  ASP128      0.1840
     26  C         24.1560   25.3510   55.1310 C.2   128  ASP128      0.2622
     27  O         23.6000   25.7490   56.1390 O.2   128  ASP128     -0.2715
     28  CB        23.0840   23.0550   55.1170 C.3   128  ASP128      0.1450
     29  CG        24.2180   22.3360   55.7880 C.2   128  ASP128      0.3671
     30  OD1       25.3900   22.6920   55.5340 O.co2 128  ASP128     -0.2456
     31  OD2       23.9170   21.3890   56.5600 O.co2 128  ASP128     -0.2456
     32  N         25.3240   25.8340   54.7190 N.am  129  ALA129     -0.1963
     33  CA        25.9330   27.0210   55.3770 C.3   129  ALA129      0.1728
     34  C         25.0770   28.2270   54.9720 C.2   129  ALA129      0.2616
     35  O         24.8520   28.4670   53.7810 O.2   129  ALA129     -0.2715
     36  CB        27.3860   27.2420   54.9360 C.3   129  ALA129      0.0334
     37  N         24.6230   28.9920   55.9550 N.am  130  GLU130     -0.1977
     38  CA        23.7330   30.1420   55.7120 C.3   130  GLU130      0.1602
     39  C         24.4910   31.4070   55.4300 C.2   130  GLU130      0.2287
     40  O         23.9820   32.3260   54.7770 O.2   130  GLU130     -0.2864
     41  CB        22.7980   30.3660   56.9090 C.3   130  GLU130      0.0415
     42  CG        21.9170   29.1900   57.1810 C.3   130  GLU130      0.1163
     43  CD        21.1880   29.2930   58.5180 C.2   130  GLU130      0.3649
     44  OE1       20.5780   30.3580   58.7430 O.co2 130  GLU130     -0.2457
     45  OE2       21.1930   28.2900   59.2930 O.co2 130  GLU130     -0.2457
     46  N         28.4150   28.9870   47.0040 N.3   156  ASN156     -0.1240
     47  CA        27.1390   28.8340   47.7120 C.3   156  ASN156      0.1653
     48  C         26.3460   30.1000   47.4290 C.2   156  ASN156      0.2266
     49  O         26.4900   31.0920   48.1140 O.2   156  ASN156     -0.2867
     50  CB        27.3230   28.5780   49.2180 C.3   156  ASN156      0.1155
     51  CG        26.0200   28.3120   49.9380 C.2   156  ASN156      0.2627
     52  OD1       24.9820   28.8510   49.5610 O.2   156  ASN156     -0.2716
     53  ND2       26.0720   27.5200   51.0270 N.am  156  ASN156     -0.0877
     54  N         23.3150   31.0900   47.7370 N.3   158  ASP158     -0.1239
     55  CA        22.3100   31.6060   48.6500 C.3   158  ASP158      0.1674
     56  C         22.8910   32.1370   49.9490 C.2   158  ASP158      0.2266
     57  O         22.2180   32.8720   50.6990 O.2   158  ASP158     -0.2867
     58  CB        21.2310   30.5720   48.9540 C.3   158  ASP158      0.1410
     59  CG        20.2410   30.4500   47.8400 C.2   158  ASP158      0.3668
     60  OD1       20.0130   31.4630   47.1470 O.co2 158  ASP158     -0.2456
     61  OD2       19.6860   29.3600   47.6530 O.co2 158  ASP158     -0.2456
     62  N         17.0820   38.4660   55.3010 N.3   207  LYS207     -0.1245
     63  CA        17.3040   37.2390   56.0840 C.3   207  LYS207      0.1561
     64  C         16.8910   37.4870   57.5420 C.2   207  LYS207      0.2260
     65  O         16.2440   36.6500   58.1720 O.2   207  LYS207     -0.2867
     66  CB        18.7680   36.7460   55.9850 C.3   207  LYS207      0.0271
     67  CG        19.0880   35.5430   56.8920 C.3   207  LYS207      0.0035
     68  CD        18.3440   34.2550   56.5020 C.3   207  LYS207      0.0206
     69  CE        18.6780   33.0820   57.4310 C.3   207  LYS207      0.1093
     70  NZ        20.0490   32.5770   57.2500 N.3   207  LYS207     -0.1314
     71  N         13.9670   35.4390   59.7080 N.3   211  LEU211     -0.1245
     72  CA        14.1820   34.7370   60.9950 C.3   211  LEU211      0.1561
     73  C         13.2250   35.2300   62.0580 C.2   211  LEU211      0.2260
     74  O         12.6450   34.4490   62.8060 O.2   211  LEU211     -0.2867
     75  CB        15.5990   34.9330   61.5130 C.3   211  LEU211      0.0270
     76  CG        16.6420   34.1590   60.7580 C.3   211  LEU211      0.0019
     77  CD1       17.9980   34.3490   61.4800 C.3   211  LEU211      0.0001
     78  CD2       16.2300   32.6760   60.6820 C.3   211  LEU211      0.0001
     79  N          9.8590   33.8210   61.6480 N.3   214  LYS214     -0.1245
     80  CA         9.8220   32.4050   62.0540 C.3   214  LYS214      0.1561
     81  C          9.6790   32.3290   63.5480 C.2   214  LYS214      0.2260
     82  O          9.7970   31.2680   64.1370 O.2   214  LYS214     -0.2867
     83  CB        11.1060   31.6480   61.6750 C.3   214  LYS214      0.0271
     84  CG        11.3140   31.4520   60.1980 C.3   214  LYS214      0.0035
     85  CD        12.4370   30.4540   59.8840 C.3   214  LYS214      0.0206
     86  CE        12.0840   29.0330   60.3320 C.3   214  LYS214      0.1093
     87  NZ        13.0740   28.0280   59.8330 N.3   214  LYS214     -0.1314
@<TRIPOS>BOND
     1    46    47    1
     2    60    59   ar
     3    48    47    1
     4    48    49    2
     5    61    59   ar
     6    47    50    1
     7    54    55    1
     8    59    58    1
     9    55    58    1
    10    55    56    1
    11    50    51    1
    12    52    51    2
    13    51    53   am
    14    56    57    2
    15    23    20    1
    16    20    19    1
    17    20    21    1
    18    22    21    2
    19    21    24   am
    20    24    25    1
    21    35    34    2
    22    25    28    1
    23    25    26    1
    24    32    26   am
    25    32    33    1
    26    40    39    2
    27    36    33    1
    28    34    33    1
    29    34    37   am
    30    28    29    1
    31    26    27    2
    32    62    63    1
    33    39    38    1
    34    30    29   ar
    35    38    37    1
    36    38    41    1
    37    29    31   ar
    38    66    63    1
    39    66    67    1
    40    63    64    1
    41    68    67    1
    42    68    69    1
    43    41    42    1
    44    42    43    1
    45    70    69    1
    46    64    65    2
    47    43    44   ar
    48    43    45   ar
    49    71    72    1
    50    87    86    1
    51    85    84    1
    52    85    86    1
    53     8     7   ar
    54    84    83    1
    55    78    76    1
    56    76    77    1
    57    76    75    1
    58    72    75    1
    59    72    73    1
    60    16    17    1
    61    16    15    1
    62     5     6    1
    63     5     2    1
    64     7     9   ar
    65     7     6    1
    66     1     2    1
    67    79    80    1
    68    83    80    1
    69    17    18    1
    70    14    15    1
    71    14    11    1
    72    10    11    1
    73    10     3   am
    74    80    81    1
    75    73    74    2
    76    12    11    1
    77    12    13    2
    78     2     3    1
    79     3     4    2
    80    81    82    2
