@<TRIPOS>MOLECULE
tmp/3ffuB00.pdb
 172 160 0 0 0
SMALL
GASTEIGER

@<TRIPOS>ATOM
      1  N         10.6590    1.3480   -9.4960 N.3     5  VAL5       -0.1245
      2  CA         9.4710    1.7800   -8.7870 C.3     5  VAL5        0.1561
      3  C          8.6200    0.5520   -8.4650 C.2     5  VAL5        0.2260
      4  O          8.5690   -0.3930   -9.2520 O.2     5  VAL5       -0.2867
      5  CB         8.6820    2.8210   -9.6310 C.3     5  VAL5        0.0252
      6  CG1        7.4580    3.3540   -8.8790 C.3     5  VAL5        0.0019
      7  CG2        9.6110    3.9610  -10.0590 C.3     5  VAL5        0.0019
      8  N          4.5960   -0.5250   -7.1330 N.3     7  ALA7       -0.1245
      9  CA         3.2480    0.0130   -7.0720 C.3     7  ALA7        0.1562
     10  C          2.2430   -1.1130   -6.9890 C.2     7  ALA7        0.2260
     11  O          2.5480   -2.2520   -7.3390 O.2     7  ALA7       -0.2867
     12  CB         2.9740    0.8730   -8.2840 C.3     7  ALA7        0.0290
     13  N         -1.8960   12.4130   -9.2410 N.3    21  ARG21      -0.1245
     14  CA        -0.5920   13.0150   -8.9870 C.3    21  ARG21       0.1563
     15  C         -0.7410   14.4960   -8.6430 C.2    21  ARG21       0.2260
     16  O         -1.4470   15.2190   -9.3460 O.2    21  ARG21      -0.2867
     17  CB         0.3200   12.8530  -10.1950 C.3    21  ARG21       0.0307
     18  CG         0.8990   11.4770  -10.3350 C.3    21  ARG21       0.0489
     19  CD         2.2910   11.5530  -10.9020 C.3    21  ARG21       0.2205
     20  NE         3.1170   10.6110  -10.1700 N.pl3  21  ARG21      -0.0865
     21  CZ         4.3830   10.8030   -9.8170 C.cat  21  ARG21       0.5346
     22  NH1        5.0310   11.9230  -10.1320 N.pl3  21  ARG21       0.1354
     23  NH2        4.9980    9.8450   -9.1370 N.pl3  21  ARG21       0.1354
     24  N          4.9380   18.0980   -7.3790 N.3    25  ASN25      -0.1240
     25  CA         5.8100   17.0470   -7.9150 C.3    25  ASN25       0.1653
     26  C          5.1130   16.4130   -9.1230 C.2    25  ASN25       0.2266
     27  O          4.0830   15.7290   -8.9850 O.2    25  ASN25      -0.2867
     28  CB         6.1530   15.9950   -6.8490 C.3    25  ASN25       0.1155
     29  CG         7.4870   15.2990   -7.1140 C.2    25  ASN25       0.2627
     30  OD1        8.5360   15.7600   -6.6570 O.2    25  ASN25      -0.2716
     31  ND2        7.4470   14.1790   -7.8420 N.am   25  ASN25      -0.0877
     32  N          4.0840   14.5890  -12.5970 N.3    27  LEU27      -0.1245
     33  CA         3.4680   14.2820  -13.8630 C.3    27  LEU27       0.1561
     34  C          2.0570   14.6820  -13.4880 C.2    27  LEU27       0.2260
     35  O          1.1510   13.8620  -13.4240 O.2    27  LEU27      -0.2867
     36  CB         3.5720   12.8040  -14.2290 C.3    27  LEU27       0.0270
     37  CG         4.6970   12.3750  -15.1750 C.3    27  LEU27       0.0019
     38  CD1        4.8460   10.8730  -15.1450 C.3    27  LEU27       0.0001
     39  CD2        4.4410   12.8380  -16.5980 C.3    27  LEU27       0.0001
     40  N         -2.5370    7.3170  -11.2020 N.3    32  GLU32      -0.1231
     41  CA        -1.5560    6.2600  -11.1050 C.3    32  GLU32       0.1699
     42  C         -2.0020    5.2640  -10.0590 C.2    32  GLU32       0.2592
     43  O         -2.9700    5.5040   -9.3290 O.2    32  GLU32      -0.2718
     44  CB        -0.2020    6.8400  -10.6890 C.3    32  GLU32       0.0402
     45  CG        -0.1130    7.1760   -9.1950 C.3    32  GLU32       0.1161
     46  CD         1.0620    8.0530   -8.8440 C.2    32  GLU32       0.3649
     47  OE1        1.9770    8.1750   -9.6820 O.co2  32  GLU32      -0.2457
     48  OE2        1.0730    8.6210   -7.7220 O.co2  32  GLU32      -0.2457
     49  N         -1.2800    4.1550   -9.9730 N.am   33  PHE33      -0.1976
     50  CA        -1.4280    3.2740   -8.8510 C.3    33  PHE33       0.1639
     51  C         -0.4470    3.6920   -7.7510 C.2    33  PHE33       0.2290
     52  O          0.7150    3.9620   -8.0420 O.2    33  PHE33      -0.2864
     53  CB        -1.1960    1.8460   -9.3130 C.3    33  PHE33       0.0560
     54  CG        -1.9760    1.5010  -10.5400 C.ar   33  PHE33      -0.0200
     55  CD1       -1.3510    1.4150  -11.7740 C.ar   33  PHE33      -0.0042
     56  CD2       -3.3500    1.3160  -10.4720 C.ar   33  PHE33      -0.0042
     57  CE1       -2.0890    1.1230  -12.9310 C.ar   33  PHE33      -0.0003
     58  CE2       -4.0900    1.0140  -11.6080 C.ar   33  PHE33      -0.0003
     59  CZ        -3.4540    0.9130  -12.8430 C.ar   33  PHE33      -0.0000
     60  N          2.3410    3.8940   -4.8860 N.3    35  GLY35      -0.1209
     61  CA         3.6380    3.2300   -4.8190 C.3    35  GLY35       0.1959
     62  C          4.7280    4.2530   -4.9960 C.2    35  GLY35       0.2652
     63  O          4.4540    5.4570   -5.0070 O.2    35  GLY35      -0.2714
     64  N          5.9670    3.7950   -5.1420 N.am   36  GLY36      -0.1718
     65  CA         7.0840    4.7150   -5.3600 C.2    36  GLY36       0.1480
     66  C          8.4570    4.0670   -5.4380 C.2    36  GLY36       0.2820
     67  O          8.5700    2.8620   -5.6380 O.2    36  GLY36      -0.2669
     68  N          9.5040    4.8800   -5.2790 N.am   37  LYS37      -0.1943
     69  CA        10.8800    4.4360   -5.4660 C.3    37  LYS37       0.1599
     70  C         11.3100    3.4870   -4.3430 C.2    37  LYS37       0.2287
     71  O         10.9940    3.7240   -3.1740 O.2    37  LYS37      -0.2864
     72  CB        11.8030    5.6570   -5.5570 C.3    37  LYS37       0.0298
     73  CG        11.5890    6.4930   -6.8240 C.3    37  LYS37       0.0038
     74  CD        11.7970    8.0060   -6.6520 C.3    37  LYS37       0.0206
     75  CE        11.3070    8.7330   -7.9340 C.3    37  LYS37       0.1093
     76  NZ        11.3070   10.2350   -7.9230 N.3    37  LYS37      -0.1314
     77  N         13.9960    2.1110   -1.8620 N.3    39  GLU39      -0.1245
     78  CA        15.1180    2.7720   -1.2100 C.3    39  GLU39       0.1567
     79  C         16.2640    1.7890   -1.0420 C.2    39  GLU39       0.2260
     80  O         16.0410    0.5850   -0.9240 O.2    39  GLU39      -0.2867
     81  CB        14.7080    3.3530    0.1560 C.3    39  GLU39       0.0388
     82  CG        13.4870    4.3040    0.1530 C.3    39  GLU39       0.1160
     83  CD        13.7800    5.6930   -0.4080 C.2    39  GLU39       0.3649
     84  OE1       14.9650    6.0450   -0.5670 O.co2  39  GLU39      -0.2457
     85  OE2       12.8200    6.4440   -0.6910 O.co2  39  GLU39      -0.2457
     86  N          5.5040    2.4260    1.0110 N.3    51  GLU51      -0.1245
     87  CA         4.9490    3.4670    0.1650 C.3    51  GLU51       0.1567
     88  C          3.4430    3.5310    0.3610 C.2    51  GLU51       0.2260
     89  O          2.8540    4.6180    0.4140 O.2    51  GLU51      -0.2867
     90  CB         5.3120    3.2520   -1.3100 C.3    51  GLU51       0.0388
     91  CG         6.7160    3.7550   -1.7100 C.3    51  GLU51       0.1160
     92  CD         6.8640    5.2830   -1.7060 C.2    51  GLU51       0.3649
     93  OE1        5.8520    6.0160   -1.7290 O.co2  51  GLU51      -0.2457
     94  OE2        8.0170    5.7510   -1.6810 O.co2  51  GLU51      -0.2457
     95  N          1.6020    6.7870    1.8170 N.3    55  GLU55      -0.1245
     96  CA         0.7100    7.4410    0.8380 C.3    55  GLU55       0.1567
     97  C         -0.7830    7.2740    1.1200 C.2    55  GLU55       0.2260
     98  O         -1.5740    8.1720    0.8380 O.2    55  GLU55      -0.2867
     99  CB         1.0180    6.9860   -0.5880 C.3    55  GLU55       0.0388
    100  CG         2.0870    7.8140   -1.2620 C.3    55  GLU55       0.1160
    101  CD         2.5530    7.2330   -2.5900 C.2    55  GLU55       0.3649
    102  OE1        3.7810    7.2200   -2.7990 O.co2  55  GLU55      -0.2457
    103  OE2        1.7070    6.8010   -3.4220 O.co2  55  GLU55      -0.2457
    104  N         11.1130    8.4950  -19.5400 N.3    73  TYR73      -0.1241
    105  CA        10.6190    9.8690  -19.4780 C.3    73  TYR73       0.1605
    106  C         11.8000   10.8060  -19.7560 C.2    73  TYR73       0.2264
    107  O         12.1860   11.6160  -18.9070 O.2    73  TYR73      -0.2867
    108  CB         9.9620   10.1800  -18.1210 C.3    73  TYR73       0.0534
    109  CG         8.6930    9.3910  -17.8130 C.ar   73  TYR73      -0.0201
    110  CD1        8.6750    8.4370  -16.7940 C.ar   73  TYR73      -0.0009
    111  CD2        7.5070    9.6070  -18.5280 C.ar   73  TYR73      -0.0009
    112  CE1        7.5210    7.7080  -16.5010 C.ar   73  TYR73       0.0417
    113  CE2        6.3450    8.8810  -18.2370 C.ar   73  TYR73       0.0417
    114  CZ         6.3670    7.9340  -17.2210 C.ar   73  TYR73       0.1957
    115  OH         5.2430    7.2090  -16.9130 O.3    73  TYR73      -0.2866
    116  N         12.8450    4.3620  -15.7720 N.3    78  ILE78      -0.1245
    117  CA        12.1200    3.7410  -14.6530 C.3    78  ILE78       0.1561
    118  C         11.6600    2.3030  -14.9380 C.2    78  ILE78       0.2260
    119  O         11.2050    1.9990  -16.0480 O.2    78  ILE78      -0.2867
    120  CB        10.8860    4.5850  -14.1920 C.3    78  ILE78       0.0252
    121  CG1        9.7830    4.5740  -15.2480 C.3    78  ILE78       0.0019
    122  CG2       11.2910    6.0140  -13.8430 C.3    78  ILE78       0.0019
    123  CD1        8.4000    4.7340  -14.6730 C.3    78  ILE78       0.0001
    124  N          8.9510   -0.2940  -13.4250 N.3    80  ILE80      -0.1245
    125  CA         7.8690   -0.5060  -12.4650 C.3    80  ILE80       0.1561
    126  C          7.5950   -1.9890  -12.2580 C.2    80  ILE80       0.2260
    127  O          7.5440   -2.7480  -13.2270 O.2    80  ILE80      -0.2867
    128  CB         6.5380    0.0910  -12.8960 C.3    80  ILE80       0.0252
    129  CG1        6.5680    1.6010  -12.9480 C.3    80  ILE80       0.0019
    130  CG2        5.5010   -0.1810  -11.8350 C.3    80  ILE80       0.0019
    131  CD1        5.1920    2.1670  -12.4890 C.3    80  ILE80       0.0001
    132  N          4.5140   -4.2880  -10.5570 N.3    82  PHE82      -0.1241
    133  CA         3.1720   -4.1380  -10.0330 C.3    82  PHE82       0.1605
    134  C          2.8040   -5.3500   -9.2140 C.2    82  PHE82       0.2264
    135  O          2.9940   -6.5090   -9.6430 O.2    82  PHE82      -0.2867
    136  CB         2.1500   -3.9440  -11.1410 C.3    82  PHE82       0.0534
    137  CG         2.3000   -2.6540  -11.9100 C.ar   82  PHE82      -0.0203
    138  CD1        3.0080   -2.6200  -13.1050 C.ar   82  PHE82      -0.0042
    139  CD2        1.6950   -1.4800  -11.4600 C.ar   82  PHE82      -0.0042
    140  CE1        3.1070   -1.4310  -13.8360 C.ar   82  PHE82      -0.0003
    141  CE2        1.7790   -0.2930  -12.1800 C.ar   82  PHE82      -0.0003
    142  CZ         2.4890   -0.2590  -13.3670 C.ar   82  PHE82      -0.0000
    143  N         -0.9750   12.1000    0.0210 N.3    96  HIS96      -0.1241
    144  CA        -0.0440   12.6530   -0.9640 C.3    96  HIS96       0.1621
    145  C         -0.7510   13.1560   -2.2250 C.2    96  HIS96       0.2264
    146  O         -0.4030   14.2090   -2.7460 O.2    96  HIS96      -0.2867
    147  CB         1.0280   11.6120   -1.3170 C.3    96  HIS96       0.0745
    148  CG         1.8880   11.9800   -2.4910 C.ar   96  HIS96       0.0817
    149  ND1        2.9460   12.8590   -2.3970 N.ar   96  HIS96      -0.2268
    150  CD2        1.8620   11.5630   -3.7800 C.ar   96  HIS96       0.1154
    151  CE1        3.5280   12.9760   -3.5780 C.ar   96  HIS96       0.1986
    152  NE2        2.8890   12.2010   -4.4350 N.ar   96  HIS96      -0.2212
    153  N          0.0500    7.9090  -16.6610 N.3   114  PRO114     -0.2116
    154  CA         1.4430    7.8360  -17.1340 C.3   114  PRO114      0.1372
    155  C          1.5660    7.0150  -18.4170 C.2   114  PRO114      0.2244
    156  O          0.9800    5.9340  -18.5140 O.2   114  PRO114     -0.2868
    157  CB         2.1630    7.1080  -15.9900 C.3   114  PRO114      0.0268
    158  CG         1.3580    7.3990  -14.7720 C.3   114  PRO114      0.0207
    159  CD        -0.0570    7.5990  -15.2150 C.3   114  PRO114      0.0892
    160  N          3.7220    5.1910  -19.2640 N.3   116  ALA116     -0.1231
    161  CA         4.3200    3.8970  -18.8960 C.3   116  ALA116      0.1694
    162  C          3.2390    2.8600  -18.6440 C.2   116  ALA116      0.2592
    163  O          3.4570    1.6530  -18.8520 O.2   116  ALA116     -0.2718
    164  CB         5.2230    4.0330  -17.6630 C.3   116  ALA116      0.0304
    165  N          2.0820    3.3440  -18.1850 N.am  117  ASN117     -0.1974
    166  CA         0.9160    2.5070  -17.9430 C.3   117  ASN117      0.1688
    167  C          0.0560    2.4270  -19.1850 C.2   117  ASN117      0.2292
    168  O         -0.4660    1.3610  -19.5060 O.2   117  ASN117     -0.2864
    169  CB         0.0880    3.0510  -16.7820 C.3   117  ASN117      0.1181
    170  CG         0.8390    3.0450  -15.4800 C.2   117  ASN117      0.2629
    171  OD1        1.9880    2.5970  -15.4120 O.2   117  ASN117     -0.2716
    172  ND2        0.1900    3.5340  -14.4230 N.am  117  ASN117     -0.0877
@<TRIPOS>BOND
     1   106   105    1
     2   106   107    2
     3   104   105    1
     4   168   167    2
     5   105   108    1
     6   160   161    1
     7   167   166    1
     8   161   162    1
     9   161   164    1
    10   163   162    2
    11   162   165   am
    12   111   113   ar
    13   111   109   ar
    14   156   155    2
    15   155   154    1
    16   113   114   ar
    17   165   166    1
    18   108   109    1
    19   166   169    1
    20   109   110   ar
    21   114   115    1
    22   114   112   ar
    23   154   153    1
    24   154   157    1
    25   110   112   ar
    26   169   170    1
    27   153   159    1
    28    39    37    1
    29   119   118    2
    30   157   158    1
    31   116   117    1
    32   170   171    2
    33   170   172   am
    34   121   123    1
    35   121   120    1
    36   159   158    1
    37    37    38    1
    38    37    36    1
    39   118   117    1
    40   117   120    1
    41    36    33    1
    42   120   122    1
    43    33    34    1
    44    33    32    1
    45   140   142   ar
    46   140   138   ar
    47    34    35    2
    48   124   125    1
    49   142   141   ar
    50   127   126    2
    51   138   137   ar
    52   129   128    1
    53   129   131    1
    54    57    59   ar
    55    57    55   ar
    56   128   125    1
    57   128   130    1
    58    59    58   ar
    59   125   126    1
    60   141   139   ar
    61   137   139   ar
    62   137   136    1
    63    55    54   ar
    64    58    56   ar
    65    40    41    1
    66   136   133    1
    67    41    44    1
    68    41    42    1
    69    19    18    1
    70    19    20    1
    71    44    45    1
    72   132   133    1
    73    54    56   ar
    74    54    53    1
    75    18    17    1
    76    17    14    1
    77    20    21    2
    78    22    21    1
    79    42    49   am
    80    42    43    2
    81     7     5    1
    82   133   134    1
    83    49    50    1
    84    21    23    1
    85    47    46   ar
    86   135   134    2
    87     5     6    1
    88     5     2    1
    89     1     2    1
    90    16    15    2
    91    53    50    1
    92     4     3    2
    93    13    14    1
    94    45    46    1
    95    26    27    2
    96    26    25    1
    97    14    15    1
    98    50    51    1
    99    46    48   ar
   100     2     3    1
   101    12     9    1
   102    52    51    2
   103    75    76    1
   104    75    74    1
   105    25    24    1
   106    25    28    1
   107    31    29   am
   108    11    10    2
   109     8     9    1
   110    29    28    1
   111    29    30    2
   112     9    10    1
   113    73    74    1
   114    73    72    1
   115    67    66    2
   116    72    69    1
   117    69    68    1
   118    69    70    1
   119    66    65    1
   120    66    68   am
   121    65    64    2
   122    64    62    1
   123    63    62    2
   124    62    61    1
   125    60    61    1
   126   152   150   ar
   127   152   151   ar
   128    70    71    2
   129   150   148   ar
   130   151   149   ar
   131   103   101   ar
   132   102   101   ar
   133   146   145    2
   134   101   100    1
   135   148   149   ar
   136   148   147    1
   137   145   144    1
   138    77    78    1
   139    93    92   ar
   140    91    92    1
   141    91    90    1
   142    92    94   ar
   143   147   144    1
   144    90    87    1
   145   100    99    1
   146    78    79    1
   147    78    81    1
   148    79    80    2
   149   144   143    1
   150    85    83   ar
   151    99    96    1
   152    84    83   ar
   153    83    82    1
   154    82    81    1
   155    87    88    1
   156    87    86    1
   157    88    89    2
   158    98    97    2
   159    96    97    1
   160    96    95    1
