@<TRIPOS>MOLECULE
tmp/3fg4B00.pdb
 123 116 0 0 0
SMALL
GASTEIGER

@<TRIPOS>ATOM
      1  N         19.2430  -11.9290    1.1580 N.3   146  VAL146     -0.1245
      2  CA        20.0430  -11.3040    2.1740 C.3   146  VAL146      0.1561
      3  C         21.5360  -11.3150    1.7330 C.2   146  VAL146      0.2260
      4  O         22.3060  -10.4170    2.0780 O.2   146  VAL146     -0.2867
      5  CB        19.8170  -12.0620    3.5070 C.3   146  VAL146      0.0252
      6  CG1       21.0280  -11.9350    4.4400 C.3   146  VAL146      0.0019
      7  CG2       18.5370  -11.5390    4.1950 C.3   146  VAL146      0.0019
      8  N         22.2940  -17.2990    1.1840 N.3   150  MET150     -0.1245
      9  CA        21.0290  -17.4680    1.8740 C.3   150  MET150      0.1570
     10  C         19.8680  -17.8250    0.9290 C.2   150  MET150      0.2261
     11  O         19.8280  -17.3650   -0.2130 O.2   150  MET150     -0.2867
     12  CB        20.7400  -16.1870    2.6930 C.3   150  MET150      0.0387
     13  CG        21.7780  -15.9800    3.8250 C.3   150  MET150      0.0595
     14  SD        21.4900  -17.1860    5.1560 S.3   150  MET150     -0.1393
     15  CE        20.3570  -16.0820    6.0190 C.3   150  MET150      0.0692
     16  N         16.3760  -24.0630   13.8510 N.3   374  HIS374     -0.1226
     17  CA        15.1110  -23.2590   13.8770 C.3   374  HIS374      0.1752
     18  C         15.0480  -22.2400   12.7360 C.2   374  HIS374      0.2595
     19  O         14.2440  -22.3820   11.8030 O.2   374  HIS374     -0.2718
     20  CB        14.8580  -22.5860   15.2760 C.3   374  HIS374      0.0759
     21  CG        13.5910  -21.7350   15.3650 C.ar  374  HIS374      0.0818
     22  ND1       13.5720  -20.5210   16.0150 N.ar  374  HIS374     -0.2268
     23  CD2       12.3080  -21.9290   14.9230 C.ar  374  HIS374      0.1154
     24  CE1       12.3520  -19.9880   15.9520 C.ar  374  HIS374      0.1986
     25  NE2       11.5530  -20.8100   15.2780 N.ar  374  HIS374     -0.2212
     26  N         15.9190  -21.2350   12.7570 N.am  375  LEU375     -0.1980
     27  CA        15.7240  -20.0850   11.8640 C.3   375  LEU375      0.1596
     28  C         15.9630  -20.4030   10.4060 C.2   375  LEU375      0.2287
     29  O         15.1330  -20.0820    9.4930 O.2   375  LEU375     -0.2864
     30  CB        16.6630  -18.9670   12.2470 C.3   375  LEU375      0.0297
     31  CG        16.0780  -17.6310   12.6130 C.3   375  LEU375      0.0022
     32  CD1       15.1900  -17.7460   13.8810 C.3   375  LEU375      0.0001
     33  CD2       17.2580  -16.7040   12.8180 C.3   375  LEU375      0.0001
     34  N         11.8800  -21.5990    9.2260 N.3   379  HIS379     -0.1226
     35  CA        11.6420  -20.2530    8.6890 C.3   379  HIS379      0.1752
     36  C         12.2890  -19.9650    7.2650 C.2   379  HIS379      0.2595
     37  O         11.6060  -19.9190    6.2470 O.2   379  HIS379     -0.2718
     38  CB        12.0920  -19.2310    9.7820 C.3   379  HIS379      0.0759
     39  CG        11.1810  -19.1420   11.0000 C.ar  379  HIS379      0.0818
     40  ND1       10.1650  -18.2150   11.1010 N.ar  379  HIS379     -0.2268
     41  CD2       11.1700  -19.8290   12.1780 C.ar  379  HIS379      0.1154
     42  CE1        9.5660  -18.3360   12.2750 C.ar  379  HIS379      0.1986
     43  NE2       10.1500  -19.3160   12.9620 N.ar  379  HIS379     -0.2212
     44  N         13.6020  -19.7800    7.1910 N.am  380  LEU380     -0.1980
     45  CA        14.1690  -19.0570    6.0300 C.3   380  LEU380      0.1596
     46  C         14.1750  -19.9530    4.7920 C.2   380  LEU380      0.2287
     47  O         13.8700  -19.5210    3.7050 O.2   380  LEU380     -0.2864
     48  CB        15.5570  -18.4720    6.3570 C.3   380  LEU380      0.0297
     49  CG        15.6390  -17.4560    7.5260 C.3   380  LEU380      0.0022
     50  CD1       16.9810  -16.8980    7.7230 C.3   380  LEU380      0.0001
     51  CD2       14.6890  -16.2830    7.2850 C.3   380  LEU380      0.0001
     52  N          6.0990  -13.2330    9.4550 N.3   413  ILE413     -0.1231
     53  CA         7.0640  -13.2770   10.5630 C.3   413  ILE413      0.1692
     54  C          8.5090  -13.1330   10.1080 C.2   413  ILE413      0.2592
     55  O          9.3310  -12.5430   10.8200 O.2   413  ILE413     -0.2718
     56  CB         6.9460  -14.5730   11.4550 C.3   413  ILE413      0.0266
     57  CG1        7.8850  -14.4650   12.6780 C.3   413  ILE413      0.0019
     58  CG2        7.2910  -15.8400   10.6400 C.3   413  ILE413      0.0020
     59  CD1        7.4790  -13.3560   13.7250 C.3   413  ILE413      0.0001
     60  N          8.8540  -13.6850    8.9510 N.am  414  ASP414     -0.1974
     61  CA        10.2330  -13.4710    8.4690 C.3   414  ASP414      0.1709
     62  C         10.4350  -12.0170    8.0340 C.2   414  ASP414      0.2293
     63  O         11.4880  -11.4610    8.2560 O.2   414  ASP414     -0.2864
     64  CB        10.6090  -14.4000    7.3200 C.3   414  ASP414      0.1436
     65  CG        10.6740  -15.8540    7.7220 C.2   414  ASP414      0.3671
     66  OD1       10.4730  -16.2200    8.9240 O.co2 414  ASP414     -0.2456
     67  OD2       10.9290  -16.6520    6.7940 O.co2 414  ASP414     -0.2456
     68  N         11.0400  -10.1700   11.1110 N.3   417  GLY417     -0.1210
     69  CA        12.3370  -10.4600   11.7350 C.3   417  GLY417      0.1956
     70  C         13.5080   -9.7820   11.0420 C.2   417  GLY417      0.2611
     71  O         14.4130   -9.2740   11.7030 O.2   417  GLY417     -0.2717
     72  N         13.5010   -9.7690    9.7110 N.am  418  ARG418     -0.1979
     73  CA        14.5310   -9.0820    8.9410 C.3   418  ARG418      0.1597
     74  C         14.5080   -7.5740    9.2100 C.2   418  ARG418      0.2287
     75  O         15.5560   -6.9410    9.2840 O.2   418  ARG418     -0.2864
     76  CB        14.3620   -9.3400    7.4190 C.3   418  ARG418      0.0334
     77  CG        14.8860  -10.6910    6.9330 C.3   418  ARG418      0.0492
     78  CD        14.7540  -10.8430    5.4330 C.3   418  ARG418      0.2205
     79  NE        13.3630  -10.8380    4.9830 N.pl3 418  ARG418     -0.0865
     80  CZ        12.6250  -11.9280    4.8880 C.cat 418  ARG418      0.5346
     81  NH1       13.1450  -13.1170    5.2130 N.pl3 418  ARG418      0.1354
     82  NH2       11.3740  -11.8240    4.4600 N.pl3 418  ARG418      0.1354
     83  N         26.1990  -14.3370   13.3290 N.3   432  HIS432     -0.1226
     84  CA        25.0400  -15.2130   13.2330 C.3   432  HIS432      0.1752
     85  C         24.6260  -15.3650   11.7810 C.2   432  HIS432      0.2595
     86  O         24.3360  -16.4790   11.3370 O.2   432  HIS432     -0.2718
     87  CB        23.8730  -14.7310   14.0980 C.3   432  HIS432      0.0759
     88  CG        23.4160  -13.3390   13.7930 C.ar  432  HIS432      0.0818
     89  ND1       24.1430  -12.2220   14.1430 N.ar  432  HIS432     -0.2268
     90  CD2       22.2860  -12.8790   13.2040 C.ar  432  HIS432      0.1154
     91  CE1       23.4920  -11.1350   13.7670 C.ar  432  HIS432      0.1986
     92  NE2       22.3610  -11.5040   13.1960 N.ar  432  HIS432     -0.2212
     93  N         24.5940  -14.2530   11.0470 N.am  433  VAL433     -0.1980
     94  CA        24.3170  -14.2910    9.6180 C.3   433  VAL433      0.1595
     95  C         25.3300  -15.1680    8.8360 C.2   433  VAL433      0.2287
     96  O         24.9190  -16.0660    8.0720 O.2   433  VAL433     -0.2864
     97  CB        24.1500  -12.8650    9.0090 C.3   433  VAL433      0.0276
     98  CG1       25.3660  -12.0100    9.2770 C.3   433  VAL433      0.0022
     99  CG2       23.8770  -12.9740    7.5080 C.3   433  VAL433      0.0022
    100  N         24.7810  -18.8550    9.5030 N.3   436  MET436     -0.1245
    101  CA        23.6400  -19.3310    8.7300 C.3   436  MET436      0.1570
    102  C         23.9950  -19.5280    7.2580 C.2   436  MET436      0.2261
    103  O         23.6500  -20.5550    6.6940 O.2   436  MET436     -0.2867
    104  CB        22.4270  -18.4290    8.8990 C.3   436  MET436      0.0387
    105  CG        21.8120  -18.4690   10.3180 C.3   436  MET436      0.0595
    106  SD        20.2060  -17.6670   10.3820 S.3   436  MET436     -0.1393
    107  CE        20.5640  -15.9390   10.2290 C.3   436  MET436      0.0692
    108  N          8.7510  -15.9240   21.1250 N.3   610  LEU610     -0.1245
    109  CA         8.7620  -16.8500   19.9840 C.3   610  LEU610      0.1561
    110  C          7.8780  -18.0350   20.2250 C.2   610  LEU610      0.2260
    111  O          7.6130  -18.7920   19.3100 O.2   610  LEU610     -0.2867
    112  CB        10.1880  -17.3110   19.5860 C.3   610  LEU610      0.0270
    113  CG        11.3160  -16.3290   19.2110 C.3   610  LEU610      0.0019
    114  CD1       12.6820  -17.0330   18.8900 C.3   610  LEU610      0.0001
    115  CD2       10.8890  -15.4480   18.0510 C.3   610  LEU610      0.0001
    116  N          5.5300  -17.9110   13.8500 N.3   676  ILE676     -0.1245
    117  CA         6.1360  -17.2400   14.9790 C.3   676  ILE676      0.1561
    118  C          7.5590  -17.8400   15.1760 C.2   676  ILE676      0.2260
    119  O          8.3240  -17.1990   15.9220 O.2   676  ILE676     -0.2867
    120  CB         5.2550  -17.3530   16.3160 C.3   676  ILE676      0.0252
    121  CG1        5.7570  -16.4520   17.4640 C.3   676  ILE676      0.0019
    122  CG2        5.2500  -18.7690   16.8830 C.3   676  ILE676      0.0019
    123  CD1        5.5570  -15.0160   17.2460 C.3   676  ILE676      0.0001
@<TRIPOS>BOND
     1    11    10    2
     2    10     9    1
     3     1     2    1
     4     8     9    1
     5     3     4    2
     6     3     2    1
     7     9    12    1
     8     2     5    1
     9    12    13    1
    10     5     7    1
    11     5     6    1
    12    47    46    2
    13    13    14    1
    14    82    80    1
    15    46    45    1
    16    80    79    2
    17    80    81    1
    18    79    78    1
    19    14    15    1
    20    78    77    1
    21    45    48    1
    22    45    44    1
    23    37    36    2
    24    48    49    1
    25   103   102    2
    26    67    65   ar
    27    77    76    1
    28    44    36   am
    29   102   101    1
    30    36    35    1
    31    51    49    1
    32    64    65    1
    33    64    61    1
    34    76    73    1
    35    99    97    1
    36    49    50    1
    37    65    66   ar
    38    62    63    2
    39    62    61    1
    40    96    95    2
    41    61    60    1
    42    35    34    1
    43    35    38    1
    44   101   104    1
    45   101   100    1
    46    95    94    1
    47   104   105    1
    48    73    74    1
    49    73    72    1
    50    60    54   am
    51    97    98    1
    52    97    94    1
    53    74    75    2
    54    52    53    1
    55    29    28    2
    56    94    93    1
    57    72    70   am
    58    38    39    1
    59    54    53    1
    60    54    55    2
    61   107   106    1
    62   105   106    1
    63    28    27    1
    64    53    56    1
    65    58    56    1
    66    39    40   ar
    67    39    41   ar
    68    70    71    2
    69    70    69    1
    70    93    85   am
    71    40    42   ar
    72    68    69    1
    73    86    85    2
    74    56    57    1
    75    85    84    1
    76    19    18    2
    77    27    30    1
    78    27    26    1
    79    41    43   ar
    80    30    31    1
    81    42    43   ar
    82    31    33    1
    83    31    32    1
    84    57    59    1
    85    18    26   am
    86    18    17    1
    87    92    90   ar
    88    92    91   ar
    89    90    88   ar
    90    84    83    1
    91    84    87    1
    92    91    89   ar
    93    88    87    1
    94    88    89   ar
    95   116   117    1
    96    16    17    1
    97    17    20    1
    98    23    25   ar
    99    23    21   ar
   100   117   118    1
   101   117   120    1
   102   118   119    2
   103    20    21    1
   104    25    24   ar
   105    21    22   ar
   106    24    22   ar
   107   120   122    1
   108   120   121    1
   109   123   121    1
   110   115   113    1
   111   114   113    1
   112   113   112    1
   113   111   110    2
   114   112   109    1
   115   109   110    1
   116   109   108    1
