@<TRIPOS>MOLECULE
tmp/3fg4C00.pdb
 137 128 0 0 0
SMALL
GASTEIGER

@<TRIPOS>ATOM
      1  N         -2.0960    7.2340   77.7550 N.3   147  VAL147     -0.1245
      2  CA        -2.9610    6.6700   76.7150 C.3   147  VAL147      0.1561
      3  C         -4.3330    6.2480   77.3200 C.2   147  VAL147      0.2260
      4  O         -5.3950    6.4160   76.6920 O.2   147  VAL147     -0.2867
      5  CB        -2.2290    5.5130   75.9640 C.3   147  VAL147      0.0252
      6  CG1       -3.1960    4.4070   75.4490 C.3   147  VAL147      0.0019
      7  CG2       -1.4220    6.0880   74.8180 C.3   147  VAL147      0.0019
      8  N         -2.0770    2.3340   81.0700 N.3   151  MET151     -0.1245
      9  CA        -0.8130    2.4570   80.3450 C.3   151  MET151      0.1570
     10  C          0.1800    3.2690   81.1730 C.2   151  MET151      0.2261
     11  O         -0.1910    4.2350   81.8470 O.2   151  MET151     -0.2867
     12  CB        -1.0330    3.1040   78.9600 C.3   151  MET151      0.0387
     13  CG        -1.7360    2.2140   77.9140 C.3   151  MET151      0.0595
     14  SD        -0.8940    0.5890   77.6420 S.3   151  MET151     -0.1393
     15  CE         0.2000    1.1280   76.3440 C.3   151  MET151      0.0692
     16  N          8.5600   -6.4470   73.5970 N.3   375  HIS375     -0.1226
     17  CA         9.2560   -5.3070   72.9530 C.3   375  HIS375      0.1752
     18  C          8.5790   -3.9680   73.3010 C.2   375  HIS375      0.2595
     19  O          9.1150   -3.2030   74.0820 O.2   375  HIS375     -0.2718
     20  CB         9.3900   -5.5030   71.3960 C.3   375  HIS375      0.0759
     21  CG        10.0090   -4.3370   70.6550 C.ar  375  HIS375      0.0818
     22  ND1        9.6110   -3.9950   69.3870 N.ar  375  HIS375     -0.2268
     23  CD2       10.9900   -3.4450   70.9880 C.ar  375  HIS375      0.1154
     24  CE1       10.3080   -2.9410   68.9740 C.ar  375  HIS375      0.1986
     25  NE2       11.1660   -2.5770   69.9220 N.ar  375  HIS375     -0.2212
     26  N          7.4040   -3.7100   72.7400 N.am  376  LEU376     -0.1980
     27  CA         6.8140   -2.3840   72.7970 C.3   376  LEU376      0.1596
     28  C          6.4930   -1.9260   74.2020 C.2   376  LEU376      0.2287
     29  O          6.9460   -0.8770   74.5940 O.2   376  LEU376     -0.2864
     30  CB         5.6210   -2.2850   71.8450 C.3   376  LEU376      0.0297
     31  CG         4.7230   -1.0620   71.7710 C.3   376  LEU376      0.0022
     32  CD1        5.5780    0.1830   71.6770 C.3   376  LEU376      0.0001
     33  CD2        3.7370   -1.1560   70.5660 C.3   376  LEU376      0.0001
     34  N         10.2850    0.0610   75.2140 N.3   380  HIS380     -0.1226
     35  CA         9.8140    1.4310   74.9290 C.3   380  HIS380      0.1752
     36  C          8.8880    2.1330   76.0010 C.2   380  HIS380      0.2595
     37  O          9.3370    3.0580   76.7310 O.2   380  HIS380     -0.2718
     38  CB         9.1480    1.4750   73.5620 C.3   380  HIS380      0.0759
     39  CG        10.0540    1.1160   72.4050 C.ar  380  HIS380      0.0818
     40  ND1       10.5610    2.0740   71.5640 N.ar  380  HIS380     -0.2268
     41  CD2       10.4750   -0.0780   71.9030 C.ar  380  HIS380      0.1154
     42  CE1       11.2710    1.4970   70.6040 C.ar  380  HIS380      0.1986
     43  NE2       11.2370    0.1860   70.7700 N.ar  380  HIS380     -0.2212
     44  N          7.6300    1.6960   76.0900 N.am  381  LEU381     -0.1980
     45  CA         6.5800    2.4330   76.8070 C.3   381  LEU381      0.1596
     46  C          6.7880    2.5510   78.3000 C.2   381  LEU381      0.2287
     47  O          6.5220    3.6040   78.8450 O.2   381  LEU381     -0.2864
     48  CB         5.1920    1.8430   76.5280 C.3   381  LEU381      0.0297
     49  CG         4.8270    1.8690   75.0130 C.3   381  LEU381      0.0022
     50  CD1        3.4550    1.3410   74.7310 C.3   381  LEU381      0.0001
     51  CD2        4.9550    3.2570   74.3580 C.3   381  LEU381      0.0001
     52  N         11.1520    8.1980   69.5650 N.3   414  ILE414     -0.1231
     53  CA        10.4940    7.0980   68.8010 C.3   414  ILE414      0.1692
     54  C          9.0830    6.8400   69.3280 C.2   414  ILE414      0.2592
     55  O          8.1480    6.5740   68.5550 O.2   414  ILE414     -0.2718
     56  CB        11.3780    5.7580   68.7260 C.3   414  ILE414      0.0266
     57  CG1       10.8310    4.7760   67.6890 C.3   414  ILE414      0.0019
     58  CG2       11.5560    5.0500   70.0890 C.3   414  ILE414      0.0020
     59  CD1       10.8770    5.3560   66.2200 C.3   414  ILE414      0.0001
     60  N          8.9090    6.9420   70.6420 N.am  415  ASP415     -0.1974
     61  CA         7.5720    6.7060   71.1930 C.3   415  ASP415      0.1709
     62  C          6.5950    7.7610   70.7190 C.2   415  ASP415      0.2293
     63  O          5.4220    7.4310   70.4370 O.2   415  ASP415     -0.2864
     64  CB         7.5640    6.5960   72.7340 C.3   415  ASP415      0.1436
     65  CG         8.2720    5.3150   73.2430 C.2   415  ASP415      0.3671
     66  OD1        8.7750    4.5390   72.4290 O.co2 415  ASP415     -0.2456
     67  OD2        8.3390    5.0760   74.4570 O.co2 415  ASP415     -0.2456
     68  N          5.9040    6.9420   67.1030 N.3   418  GLY418     -0.1210
     69  CA         5.0110    5.8000   67.1650 C.3   418  GLY418      0.1956
     70  C          3.5740    6.1400   67.5140 C.2   418  GLY418      0.2611
     71  O          2.6640    5.6650   66.8490 O.2   418  GLY418     -0.2717
     72  N          3.3460    6.9510   68.5490 N.am  419  ARG419     -0.1979
     73  CA         1.9570    7.2310   68.9420 C.3   419  ARG419      0.1597
     74  C          1.2190    8.0370   67.9050 C.2   419  ARG419      0.2287
     75  O         -0.0040    7.9520   67.8160 O.2   419  ARG419     -0.2864
     76  CB         1.8610    7.9980   70.2810 C.3   419  ARG419      0.0334
     77  CG         2.0740    7.1300   71.5260 C.3   419  ARG419      0.0492
     78  CD         2.0320    7.9770   72.7760 C.3   419  ARG419      0.2205
     79  NE         3.2000    8.8530   72.9540 N.pl3 419  ARG419     -0.0865
     80  CZ         4.2780    8.4990   73.6370 C.cat 419  ARG419      0.5346
     81  NH1        4.3590    7.2720   74.1600 N.pl3 419  ARG419      0.1354
     82  NH2        5.2950    9.3500   73.7690 N.pl3 419  ARG419      0.1354
     83  N         -0.7270    3.8490   65.6190 N.3   422  SER422     -0.1217
     84  CA        -2.0920    4.4030   65.5910 C.3   422  SER422      0.1889
     85  C         -3.0230    3.8070   64.5040 C.2   422  SER422      0.2288
     86  O         -4.2350    3.6800   64.7230 O.2   422  SER422     -0.2866
     87  CB        -2.0560    5.9360   65.4890 C.3   422  SER422      0.2089
     88  OG        -1.5810    6.3940   64.2690 O.3   422  SER422     -0.2183
     89  N          1.8250    0.6450   61.4970 N.3   425  ILE425     -0.1245
     90  CA         2.8650   -0.3790   61.7620 C.3   425  ILE425      0.1561
     91  C          2.2930   -1.7170   62.2180 C.2   425  ILE425      0.2260
     92  O          2.2040   -2.6510   61.4180 O.2   425  ILE425     -0.2867
     93  CB         3.8880    0.0950   62.8120 C.3   425  ILE425      0.0252
     94  CG1        4.3250    1.5480   62.5990 C.3   425  ILE425      0.0019
     95  CG2        5.0870   -0.8350   62.8200 C.3   425  ILE425      0.0019
     96  CD1        5.3240    1.6940   61.4670 C.3   425  ILE425      0.0001
     97  N         -4.7470   -4.6530   70.1260 N.3   437  HIS437     -0.1226
     98  CA        -3.3520   -4.5070   70.5480 C.3   437  HIS437      0.1752
     99  C         -3.1810   -3.6110   71.7470 C.2   437  HIS437      0.2595
    100  O         -2.4000   -3.9210   72.6640 O.2   437  HIS437     -0.2718
    101  CB        -2.4470   -4.0900   69.3810 C.3   437  HIS437      0.0759
    102  CG        -2.7620   -2.7490   68.7900 C.ar  437  HIS437      0.0818
    103  ND1       -3.9810   -2.4440   68.2230 N.ar  437  HIS437     -0.2268
    104  CD2       -1.9910   -1.6470   68.6400 C.ar  437  HIS437      0.1154
    105  CE1       -3.9580   -1.2020   67.7760 C.ar  437  HIS437      0.1986
    106  NE2       -2.7590   -0.6990   68.0110 N.ar  437  HIS437     -0.2212
    107  N         -3.9450   -2.5180   71.7670 N.am  438  VAL438     -0.1980
    108  CA        -3.9090   -1.5950   72.9040 C.3   438  VAL438      0.1595
    109  C         -4.4440   -2.2750   74.1980 C.2   438  VAL438      0.2287
    110  O         -3.8000   -2.2140   75.2760 O.2   438  VAL438     -0.2864
    111  CB        -4.6540   -0.2490   72.5730 C.3   438  VAL438      0.0276
    112  CG1       -4.6670    0.6660   73.7860 C.3   438  VAL438      0.0022
    113  CG2       -3.9850    0.4780   71.3780 C.3   438  VAL438      0.0022
    114  N         -1.9100   -4.7410   75.5250 N.3   441  MET441     -0.1245
    115  CA        -0.8130   -4.0820   76.3260 C.3   441  MET441      0.1570
    116  C         -1.2400   -3.5930   77.7010 C.2   441  MET441      0.2261
    117  O         -0.4710   -3.6700   78.6790 O.2   441  MET441     -0.2867
    118  CB        -0.0760   -2.9590   75.5920 C.3   441  MET441      0.0387
    119  CG         0.5580   -3.4250   74.3160 C.3   441  MET441      0.0595
    120  SD         1.5610   -2.1620   73.5310 S.3   441  MET441     -0.1393
    121  CE         0.3010   -1.1350   72.6980 C.3   441  MET441      0.0692
    122  N         12.3220   -1.2120   61.8840 N.3   615  LEU615     -0.1245
    123  CA        12.4470   -1.3040   63.3220 C.3   615  LEU615      0.1561
    124  C         13.8580   -1.6840   63.7090 C.2   615  LEU615      0.2260
    125  O         14.2250   -1.4450   64.8200 O.2   615  LEU615     -0.2867
    126  CB        11.3910   -2.2890   63.9040 C.3   615  LEU615      0.0270
    127  CG         9.9230   -1.8110   63.9340 C.3   615  LEU615      0.0019
    128  CD1        9.1110   -2.4420   65.0850 C.3   615  LEU615      0.0001
    129  CD2        9.8740   -0.2820   64.0820 C.3   615  LEU615      0.0001
    130  N         14.7680    3.1130   68.4800 N.3   681  ILE681     -0.1245
    131  CA        14.1470    2.5890   67.2600 C.3   681  ILE681      0.1561
    132  C         13.2140    1.4180   67.6170 C.2   681  ILE681      0.2260
    133  O         12.3290    1.1120   66.7940 O.2   681  ILE681     -0.2867
    134  CB        15.1910    2.1820   66.2060 C.3   681  ILE681      0.0252
    135  CG1       14.5530    2.0330   64.8050 C.3   681  ILE681      0.0019
    136  CG2       15.9300    0.8520   66.6300 C.3   681  ILE681      0.0019
    137  CD1       13.8710    3.2900   64.2390 C.3   681  ILE681      0.0001
@<TRIPOS>BOND
     1    92    91    2
     2    96    94    1
     3    89    90    1
     4    90    91    1
     5    90    93    1
     6   122   123    1
     7    94    93    1
     8    93    95    1
     9   123   124    1
    10   123   126    1
    11   124   125    2
    12   126   127    1
    13   127   129    1
    14   127   128    1
    15   137   135    1
    16    88    87    1
    17    85    86    2
    18    85    84    1
    19   135   134    1
    20    87    84    1
    21    84    83    1
    22   134   136    1
    23   134   131    1
    24    59    57    1
    25   133   132    2
    26    71    70    2
    27    68    69    1
    28    69    70    1
    29   131   132    1
    30   131   130    1
    31    70    72   am
    32    57    56    1
    33   105   106   ar
    34   105   103   ar
    35    75    74    2
    36    74    73    1
    37   106   104   ar
    38   103   102   ar
    39    72    73    1
    40    55    54    2
    41   104   102   ar
    42    56    53    1
    43    56    58    1
    44   102   101    1
    45    53    54    1
    46    53    52    1
    47    73    76    1
    48    24    22   ar
    49    24    25   ar
    50    54    60   am
    51   101    98    1
    52    22    21   ar
    53    25    23   ar
    54    97    98    1
    55    76    77    1
    56    63    62    2
    57    98    99    1
    58    33    31    1
    59    42    43   ar
    60    42    40   ar
    61    60    61    1
    62    21    23   ar
    63    21    20    1
    64    62    61    1
    65    43    41   ar
    66    61    64    1
    67   113   111    1
    68    20    17    1
    69    77    78    1
    70    40    39   ar
    71    32    31    1
    72    99   107   am
    73    99   100    2
    74   107   108    1
    75    31    30    1
    76    30    27    1
    77    41    39   ar
    78    39    38    1
    79    66    65   ar
    80   111   108    1
    81   111   112    1
    82   121   120    1
    83    64    65    1
    84    26    27    1
    85    26    18   am
    86    78    79    1
    87    27    28    1
    88   108   109    1
    89    17    18    1
    90    17    16    1
    91    79    80    2
    92    65    67   ar
    93    18    19    2
    94   120   119    1
    95    38    35    1
    96    80    82    1
    97    80    81    1
    98   109   110    2
    99    28    29    2
   100   119   118    1
   101    51    49    1
   102    50    49    1
   103     7     5    1
   104    35    34    1
   105    35    36    1
   106    49    48    1
   107     6     5    1
   108   114   115    1
   109   118   115    1
   110     5     2    1
   111    36    44   am
   112    36    37    2
   113    44    45    1
   114   115   116    1
   115    15    14    1
   116    48    45    1
   117     4     3    2
   118     2     3    1
   119     2     1    1
   120    45    46    1
   121    14    13    1
   122   116   117    2
   123    13    12    1
   124    46    47    2
   125    12     9    1
   126     9     8    1
   127     9    10    1
   128    10    11    2
