@<TRIPOS>MOLECULE
tmp/3fg5A01.pdb
 93 90 0 0 0
SMALL
GASTEIGER

@<TRIPOS>ATOM
      1  N         -4.9220   32.7860    5.7840 N.3    27  TYR27      -0.1241
      2  CA        -6.1130   31.9410    5.7880 C.3    27  TYR27       0.1605
      3  C         -5.9160   30.4590    5.5440 C.2    27  TYR27       0.2264
      4  O         -6.8210   29.6710    5.8000 O.2    27  TYR27      -0.2867
      5  CB        -7.1320   32.4730    4.7850 C.3    27  TYR27       0.0534
      6  CG        -7.7430   33.7610    5.2390 C.ar   27  TYR27      -0.0201
      7  CD1       -7.1660   34.9890    4.9100 C.ar   27  TYR27      -0.0009
      8  CD2       -8.8670   33.7560    6.0620 C.ar   27  TYR27      -0.0009
      9  CE1       -7.6990   36.1830    5.3970 C.ar   27  TYR27       0.0417
     10  CE2       -9.4030   34.9400    6.5540 C.ar   27  TYR27       0.0417
     11  CZ        -8.8170   36.1460    6.2190 C.ar   27  TYR27       0.1957
     12  OH        -9.3660   37.3040    6.7070 O.3    27  TYR27      -0.2866
     13  N         -7.2930   29.4830   11.7700 N.3    31  GLY31      -0.1210
     14  CA        -7.7580   30.8560   11.7410 C.3    31  GLY31       0.1956
     15  C         -8.1700   31.5180   10.4430 C.2    31  GLY31       0.2612
     16  O         -8.0630   30.9650    9.3440 O.2    31  GLY31      -0.2717
     17  N         -8.6570   32.7410   10.6070 N.am   32  GLY32      -0.1956
     18  CA        -9.1030   33.5390    9.4880 C.3    32  GLY32       0.1869
     19  C         -9.2010   34.9900    9.9070 C.2    32  GLY32       0.2309
     20  O        -10.1750   35.3960   10.5430 O.2    32  GLY32      -0.2863
     21  N         -8.9640   31.7070    1.5630 N.3    45  PHE45      -0.1241
     22  CA        -9.9820   32.6030    2.0890 C.3    45  PHE45       0.1605
     23  C        -11.3420   32.2500    1.5060 C.2    45  PHE45       0.2264
     24  O        -12.3440   32.2210    2.2190 O.2    45  PHE45      -0.2867
     25  CB        -9.6560   34.0520    1.7400 C.3    45  PHE45       0.0534
     26  CG       -10.7450   35.0160    2.1020 C.ar   45  PHE45      -0.0203
     27  CD1      -10.9430   35.4010    3.4230 C.ar   45  PHE45      -0.0042
     28  CD2      -11.5970   35.5150    1.1220 C.ar   45  PHE45      -0.0042
     29  CE1      -11.9760   36.2760    3.7650 C.ar   45  PHE45      -0.0003
     30  CE2      -12.6340   36.3900    1.4510 C.ar   45  PHE45      -0.0003
     31  CZ       -12.8250   36.7710    2.7760 C.ar   45  PHE45      -0.0000
     32  N        -12.4750   28.9710    2.9740 N.3    48  ASP48      -0.1225
     33  CA       -13.0210   29.1980    4.3000 C.3    48  ASP48       0.1805
     34  C        -14.4590   29.7050    4.1220 C.2    48  ASP48       0.2598
     35  O        -15.3980   29.1870    4.7410 O.2    48  ASP48      -0.2718
     36  CB       -12.1750   30.2320    5.0500 C.3    48  ASP48       0.1424
     37  CG       -10.9770   29.6150    5.7740 C.2    48  ASP48       0.3668
     38  OD1      -10.5830   28.4760    5.4470 O.co2  48  ASP48      -0.2456
     39  OD2      -10.4120   30.2800    6.6690 O.co2  48  ASP48      -0.2456
     40  N        -14.6350   30.7060    3.2600 N.am   49  CYS49      -0.1970
     41  CA       -15.9650   31.2600    2.9980 C.3    49  CYS49       0.1712
     42  C        -16.9340   30.1900    2.5140 C.2    49  CYS49       0.2296
     43  O        -18.1100   30.1840    2.8810 O.2    49  CYS49      -0.2864
     44  CB       -15.8960   32.3580    1.9420 C.3    49  CYS49       0.0983
     45  SG       -15.1220   33.8890    2.5170 S.3    49  CYS49      -0.0798
     46  N        -16.9330   26.9950    3.2370 N.3    51  TYR51      -0.1227
     47  CA       -17.3710   26.1920    4.3780 C.3    51  TYR51       0.1736
     48  C        -18.3670   27.0240    5.1860 C.2    51  TYR51       0.2596
     49  O        -19.3300   26.4960    5.7430 O.2    51  TYR51      -0.2718
     50  CB       -16.1820   25.8070    5.2760 C.3    51  TYR51       0.0548
     51  CG       -15.3230   24.6600    4.7790 C.ar   51  TYR51      -0.0200
     52  CD1      -15.6540   23.9630    3.6140 C.ar   51  TYR51      -0.0009
     53  CD2      -14.1970   24.2460    5.5000 C.ar   51  TYR51      -0.0009
     54  CE1      -14.8960   22.8840    3.1770 C.ar   51  TYR51       0.0417
     55  CE2      -13.4230   23.1620    5.0720 C.ar   51  TYR51       0.0417
     56  CZ       -13.7840   22.4880    3.9050 C.ar   51  TYR51       0.1957
     57  OH       -13.0300   21.4310    3.4510 O.3    51  TYR51      -0.2866
     58  N        -18.1240   28.3310    5.2350 N.am   52  GLY52      -0.1957
     59  CA       -18.9990   29.2270    5.9650 C.3    52  GLY52       0.1869
     60  C        -20.4520   29.1450    5.5320 C.2    52  GLY52       0.2309
     61  O        -21.3440   29.4270    6.3250 O.2    52  GLY52      -0.2863
     62  N        -14.4870   19.0450    8.2050 N.3    60  LYS60      -0.1245
     63  CA       -13.2560   18.3800    8.6160 C.3    60  LYS60       0.1561
     64  C        -13.4070   16.8910    8.8830 C.2    60  LYS60       0.2260
     65  O        -12.4490   16.1390    8.7440 O.2    60  LYS60      -0.2867
     66  CB       -12.6750   19.0480    9.8640 C.3    60  LYS60       0.0271
     67  CG       -12.2850   20.5100    9.6740 C.3    60  LYS60       0.0035
     68  CD       -11.6990   21.0910   10.9640 C.3    60  LYS60       0.0206
     69  CE       -11.3000   22.5580   10.8000 C.3    60  LYS60       0.1093
     70  NZ       -10.3790   23.0110   11.8920 N.3    60  LYS60      -0.1314
     71  N        -12.4250   41.3260    6.2340 N.3   119  LEU119     -0.1231
     72  CA       -12.8460   41.0400    4.8720 C.3   119  LEU119      0.1693
     73  C        -14.0810   40.1610    4.9300 C.2   119  LEU119      0.2592
     74  O        -14.0110   39.0090    5.3580 O.2   119  LEU119     -0.2718
     75  CB       -11.7300   40.3150    4.1190 C.3   119  LEU119      0.0284
     76  CG       -11.2860   40.8950    2.7750 C.3   119  LEU119      0.0019
     77  CD1      -10.0940   40.1060    2.2730 C.3   119  LEU119      0.0001
     78  CD2      -12.4250   40.8480    1.7640 C.3   119  LEU119      0.0001
     79  N        -15.2190   40.7090    4.5240 N.am  120  LYS120     -0.1966
     80  CA       -16.4410   39.9340    4.5350 C.3   120  LYS120      0.1728
     81  C        -16.4940   39.0360    3.2980 C.2   120  LYS120      0.2616
     82  O        -16.0450   39.4160    2.2130 O.2   120  LYS120     -0.2715
     83  CB       -17.6560   40.8650    4.6180 C.3   120  LYS120      0.0311
     84  CG       -17.8170   41.5020    6.0030 C.3   120  LYS120      0.0038
     85  CD       -19.1170   42.2940    6.1480 C.3   120  LYS120      0.0206
     86  CE       -19.3950   42.6690    7.6120 C.3   120  LYS120      0.1093
     87  NZ       -18.3520   43.5430    8.2290 N.3   120  LYS120     -0.1314
     88  N        -17.0090   37.8260    3.4900 N.am  121  CYS121     -0.1968
     89  CA       -17.1330   36.8450    2.4210 C.3   121  CYS121      0.1712
     90  C        -18.0910   37.3120    1.3400 C.2   121  CYS121      0.2296
     91  O        -17.8280   37.0200    0.1520 O.2   121  CYS121     -0.2864
     92  CB       -17.6280   35.5120    2.9780 C.3   121  CYS121      0.0983
     93  SG       -16.4070   34.5610    3.9380 S.3   121  CYS121     -0.0798
@<TRIPOS>BOND
     1    91    90    2
     2    28    30   ar
     3    28    26   ar
     4    90    89    1
     5    30    31   ar
     6    23    22    1
     7    23    24    2
     8    21    22    1
     9    25    22    1
    10    25    26    1
    11    78    76    1
    12    44    45    1
    13    44    41    1
    14    26    27   ar
    15    82    81    2
    16    77    76    1
    17    89    92    1
    18    89    88    1
    19    42    43    2
    20    42    41    1
    21    45    93    1
    22    76    75    1
    23    31    29   ar
    24    32    33    1
    25    92    93    1
    26    41    40    1
    27    54    52   ar
    28    54    56   ar
    29    46    47    1
    30    40    34   am
    31    81    88   am
    32    81    80    1
    33    27    29   ar
    34    57    56    1
    35    52    51   ar
    36    56    55   ar
    37    75    72    1
    38    34    33    1
    39    34    35    2
    40    33    36    1
    41    47    48    1
    42    47    50    1
    43    79    80    1
    44    79    73   am
    45    80    83    1
    46    83    84    1
    47    51    50    1
    48    51    53   ar
    49     5     6    1
    50     5     2    1
    51    72    73    1
    52    72    71    1
    53     7     6   ar
    54     7     9   ar
    55    73    74    2
    56    36    37    1
    57    55    53   ar
    58    48    58   am
    59    48    49    2
    60    58    59    1
    61     6     8   ar
    62     9    11   ar
    63    38    37   ar
    64    60    59    1
    65    60    61    2
    66     3     2    1
    67     3     4    2
    68    37    39   ar
    69     1     2    1
    70    84    85    1
    71     8    10   ar
    72    85    86    1
    73    11    10   ar
    74    11    12    1
    75    86    87    1
    76    62    63    1
    77    63    64    1
    78    63    66    1
    79    65    64    2
    80    16    15    2
    81    18    19    1
    82    18    17    1
    83    67    66    1
    84    67    68    1
    85    19    20    2
    86    15    17   am
    87    15    14    1
    88    69    68    1
    89    69    70    1
    90    14    13    1
