@<TRIPOS>MOLECULE
tmp/3fg8A00.pdb
 138 132 0 0 0
SMALL
GASTEIGER

@<TRIPOS>ATOM
      1  N         70.6990   13.5650   28.9700 N.3    13  PHE13      -0.1241
      2  CA        70.6580   14.3120   30.2440 C.3    13  PHE13       0.1605
      3  C         69.8240   13.5200   31.2170 C.2    13  PHE13       0.2264
      4  O         68.7890   12.9560   30.8500 O.2    13  PHE13      -0.2867
      5  CB        69.9880   15.6840   30.0590 C.3    13  PHE13       0.0534
      6  CG        70.9490   16.7920   29.7430 C.ar   13  PHE13      -0.0203
      7  CD1       71.3730   17.6450   30.7600 C.ar   13  PHE13      -0.0042
      8  CD2       71.3930   17.0170   28.4150 C.ar   13  PHE13      -0.0042
      9  CE1       72.2860   18.6770   30.5010 C.ar   13  PHE13      -0.0003
     10  CE2       72.3250   18.0280   28.1350 C.ar   13  PHE13      -0.0003
     11  CZ        72.7670   18.8700   29.2090 C.ar   13  PHE13      -0.0000
     12  N         69.3290    9.7420   26.8770 N.3    28  CYS28      -0.1235
     13  CA        69.8080    9.0580   28.0940 C.3    28  CYS28       0.1677
     14  C         69.1740    7.6680   28.2220 C.2    28  CYS28       0.2270
     15  O         69.8560    6.6780   28.5450 O.2    28  CYS28      -0.2867
     16  CB        69.4810    9.8910   29.3150 C.3    28  CYS28       0.0956
     17  SG        70.4460    9.3740   30.7270 S.3    28  CYS28      -0.0801
     18  N         70.6180    5.2800   25.7190 N.3    31  HIS31      -0.1226
     19  CA        71.9740    4.9150   26.1630 C.3    31  HIS31       0.1752
     20  C         71.9730    3.7680   27.1800 C.2    31  HIS31       0.2595
     21  O         72.7030    2.7710   27.0230 O.2    31  HIS31      -0.2718
     22  CB        72.6610    6.1490   26.7520 C.3    31  HIS31       0.0759
     23  CG        74.0890    5.9030   27.1410 C.ar   31  HIS31       0.0818
     24  ND1       75.0850    5.6910   26.2130 N.ar   31  HIS31      -0.2268
     25  CD2       74.6730    5.7890   28.3530 C.ar   31  HIS31       0.1154
     26  CE1       76.2310    5.4810   26.8370 C.ar   31  HIS31       0.1986
     27  NE2       76.0090    5.5400   28.1380 N.ar   31  HIS31      -0.2212
     28  N         71.1430    3.8830   28.2080 N.am   32  VAL32      -0.1980
     29  CA        71.0570    2.8240   29.2050 C.3    32  VAL32       0.1595
     30  C         70.1360    1.6730   28.7860 C.2    32  VAL32       0.2287
     31  O         70.1100    0.6180   29.4740 O.2    32  VAL32      -0.2864
     32  CB        70.6920    3.3800   30.6130 C.3    32  VAL32       0.0276
     33  CG1       71.7450    4.4450   31.0610 C.3    32  VAL32       0.0022
     34  CG2       69.2370    3.9820   30.6170 C.3    32  VAL32       0.0022
     35  N         68.8800    6.2690   41.8820 N.3    44  VAL44      -0.1245
     36  CA        69.7200    5.9560   40.7210 C.3    44  VAL44       0.1561
     37  C         70.5330    4.6720   40.9450 C.2    44  VAL44       0.2260
     38  O         70.6640    3.8540   40.0250 O.2    44  VAL44      -0.2867
     39  CB        70.6200    7.1620   40.2680 C.3    44  VAL44       0.0252
     40  CG1       71.6770    7.5580   41.3550 C.3    44  VAL44       0.0019
     41  CG2       71.3010    6.8680   38.9360 C.3    44  VAL44       0.0019
     42  N         70.2440    1.7150   38.3320 N.3    48  LEU48      -0.1245
     43  CA        71.4870    1.7250   37.5610 C.3    48  LEU48       0.1561
     44  C         72.6740    1.2710   38.4530 C.2    48  LEU48       0.2260
     45  O         73.5890    2.0270   38.6940 O.2    48  LEU48      -0.2867
     46  CB        71.7270    3.1210   36.9310 C.3    48  LEU48       0.0270
     47  CG        70.6920    3.5840   35.8880 C.3    48  LEU48       0.0019
     48  CD1       71.0770    4.9920   35.4080 C.3    48  LEU48       0.0001
     49  CD2       70.6180    2.6190   34.6920 C.3    48  LEU48       0.0001
     50  N         76.5520    1.8280   38.1370 N.3    51  THR51      -0.1218
     51  CA        77.2230    3.1120   38.4540 C.3    51  THR51       0.1862
     52  C         77.8740    3.1630   39.8230 C.2    51  THR51       0.2287
     53  O         78.7770    3.9670   40.0450 O.2    51  THR51      -0.2866
     54  CB        76.2830    4.3180   38.3580 C.3    51  THR51       0.1770
     55  OG1       75.2310    4.1700   39.3210 O.3    51  THR51      -0.2211
     56  CG2       75.6940    4.4120   36.9440 C.3    51  THR51       0.0375
     57  N         83.4630    5.5050   38.1870 N.3    55  TYR55      -0.1227
     58  CA        83.9010    6.9070   38.0590 C.3    55  TYR55       0.1736
     59  C         82.7130    7.8230   38.2950 C.2    55  TYR55       0.2595
     60  O         82.8810    8.9480   38.7840 O.2    55  TYR55      -0.2718
     61  CB        84.4910    7.1930   36.6480 C.3    55  TYR55       0.0548
     62  CG        83.3730    7.3110   35.6380 C.ar   55  TYR55      -0.0200
     63  CD1       82.7850    8.5530   35.3680 C.ar   55  TYR55      -0.0009
     64  CD2       82.8630    6.1840   34.9800 C.ar   55  TYR55      -0.0009
     65  CE1       81.6830    8.6620   34.5200 C.ar   55  TYR55       0.0417
     66  CE2       81.7780    6.2930   34.0930 C.ar   55  TYR55       0.0417
     67  CZ        81.1960    7.5470   33.8710 C.ar   55  TYR55       0.1957
     68  OH        80.1220    7.6750   33.0190 O.3    55  TYR55      -0.2866
     69  N         81.5070    7.3450   37.9510 N.am   56  PHE56      -0.1976
     70  CA        80.3040    8.1650   38.0020 C.3    56  PHE56       0.1639
     71  C         79.8660    8.4160   39.4570 C.2    56  PHE56       0.2290
     72  O         79.3990    9.4800   39.7960 O.2    56  PHE56      -0.2864
     73  CB        79.1800    7.4610   37.2510 C.3    56  PHE56       0.0560
     74  CG        77.9230    8.2960   37.1420 C.ar   56  PHE56      -0.0200
     75  CD1       77.8540    9.3100   36.1940 C.ar   56  PHE56      -0.0042
     76  CD2       76.8630    8.0860   38.0090 C.ar   56  PHE56      -0.0042
     77  CE1       76.7020   10.1290   36.1020 C.ar   56  PHE56      -0.0003
     78  CE2       75.7190    8.8380   37.9360 C.ar   56  PHE56      -0.0003
     79  CZ        75.6140    9.8680   36.9670 C.ar   56  PHE56      -0.0000
     80  N         82.8030    4.4540   28.3780 N.3    76  SER76      -0.1202
     81  CA        81.4170    4.3390   28.8540 C.3    76  SER76       0.2020
     82  C         81.1240    3.0200   29.5860 C.2    76  SER76       0.2619
     83  O         81.5330    1.9640   29.1280 O.2    76  SER76      -0.2717
     84  CB        80.5080    4.4810   27.6250 C.3    76  SER76       0.2103
     85  OG        79.1640    4.2470   27.9530 O.3    76  SER76      -0.2182
     86  N         80.4060    3.1000   30.7150 N.am   77  LEU77      -0.1965
     87  CA        79.9170    1.9310   31.4350 C.3    77  LEU77       0.1728
     88  C         78.8750    1.1880   30.6320 C.2    77  LEU77       0.2616
     89  O         78.9140   -0.0420   30.5380 O.2    77  LEU77      -0.2715
     90  CB        79.3200    2.3470   32.7820 C.3    77  LEU77       0.0311
     91  CG        80.2780    2.8630   33.8410 C.3    77  LEU77       0.0022
     92  CD1       79.4300    3.3370   35.0230 C.3    77  LEU77       0.0001
     93  CD2       81.1960    1.7410   34.2870 C.3    77  LEU77       0.0001
     94  N         77.9370    1.9270   30.0430 N.am   78  TYR78      -0.1974
     95  CA        76.8190    1.2830   29.3650 C.3    78  TYR78       0.1639
     96  C         77.0770    0.9590   27.8930 C.2    78  TYR78       0.2290
     97  O         76.3590    0.1390   27.3040 O.2    78  TYR78      -0.2864
     98  CB        75.5360    2.0970   29.5930 C.3    78  TYR78       0.0560
     99  CG        75.1200    1.9930   31.0220 C.ar   78  TYR78      -0.0198
    100  CD1       74.4910    0.8350   31.5020 C.ar   78  TYR78      -0.0009
    101  CD2       75.4210    3.0090   31.9240 C.ar   78  TYR78      -0.0009
    102  CE1       74.1420    0.7050   32.8480 C.ar   78  TYR78       0.0417
    103  CE2       75.0770    2.9000   33.2540 C.ar   78  TYR78       0.0417
    104  CZ        74.4280    1.7500   33.7100 C.ar   78  TYR78       0.1957
    105  OH        74.1210    1.6330   35.0370 O.3    78  TYR78      -0.2866
    106  N         83.4970    8.6780   26.2230 N.3    83  ILE83      -0.1245
    107  CA        82.5290    9.7380   26.5120 C.3    83  ILE83       0.1561
    108  C         83.1380   10.8230   27.4140 C.2    83  ILE83       0.2260
    109  O         84.0940   10.5700   28.1580 O.2    83  ILE83      -0.2867
    110  CB        81.2430    9.1950   27.1560 C.3    83  ILE83       0.0252
    111  CG1       81.5650    8.4260   28.4520 C.3    83  ILE83       0.0019
    112  CG2       80.3680    8.3630   26.1160 C.3    83  ILE83       0.0019
    113  CD1       80.2810    7.9300   29.1750 C.3    83  ILE83       0.0001
    114  N         81.7730   13.1510   30.4380 N.3    85  VAL85      -0.1245
    115  CA        80.6180   13.1560   31.3570 C.3    85  VAL85       0.1561
    116  C         80.7480   14.4070   32.2360 C.2    85  VAL85       0.2260
    117  O         81.8390   14.6950   32.7350 O.2    85  VAL85      -0.2867
    118  CB        80.6080   11.8990   32.2070 C.3    85  VAL85       0.0252
    119  CG1       79.4150   11.9140   33.1940 C.3    85  VAL85       0.0019
    120  CG2       80.5240   10.6720   31.2660 C.3    85  VAL85       0.0019
    121  N         73.2910   15.6990   35.1640 N.3    96  VAL96      -0.1245
    122  CA        74.3800   14.9970   34.4980 C.3    96  VAL96       0.1561
    123  C         74.1000   14.8930   33.0070 C.2    96  VAL96       0.2260
    124  O         72.9430   14.6740   32.6190 O.2    96  VAL96      -0.2867
    125  CB        74.5320   13.5650   35.0960 C.3    96  VAL96       0.0252
    126  CG1       75.7070   12.8550   34.4760 C.3    96  VAL96       0.0019
    127  CG2       74.6710   13.6470   36.6420 C.3    96  VAL96       0.0019
    128  N         76.1980   13.4980   29.0530 N.3    98  PHE98      -0.1241
    129  CA        77.3950   12.9020   28.5110 C.3    98  PHE98       0.1605
    130  C         77.4020   13.1270   27.0160 C.2    98  PHE98       0.2264
    131  O         76.3470   13.3590   26.3920 O.2    98  PHE98      -0.2867
    132  CB        77.4620   11.4010   28.8210 C.3    98  PHE98       0.0534
    133  CG        76.3220   10.6380   28.2380 C.ar   98  PHE98      -0.0203
    134  CD1       76.4400   10.0150   27.0250 C.ar   98  PHE98      -0.0042
    135  CD2       75.1200   10.5740   28.9370 C.ar   98  PHE98      -0.0042
    136  CE1       75.3400    9.3290   26.4580 C.ar   98  PHE98      -0.0003
    137  CE2       74.0160    9.8840   28.4090 C.ar   98  PHE98      -0.0003
    138  CZ        74.1290    9.2790   27.1730 C.ar   98  PHE98      -0.0000
@<TRIPOS>BOND
     1    18    19    1
     2   112   110    1
     3    19    22    1
     4    19    20    1
     5    24    26   ar
     6    24    23   ar
     7   106   107    1
     8   131   130    2
     9   136   134   ar
    10   136   138   ar
    11   107   110    1
    12   107   108    1
    13    22    23    1
    14    26    27   ar
    15    12    13    1
    16   130   129    1
    17    21    20    2
    18   134   133   ar
    19    23    25   ar
    20   110   111    1
    21   138   137   ar
    22    20    28   am
    23    97    96    2
    24   108   109    2
    25    84    85    1
    26    84    81    1
    27    96    95    1
    28    13    14    1
    29    13    16    1
    30    10     8   ar
    31    10    11   ar
    32    27    25   ar
    33    28    29    1
    34    14    15    2
    35   133   132    1
    36   133   135   ar
    37    80    81    1
    38   137   135   ar
    39     8     6   ar
    40   111   113    1
    41   129   132    1
    42   129   128    1
    43    30    29    1
    44    30    31    2
    45    81    82    1
    46     1     2    1
    47    83    82    2
    48    29    32    1
    49    11     9   ar
    50    16    17    1
    51    95    98    1
    52    95    94    1
    53    82    86   am
    54    98    99    1
    55     6     5    1
    56     6     7   ar
    57    94    88   am
    58     5     2    1
    59     2     3    1
    60   114   115    1
    61     9     7   ar
    62    89    88    2
    63    32    34    1
    64    32    33    1
    65    88    87    1
    66    86    87    1
    67     4     3    2
    68    99   100   ar
    69    99   101   ar
    70   120   118    1
    71   115   118    1
    72   115   116    1
    73    87    90    1
    74   100   102   ar
    75   101   103   ar
    76   118   119    1
    77   116   117    2
    78   124   123    2
    79    90    91    1
    80   102   104   ar
    81   123   122    1
    82    68    67    1
    83   103   104   ar
    84   104   105    1
    85    91    93    1
    86    91    92    1
    87    67    66   ar
    88    67    65   ar
    89    66    64   ar
    90   126   125    1
    91   122   125    1
    92   122   121    1
    93    65    63   ar
    94    49    47    1
    95    64    62   ar
    96   125   127    1
    97    63    62   ar
    98    48    47    1
    99    62    61    1
   100    47    46    1
   101    77    75   ar
   102    77    79   ar
   103    75    74   ar
   104    61    58    1
   105    46    43    1
   106    56    54    1
   107    79    78   ar
   108    74    73    1
   109    74    76   ar
   110    73    70    1
   111    43    42    1
   112    43    44    1
   113    78    76   ar
   114    69    70    1
   115    69    59   am
   116    70    71    1
   117    58    57    1
   118    58    59    1
   119    50    51    1
   120    59    60    2
   121    54    51    1
   122    54    55    1
   123    44    45    2
   124    51    52    1
   125    41    39    1
   126    71    72    2
   127    52    53    2
   128    38    37    2
   129    39    36    1
   130    39    40    1
   131    36    37    1
   132    36    35    1
