@<TRIPOS>MOLECULE
tmp/3fgcA00.pdb
 170 164 0 0 0
SMALL
GASTEIGER

@<TRIPOS>ATOM
      1  N         12.1690   15.4640   23.6900 N.3     6  PHE6       -0.1241
      2  CA        11.3920   16.3640   24.5330 C.3     6  PHE6        0.1605
      3  C         12.2500   17.4850   25.0570 C.2     6  PHE6        0.2264
      4  O         13.2700   17.2250   25.6660 O.2     6  PHE6       -0.2867
      5  CB        10.8910   15.6510   25.8030 C.3     6  PHE6        0.0534
      6  CG         9.7130   14.7980   25.5910 C.ar    6  PHE6       -0.0203
      7  CD1        8.5790   15.3020   24.9550 C.ar    6  PHE6       -0.0042
      8  CD2        9.7090   13.5000   26.0450 C.ar    6  PHE6       -0.0042
      9  CE1        7.4680   14.5150   24.7410 C.ar    6  PHE6       -0.0003
     10  CE2        8.5940   12.7090   25.8380 C.ar    6  PHE6       -0.0003
     11  CZ         7.4710   13.2260   25.1750 C.ar    6  PHE6       -0.0000
     12  N          7.3210   21.4110   25.5050 N.3    42  LEU42      -0.1231
     13  CA         6.3770   21.6270   26.6190 C.3    42  LEU42       0.1693
     14  C          5.9640   23.1050   26.8270 C.2    42  LEU42       0.2591
     15  O          6.7940   24.0000   26.6970 O.2    42  LEU42      -0.2718
     16  CB         7.0080   21.1500   27.9270 C.3    42  LEU42       0.0284
     17  CG         6.2070   21.3400   29.2150 C.3    42  LEU42       0.0019
     18  CD1        5.7500   19.9710   29.6460 C.3    42  LEU42       0.0001
     19  CD2        6.9690   22.0850   30.4010 C.3    42  LEU42       0.0001
     20  N          4.7100   23.3450   27.2110 N.am   43  GLU43      -0.1979
     21  CA         4.2470   24.6860   27.5590 C.3    43  GLU43       0.1602
     22  C          4.1620   24.8990   29.0630 C.2    43  GLU43       0.2287
     23  O          3.5880   24.0880   29.7670 O.2    43  GLU43      -0.2864
     24  CB         2.8500   24.9370   26.9830 C.3    43  GLU43       0.0415
     25  CG         2.1230   26.1810   27.5780 C.3    43  GLU43       0.1163
     26  CD         0.7870   26.4680   26.9190 C.2    43  GLU43       0.3649
     27  OE1        0.4890   25.8660   25.8510 O.co2  43  GLU43      -0.2457
     28  OE2        0.0390   27.3040   27.4920 O.co2  43  GLU43      -0.2457
     29  N          4.0850   19.2330   23.1690 N.3    74  ALA74      -0.1231
     30  CA         3.7040   18.2310   24.1420 C.3    74  ALA74       0.1694
     31  C          3.7090   18.9140   25.4920 C.2    74  ALA74       0.2591
     32  O          4.6420   18.7110   26.2490 O.2    74  ALA74      -0.2718
     33  CB         4.6870   17.0310   24.1350 C.3    74  ALA74       0.0304
     34  N          2.6630   19.6770   25.8270 N.am   75  ALA75      -0.1980
     35  CA         1.4670   19.8250   24.9910 C.3    75  ALA75       0.1597
     36  C          0.9780   21.2590   25.0780 C.2    75  ALA75       0.2287
     37  O          1.2540   21.9360   26.0330 O.2    75  ALA75      -0.2864
     38  CB         0.3520   18.8840   25.4470 C.3    75  ALA75       0.0319
     39  N         -1.6700   23.7910   26.1930 N.3    77  VAL77      -0.1245
     40  CA        -2.7600   23.8180   27.1410 C.3    77  VAL77       0.1561
     41  C         -3.9560   24.4100   26.4090 C.2    77  VAL77       0.2260
     42  O         -4.1260   25.6650   26.3470 O.2    77  VAL77      -0.2867
     43  CB        -2.4480   24.5820   28.4370 C.3    77  VAL77       0.0252
     44  CG1       -3.7100   24.7160   29.2940 C.3    77  VAL77       0.0019
     45  CG2       -1.2140   23.9450   29.2240 C.3    77  VAL77       0.0019
     46  N         -3.3320   19.1580   25.6980 N.3   106  CYS106     -0.1221
     47  CA        -3.7390   18.6010   27.0070 C.3   106  CYS106      0.1808
     48  C         -4.7810   19.5710   27.6110 C.2   106  CYS106      0.2601
     49  O         -4.9480   20.7050   27.0760 O.2   106  CYS106     -0.2717
     50  CB        -2.5050   18.4060   27.9410 C.3   106  CYS106      0.0970
     51  SG        -1.7430   19.9930   28.4080 S.3   106  CYS106     -0.0800
     52  N         -5.4340   19.1600   28.7130 N.am  107  ARG107     -0.1965
     53  CA        -6.4110   20.0400   29.4300 C.3   107  ARG107      0.1729
     54  C         -5.7340   21.1250   30.2790 C.2   107  ARG107      0.2617
     55  O         -6.3670   22.1160   30.5840 O.2   107  ARG107     -0.2715
     56  CB        -7.2820   19.2450   30.3900 C.3   107  ARG107      0.0348
     57  CG        -8.2650   18.2770   29.7540 C.3   107  ARG107      0.0492
     58  CD        -9.0670   17.5590   30.8170 C.3   107  ARG107      0.2205
     59  NE        -8.2370   16.8190   31.7620 N.pl3 107  ARG107     -0.0865
     60  CZ        -8.5210   16.6870   33.0670 C.cat 107  ARG107      0.5346
     61  NH1       -9.6230   17.2680   33.5770 N.pl3 107  ARG107      0.1354
     62  NH2       -7.6950   15.9730   33.8650 N.pl3 107  ARG107      0.1354
     63  N         -4.4810   20.8900   30.6990 N.am  108  GLY108     -0.1940
     64  CA        -3.7080   21.8070   31.5130 C.3   108  GLY108      0.2014
     65  C         -3.6010   21.3740   32.9700 C.2   108  GLY108      0.2639
     66  O         -4.6080   21.0150   33.6270 O.2   108  GLY108     -0.2714
     67  N         -2.3780   21.4450   33.4960 N.am  109  LEU109     -0.1963
     68  CA        -2.0860   20.9740   34.8660 C.3   109  LEU109      0.1728
     69  C         -2.1740   22.0880   35.9360 C.2   109  LEU109      0.2616
     70  O         -2.4180   21.8140   37.1040 O.2   109  LEU109     -0.2715
     71  CB        -0.7070   20.2620   34.8910 C.3   109  LEU109      0.0311
     72  CG        -0.3320   19.5290   36.1840 C.3   109  LEU109      0.0022
     73  CD1       -1.2340   18.2830   36.4470 C.3   109  LEU109      0.0001
     74  CD2        1.1460   19.1320   36.1580 C.3   109  LEU109      0.0001
     75  N         -2.0270   23.3530   35.5590 N.am  110  TYR110     -0.1974
     76  CA        -1.8760   24.3770   36.5840 C.3   110  TYR110      0.1639
     77  C         -2.9190   25.4470   36.5810 C.2   110  TYR110      0.2290
     78  O         -3.0520   26.1710   35.5890 O.2   110  TYR110     -0.2864
     79  CB        -0.5470   25.0650   36.3910 C.3   110  TYR110      0.0560
     80  CG         0.6570   24.1610   36.4910 C.ar  110  TYR110     -0.0198
     81  CD1        1.1520   23.8010   37.7520 C.ar  110  TYR110     -0.0009
     82  CD2        1.3320   23.6880   35.3350 C.ar  110  TYR110     -0.0009
     83  CE1        2.2750   23.0120   37.8880 C.ar  110  TYR110      0.0417
     84  CE2        2.5010   22.8500   35.4670 C.ar  110  TYR110      0.0417
     85  CZ         2.9530   22.5590   36.7560 C.ar  110  TYR110      0.1957
     86  OH         4.0430   21.7930   36.9990 O.3   110  TYR110     -0.2866
     87  N         -2.4920   29.2810   35.2390 N.3   113  ASP113     -0.1239
     88  CA        -2.7170   29.6110   33.8350 C.3   113  ASP113      0.1674
     89  C         -4.1530   30.0390   33.6240 C.2   113  ASP113      0.2266
     90  O         -4.4410   31.0080   32.9200 O.2   113  ASP113     -0.2867
     91  CB        -2.4670   28.3590   32.9700 C.3   113  ASP113      0.1410
     92  CG        -1.0260   27.9700   32.9240 C.2   113  ASP113      0.3668
     93  OD1       -0.2180   28.6260   33.6450 O.co2 113  ASP113     -0.2456
     94  OD2       -0.7040   26.9940   32.1920 O.co2 113  ASP113     -0.2456
     95  N         -2.0470   14.3040   25.1310 N.3   173  VAL173     -0.1231
     96  CA        -1.4860   13.8800   26.3890 C.3   173  VAL173      0.1692
     97  C         -2.6380   13.3900   27.3030 C.2   173  VAL173      0.2592
     98  O         -3.5330   14.1710   27.6800 O.2   173  VAL173     -0.2718
     99  CB        -0.6630   15.0060   27.0840 C.3   173  VAL173      0.0266
    100  CG1       -0.3250   14.6080   28.5500 C.3   173  VAL173      0.0020
    101  CG2        0.5940   15.3130   26.2720 C.3   173  VAL173      0.0020
    102  N         -2.6050   12.1070   27.6490 N.am  174  ALA174     -0.1966
    103  CA        -3.7230   11.4700   28.3340 C.3   174  ALA174      0.1728
    104  C         -3.2340   10.5320   29.4330 C.2   174  ALA174      0.2616
    105  O         -2.2870    9.7700   29.2360 O.2   174  ALA174     -0.2715
    106  CB        -4.5940   10.7170   27.3410 C.3   174  ALA174      0.0334
    107  N         -3.8800   10.6080   30.5900 N.am  175  GLU175     -0.1963
    108  CA        -3.4660    9.8420   31.7550 C.3   175  GLU175      0.1733
    109  C         -4.6320    9.7430   32.7270 C.2   175  GLU175      0.2617
    110  O         -4.4510    9.4130   33.9000 O.2   175  GLU175     -0.2715
    111  CB        -2.2680   10.5070   32.4370 C.3   175  GLU175      0.0429
    112  CG        -1.1840    9.5350   32.8730 C.3   175  GLU175      0.1163
    113  CD        -0.7410    9.7610   34.3050 C.2   175  GLU175      0.3649
    114  OE1       -1.5820    9.6240   35.2180 O.co2 175  GLU175     -0.2457
    115  OE2        0.4490   10.0760   34.5180 O.co2 175  GLU175     -0.2457
    116  N         -5.8300   10.0310   32.2300 N.am  176  SER176     -0.1950
    117  CA        -7.0460    9.5040   32.8380 C.3   176  SER176      0.1924
    118  C         -7.8430    8.6670   31.8430 C.2   176  SER176      0.2314
    119  O         -7.6990    8.8250   30.6300 O.2   176  SER176     -0.2863
    120  CB        -7.9120   10.6440   33.3790 C.3   176  SER176      0.2116
    121  OG        -8.4320   11.4340   32.3240 O.3   176  SER176     -0.2180
    122  N         -9.7550   10.7790   29.4150 N.3   179  THR179     -0.1218
    123  CA        -9.0590   11.4800   28.3170 C.3   179  THR179      0.1862
    124  C         -8.6460   10.4480   27.2600 C.2   179  THR179      0.2287
    125  O         -8.6950   10.7180   26.0590 O.2   179  THR179     -0.2866
    126  CB        -7.8780   12.3710   28.8210 C.3   179  THR179      0.1770
    127  OG1       -8.3850   13.3340   29.7590 O.3   179  THR179     -0.2211
    128  CG2       -7.2700   13.1520   27.6670 C.3   179  THR179      0.0375
    129  N          0.1310   10.4090   23.7700 N.3   191  ILE191     -0.1231
    130  CA         1.4930   10.4520   24.2390 C.3   191  ILE191      0.1692
    131  C          1.3740    9.9920   25.6650 C.2   191  ILE191      0.2592
    132  O          0.7020   10.6430   26.4710 O.2   191  ILE191     -0.2718
    133  CB         2.0800   11.9200   24.2440 C.3   191  ILE191      0.0266
    134  CG1        2.1130   12.4980   22.8220 C.3   191  ILE191      0.0019
    135  CG2        3.4760   11.8910   24.9120 C.3   191  ILE191      0.0020
    136  CD1        2.3180   14.0210   22.6950 C.3   191  ILE191      0.0001
    137  N          2.0300    8.8810   25.9640 N.am  192  LEU192     -0.1966
    138  CA         1.8510    8.1810   27.2380 C.3   192  LEU192      0.1728
    139  C          2.8020    8.7660   28.2430 C.2   192  LEU192      0.2617
    140  O          3.9280    9.1770   27.8880 O.2   192  LEU192     -0.2715
    141  CB         2.1980    6.6950   27.0630 C.3   192  LEU192      0.0311
    142  CG         1.2210    5.8770   26.2230 C.3   192  LEU192      0.0022
    143  CD1        1.4820    4.3650   26.3250 C.3   192  LEU192      0.0001
    144  CD2       -0.2330    6.2130   26.5720 C.3   192  LEU192      0.0001
    145  N          2.3760    8.7440   29.4990 N.am  193  SER193     -0.1936
    146  CA         3.1940    9.2470   30.6060 C.3   193  SER193      0.2055
    147  C          4.4570    8.3740   30.9090 C.2   193  SER193      0.2643
    148  O          4.4740    7.1510   30.7180 O.2   193  SER193     -0.2714
    149  CB         2.2760    9.3340   31.8060 C.3   193  SER193      0.2130
    150  OG         2.9210    9.7670   32.9430 O.3   193  SER193     -0.2179
    151  N          5.5070    9.0340   31.3740 N.am  194  TRP194     -0.1973
    152  CA         6.7430    8.3600   31.7140 C.3   194  TRP194      0.1640
    153  C          6.7060    8.0520   33.2230 C.2   194  TRP194      0.2290
    154  O          7.6330    7.4410   33.7310 O.2   194  TRP194     -0.2864
    155  CB         7.9840    9.1910   31.3000 C.3   194  TRP194      0.0576
    156  CG         7.8850   10.5950   31.7830 C.ar  194  TRP194      0.0006
    157  CD1        7.3800   11.6840   31.0800 C.ar  194  TRP194      0.0946
    158  CD2        8.1930   11.0730   33.0860 C.ar  194  TRP194      0.0152
    159  NE1        7.3490   12.7990   31.8880 N.ar  194  TRP194     -0.2442
    160  CE2        7.8450   12.4600   33.1230 C.ar  194  TRP194      0.0810
    161  CE3        8.7280   10.4750   34.2400 C.ar  194  TRP194      0.0012
    162  CZ2        8.0480   13.2690   34.2780 C.ar  194  TRP194      0.0191
    163  CZ3        8.9240   11.2730   35.3910 C.ar  194  TRP194      0.0001
    164  CH2        8.5750   12.6590   35.3960 C.ar  194  TRP194      0.0015
    165  N          6.6850    8.1630   26.1430 N.3   227  SER227     -0.1217
    166  CA         7.5490    9.2070   26.5310 C.3   227  SER227      0.1889
    167  C          8.3720    8.7680   27.7570 C.2   227  SER227      0.2288
    168  O          7.9380    7.9090   28.5420 O.2   227  SER227     -0.2866
    169  CB         6.8030   10.5080   26.7150 C.3   227  SER227      0.2089
    170  OG         6.2310   10.5970   27.9800 O.3   227  SER227     -0.2183
@<TRIPOS>BOND
     1   136   134    1
     2   134   133    1
     3    29    30    1
     4     1     2    1
     5   129   130    1
     6    33    30    1
     7    30    31    1
     8   130   133    1
     9   130   131    1
    10   133   135    1
    11     2     3    1
    12     2     5    1
    13     9     7   ar
    14     9    11   ar
    15     7     6   ar
    16    35    36    1
    17    35    38    1
    18    35    34    1
    19     3     4    2
    20    36    37    2
    21    95    96    1
    22    11    10   ar
    23    31    34   am
    24    31    32    2
    25    12    13    1
    26     6     5    1
    27     6     8   ar
    28   131   137   am
    29   131   132    2
    30    46    47    1
    31    10     8   ar
    32    27    26   ar
    33   137   138    1
    34   125   124    2
    35   165   166    1
    36    39    40    1
    37   142   143    1
    38   142   144    1
    39   142   141    1
    40   101    99    1
    41    42    41    2
    42    96    99    1
    43    96    97    1
    44    41    40    1
    45   166   169    1
    46   166   167    1
    47    13    14    1
    48    13    16    1
    49    15    14    2
    50   169   170    1
    51    14    20   am
    52    26    28   ar
    53    26    25    1
    54    24    21    1
    55    24    25    1
    56    47    48    1
    57    47    50    1
    58   141   138    1
    59    49    48    2
    60    99   100    1
    61    40    43    1
    62    20    21    1
    63   138   139    1
    64   124   123    1
    65    97   102   am
    66    97    98    2
    67   106   103    1
    68    21    22    1
    69    48    52   am
    70   102   103    1
    71   128   126    1
    72   167   168    2
    73   140   139    2
    74    16    17    1
    75    50    51    1
    76   139   145   am
    77   123   126    1
    78   123   122    1
    79   103   104    1
    80    43    45    1
    81    43    44    1
    82    52    53    1
    83   126   127    1
    84    22    23    2
    85    17    18    1
    86    17    19    1
    87   105   104    2
    88    53    54    1
    89    53    56    1
    90   104   107   am
    91   145   146    1
    92    57    56    1
    93    57    58    1
    94    54    55    2
    95    54    63   am
    96   107   108    1
    97   146   147    1
    98   146   149    1
    99   119   118    2
   100    63    64    1
   101   148   147    2
   102    58    59    1
   103   147   151   am
   104   157   156   ar
   105   157   159   ar
   106   155   152    1
   107   155   156    1
   108   151   152    1
   109    64    65    1
   110   152   153    1
   111   108   111    1
   112   108   109    1
   113    59    60    2
   114   156   158   ar
   115   149   150    1
   116   118   117    1
   117   159   160   ar
   118    94    92   ar
   119   116   109   am
   120   116   117    1
   121   121   120    1
   122   111   112    1
   123   109   110    2
   124   117   120    1
   125   112   113    1
   126    90    89    2
   127    92    91    1
   128    92    93   ar
   129    65    67   am
   130    65    66    2
   131    91    88    1
   132    60    61    1
   133    60    62    1
   134   158   160   ar
   135   158   161   ar
   136   160   162   ar
   137   153   154    2
   138    67    68    1
   139    89    88    1
   140    88    87    1
   141   161   163   ar
   142   162   164   ar
   143   113   115   ar
   144   113   114   ar
   145    68    71    1
   146    68    69    1
   147    71    72    1
   148    82    84   ar
   149    82    80   ar
   150   163   164   ar
   151    84    85   ar
   152    75    69   am
   153    75    76    1
   154    78    77    2
   155    69    70    2
   156    74    72    1
   157    72    73    1
   158    79    80    1
   159    79    76    1
   160    80    81   ar
   161    77    76    1
   162    85    86    1
   163    85    83   ar
   164    81    83   ar
