@<TRIPOS>MOLECULE
tmp/3fgdA00.pdb
 141 136 0 0 0
SMALL
GASTEIGER

@<TRIPOS>ATOM
      1  N        -13.3070   44.0170   -0.5440 N.3   112  ASN112     -0.1225
      2  CA       -13.0770   43.0620    0.5410 C.3   112  ASN112      0.1785
      3  C        -14.2160   42.0470    0.5900 C.2   112  ASN112      0.2597
      4  O        -15.2190   42.1580   -0.1290 O.2   112  ASN112     -0.2718
      5  CB       -12.9680   43.7460    1.8880 C.3   112  ASN112      0.1169
      6  CG       -11.7690   43.2680    2.6670 C.2   112  ASN112      0.2627
      7  OD1      -11.4940   42.0950    2.6300 O.2   112  ASN112     -0.2716
      8  ND2      -11.0520   44.1760    3.2990 N.am  112  ASN112     -0.0877
      9  N        -14.0380   41.0880    1.4610 N.am  113  ALA113     -0.1966
     10  CA       -15.0080   40.0330    1.7490 C.3   113  ALA113      0.1728
     11  C        -14.8430   39.7110    3.2390 C.2   113  ALA113      0.2616
     12  O        -13.7320   39.9660    3.7670 O.2   113  ALA113     -0.2715
     13  CB       -14.7910   38.7850    0.9120 C.3   113  ALA113      0.0334
     14  N        -15.8630   39.1600    3.8690 N.am  114  PHE114     -0.1974
     15  CA       -15.7420   38.8250    5.2970 C.3   114  PHE114      0.1639
     16  C        -16.8050   37.8280    5.7130 C.2   114  PHE114      0.2290
     17  O        -17.7970   37.5850    4.9940 O.2   114  PHE114     -0.2864
     18  CB       -15.7990   40.1030    6.1410 C.3   114  PHE114      0.0560
     19  CG       -17.0060   41.0010    5.9470 C.ar  114  PHE114     -0.0200
     20  CD1      -17.0740   41.9450    4.9660 C.ar  114  PHE114     -0.0042
     21  CD2      -18.0840   40.8900    6.8340 C.ar  114  PHE114     -0.0042
     22  CE1      -18.1640   42.7830    4.8150 C.ar  114  PHE114     -0.0003
     23  CE2      -19.1580   41.7210    6.6920 C.ar  114  PHE114     -0.0003
     24  CZ       -19.2360   42.7080    5.7020 C.ar  114  PHE114     -0.0000
     25  N         -9.6380   45.1710   -6.9300 N.3   130  PHE130     -0.1241
     26  CA       -10.2700   43.8650   -6.9940 C.3   130  PHE130      0.1605
     27  C        -11.4000   43.8740   -8.0130 C.2   130  PHE130      0.2264
     28  O        -12.0150   44.9190   -8.2590 O.2   130  PHE130     -0.2867
     29  CB       -10.9000   43.4810   -5.6410 C.3   130  PHE130      0.0534
     30  CG        -9.9540   42.9750   -4.5580 C.ar  130  PHE130     -0.0203
     31  CD1       -9.4260   41.6980   -4.6250 C.ar  130  PHE130     -0.0042
     32  CD2       -9.6330   43.7870   -3.4850 C.ar  130  PHE130     -0.0042
     33  CE1       -8.5760   41.2260   -3.6360 C.ar  130  PHE130     -0.0003
     34  CE2       -8.7580   43.3510   -2.5000 C.ar  130  PHE130     -0.0003
     35  CZ        -8.2340   42.0680   -2.5930 C.ar  130  PHE130     -0.0000
     36  N        -15.2780   39.5710   -5.3520 N.3   133  LEU133     -0.1245
     37  CA       -14.2990   38.7820   -4.6080 C.3   133  LEU133      0.1561
     38  C        -14.6750   37.3190   -4.5550 C.2   133  LEU133      0.2260
     39  O        -13.8410   36.4670   -4.2810 O.2   133  LEU133     -0.2867
     40  CB       -14.0980   39.3790   -3.1960 C.3   133  LEU133      0.0270
     41  CG       -13.0830   40.5390   -3.1660 C.3   133  LEU133      0.0019
     42  CD1      -13.7470   41.8520   -3.5960 C.3   133  LEU133      0.0001
     43  CD2      -12.3990   40.6900   -1.8240 C.3   133  LEU133      0.0001
     44  N        -10.6790   32.7890   -1.5570 N.3   139  VAL139     -0.1245
     45  CA       -11.3780   33.8070   -0.7600 C.3   139  VAL139      0.1561
     46  C        -12.6350   33.2020   -0.1670 C.2   139  VAL139      0.2260
     47  O        -12.8690   33.3700    1.0380 O.2   139  VAL139     -0.2867
     48  CB       -11.7350   35.0010   -1.6430 C.3   139  VAL139      0.0252
     49  CG1      -12.4200   36.0860   -0.7960 C.3   139  VAL139      0.0019
     50  CG2      -10.5080   35.5990   -2.3370 C.3   139  VAL139      0.0019
     51  N        -11.5840   30.7750    2.4950 N.3   142  HIS142     -0.1226
     52  CA       -11.0120   31.5540    3.6030 C.3   142  HIS142      0.1752
     53  C        -12.1750   31.9980    4.4560 C.2   142  HIS142      0.2595
     54  O        -12.1530   31.9250    5.7060 O.2   142  HIS142     -0.2718
     55  CB       -10.2060   32.7570    3.0230 C.3   142  HIS142      0.0759
     56  CG        -9.7060   33.7090    4.0650 C.ar  142  HIS142      0.0818
     57  ND1       -8.3480   33.7790    4.3890 N.ar  142  HIS142     -0.2268
     58  CD2      -10.2860   34.6110    4.8960 C.ar  142  HIS142      0.1154
     59  CE1       -8.1740   34.6950    5.3390 C.ar  142  HIS142      0.1986
     60  NE2       -9.3330   35.2140    5.6880 N.ar  142  HIS142     -0.2212
     61  N        -13.2410   32.5800    3.8250 N.am  143  GLU143     -0.1979
     62  CA       -14.3390   33.1190    4.6430 C.3   143  GLU143      0.1602
     63  C        -15.1290   32.0150    5.3510 C.2   143  GLU143      0.2287
     64  O        -15.4690   32.1470    6.5490 O.2   143  GLU143     -0.2864
     65  CB       -15.2370   33.9860    3.7330 C.3   143  GLU143      0.0415
     66  CG       -14.5520   35.2210    3.1820 C.3   143  GLU143      0.1163
     67  CD       -13.8080   36.1140    4.1510 C.2   143  GLU143      0.3649
     68  OE1      -14.0770   36.0320    5.3470 O.co2 143  GLU143     -0.2457
     69  OE2      -12.9580   36.9220    3.6450 O.co2 143  GLU143     -0.2457
     70  N        -13.5000   30.8720    8.4470 N.3   146  HIS146     -0.1241
     71  CA       -13.7060   31.6460    9.6720 C.3   146  HIS146      0.1621
     72  C        -14.9010   31.0830   10.4430 C.2   146  HIS146      0.2264
     73  O        -14.8210   31.0520   11.6950 O.2   146  HIS146     -0.2867
     74  CB       -13.9280   33.1220    9.3730 C.3   146  HIS146      0.0745
     75  CG       -12.6600   33.9140    9.0980 C.ar  146  HIS146      0.0817
     76  ND1      -11.6000   33.9190    9.9920 N.ar  146  HIS146     -0.2268
     77  CD2      -12.3100   34.7370    8.0870 C.ar  146  HIS146      0.1154
     78  CE1      -10.6450   34.7030    9.5180 C.ar  146  HIS146      0.1986
     79  NE2      -11.0310   35.2430    8.3530 N.ar  146  HIS146     -0.2212
     80  N         -9.9450   37.2100   17.7630 N.3   157  TYR157     -0.1241
     81  CA        -9.3990   37.8600   16.5740 C.3   157  TYR157      0.1605
     82  C         -8.5370   39.0680   16.9190 C.2   157  TYR157      0.2264
     83  O         -8.8160   40.2030   16.4970 O.2   157  TYR157     -0.2867
     84  CB       -10.5740   38.2790   15.6840 C.3   157  TYR157      0.0534
     85  CG       -10.2390   38.4310   14.1890 C.ar  157  TYR157     -0.0201
     86  CD1       -9.8340   37.3120   13.4510 C.ar  157  TYR157     -0.0009
     87  CD2      -10.3230   39.6480   13.5260 C.ar  157  TYR157     -0.0009
     88  CE1       -9.5290   37.4140   12.1040 C.ar  157  TYR157      0.0417
     89  CE2      -10.0080   39.7610   12.1760 C.ar  157  TYR157      0.0417
     90  CZ        -9.6010   38.6390   11.4800 C.ar  157  TYR157      0.1957
     91  OH        -9.3230   38.7350   10.1390 O.3   157  TYR157     -0.2866
     92  N         -6.4490   33.8730   11.2740 N.3   166  GLU166     -0.1245
     93  CA        -6.1850   34.2300    9.8880 C.3   166  GLU166      0.1567
     94  C         -5.4570   33.1550    9.0710 C.2   166  GLU166      0.2260
     95  O         -5.8280   32.8120    7.9210 O.2   166  GLU166     -0.2867
     96  CB        -5.3780   35.5330    9.8300 C.3   166  GLU166      0.0388
     97  CG        -6.2770   36.7960    9.7290 C.3   166  GLU166      0.1160
     98  CD        -7.2160   36.6500    8.5490 C.2   166  GLU166      0.3649
     99  OE1       -6.7470   36.5340    7.3860 O.co2 166  GLU166     -0.2457
    100  OE2       -8.4600   36.6280    8.7320 O.co2 166  GLU166     -0.2457
    101  N         -2.7300   34.0650   -2.0270 N.3   188  ILE188     -0.1231
    102  CA        -4.1160   34.3210   -1.5840 C.3   188  ILE188      0.1692
    103  C         -4.7450   35.4620   -2.3640 C.2   188  ILE188      0.2592
    104  O         -4.2370   36.5930   -2.3310 O.2   188  ILE188     -0.2718
    105  CB        -4.1270   34.6470   -0.0630 C.3   188  ILE188      0.0266
    106  CG1       -3.5000   33.5690    0.7990 C.3   188  ILE188      0.0019
    107  CG2       -5.5560   34.9740    0.3410 C.3   188  ILE188      0.0020
    108  CD1       -4.1800   32.2280    0.7450 C.3   188  ILE188      0.0001
    109  N         -5.8590   35.1580   -3.0650 N.am  189  GLY189     -0.1957
    110  CA        -6.6510   36.1800   -3.7560 C.3   189  GLY189      0.1869
    111  C         -6.2360   36.4880   -5.1680 C.2   189  GLY189      0.2309
    112  O         -6.7710   37.4310   -5.7710 O.2   189  GLY189     -0.2863
    113  N         -2.8260   39.1510   -2.8290 N.3   202  LEU202     -0.1231
    114  CA        -2.8970   39.9290   -1.5930 C.3   202  LEU202      0.1693
    115  C         -1.8880   39.4910   -0.5550 C.2   202  LEU202      0.2591
    116  O         -1.2710   40.3040    0.1520 O.2   202  LEU202     -0.2718
    117  CB        -4.3440   39.8290   -1.0690 C.3   202  LEU202      0.0284
    118  CG        -4.6430   40.7210    0.1280 C.3   202  LEU202      0.0019
    119  CD1       -4.5180   42.1980   -0.2330 C.3   202  LEU202      0.0001
    120  CD2       -6.0470   40.3880    0.6030 C.3   202  LEU202      0.0001
    121  N         -1.7030   38.1710   -0.4240 N.am  203  ARG203     -0.1980
    122  CA        -0.7030   37.6100    0.4800 C.3   203  ARG203      0.1597
    123  C         -0.0690   36.4180   -0.2100 C.2   203  ARG203      0.2287
    124  O         -0.6710   35.8500   -1.1240 O.2   203  ARG203     -0.2864
    125  CB        -1.3530   37.1020    1.7710 C.3   203  ARG203      0.0334
    126  CG        -1.9370   38.1990    2.6410 C.3   203  ARG203      0.0492
    127  CD        -2.4850   37.5700    3.8970 C.3   203  ARG203      0.2205
    128  NE        -3.7110   36.8410    3.7730 N.pl3 203  ARG203     -0.0865
    129  CZ        -4.9260   37.3760    3.7840 C.cat 203  ARG203      0.5346
    130  NH1       -5.0840   38.7120    3.8130 N.pl3 203  ARG203      0.1354
    131  NH2       -6.0180   36.5940    3.7410 N.pl3 203  ARG203      0.1354
    132  N         -3.5660   40.0520    9.9140 N.3   231  HIS231     -0.1241
    133  CA        -3.3000   39.7130    8.5210 C.3   231  HIS231      0.1621
    134  C         -1.8400   39.8770    8.1550 C.2   231  HIS231      0.2264
    135  O         -1.4550   39.6780    6.9780 O.2   231  HIS231     -0.2867
    136  CB        -4.0730   40.6100    7.5270 C.3   231  HIS231      0.0745
    137  CG        -5.5560   40.4860    7.7210 C.ar  231  HIS231      0.0817
    138  ND1       -6.4190   39.5820    7.1420 N.ar  231  HIS231     -0.2268
    139  CD2       -6.3380   41.2330    8.5660 C.ar  231  HIS231      0.1154
    140  CE1       -7.6530   39.7980    7.6070 C.ar  231  HIS231      0.1986
    141  NE2       -7.6360   40.8110    8.4730 N.ar  231  HIS231     -0.2212
@<TRIPOS>BOND
     1    28    27    2
     2    27    26    1
     3    26    25    1
     4    26    29    1
     5   112   111    2
     6    29    30    1
     7    36    37    1
     8   111   110    1
     9    31    30   ar
    10    31    33   ar
    11    37    38    1
    12    37    40    1
    13    30    32   ar
    14    38    39    2
    15   110   109    1
    16    33    35   ar
    17    42    41    1
    18    32    34   ar
    19    40    41    1
    20    41    43    1
    21   109   103   am
    22   113   114    1
    23    35    34   ar
    24   103   104    2
    25   103   102    1
    26    50    48    1
    27   101   102    1
    28    48    49    1
    29    48    45    1
    30   114   117    1
    31   114   115    1
    32   102   105    1
    33    44    45    1
    34   124   123    2
    35   117   118    1
    36    45    46    1
    37   115   121   am
    38   115   116    2
    39     1     2    1
    40   121   122    1
    41   119   118    1
    42   123   122    1
    43    46    47    2
    44     4     3    2
    45   105   107    1
    46   105   106    1
    47   118   120    1
    48   122   125    1
    49     2     3    1
    50     2     5    1
    51     3     9   am
    52   108   106    1
    53    13    10    1
    54     9    10    1
    55    10    11    1
    56   125   126    1
    57     5     6    1
    58    51    52    1
    59     7     6    2
    60   126   127    1
    61     6     8   am
    62    55    52    1
    63    55    56    1
    64    66    65    1
    65    66    67    1
    66    11    12    2
    67    11    14   am
    68    52    53    1
    69    69    67   ar
    70    65    62    1
    71   131   129    1
    72   128   129    2
    73   128   127    1
    74   129   130    1
    75    61    53   am
    76    61    62    1
    77    14    15    1
    78    56    57   ar
    79    56    58   ar
    80    67    68   ar
    81    57    59   ar
    82    53    54    2
    83    62    63    1
    84    22    20   ar
    85    22    24   ar
    86    58    60   ar
    87    20    19   ar
    88    17    16    2
    89    15    16    1
    90    15    18    1
    91    59    60   ar
    92    63    64    2
    93    24    23   ar
    94    19    18    1
    95    19    21   ar
    96    23    21   ar
    97   135   134    2
    98   138   140   ar
    99   138   137   ar
   100    99    98   ar
   101   136   137    1
   102   136   133    1
   103   140   141   ar
   104   137   139   ar
   105    95    94    2
   106    77    79   ar
   107    77    75   ar
   108   134   133    1
   109    79    78   ar
   110    70    71    1
   111   141   139   ar
   112   133   132    1
   113    98   100   ar
   114    98    97    1
   115    94    93    1
   116    75    74    1
   117    75    76   ar
   118    74    71    1
   119    78    76   ar
   120    71    72    1
   121    97    96    1
   122    96    93    1
   123    93    92    1
   124    91    90    1
   125    72    73    2
   126    90    88   ar
   127    90    89   ar
   128    88    86   ar
   129    89    87   ar
   130    86    85   ar
   131    87    85   ar
   132    85    84    1
   133    84    81    1
   134    83    82    2
   135    81    82    1
   136    81    80    1
