@<TRIPOS>MOLECULE
tmp/3fgtB01.pdb
 100 96 0 0 0
SMALL
GASTEIGER

@<TRIPOS>ATOM
      1  N        -38.8940   16.0330   11.4310 N.3   220  ARG220     -0.1231
      2  CA       -39.0450   17.4590   11.5520 C.3   220  ARG220      0.1694
      3  C        -38.9970   18.1000   10.1960 C.2   220  ARG220      0.2592
      4  O        -39.7900   19.0070    9.9140 O.2   220  ARG220     -0.2718
      5  CB       -37.9270   18.0290   12.4290 C.3   220  ARG220      0.0321
      6  CG       -38.0870   19.4980   12.7650 C.3   220  ARG220      0.0489
      7  CD       -36.8230   20.1060   13.3620 C.3   220  ARG220      0.2205
      8  NE       -35.7260   20.1290   12.3970 N.pl3 220  ARG220     -0.0865
      9  CZ       -34.4450   20.2450   12.7360 C.cat 220  ARG220      0.5346
     10  NH1      -33.4990   20.2380   11.8090 N.pl3 220  ARG220      0.1354
     11  NH2      -34.1040   20.3770   14.0030 N.pl3 220  ARG220      0.1354
     12  N        -38.0710   17.6230    9.3530 N.am  221  ASP221     -0.1974
     13  CA       -37.7110   18.3400    8.1270 C.3   221  ASP221      0.1709
     14  C        -38.1000   17.7080    6.7880 C.2   221  ASP221      0.2293
     15  O        -38.0240   18.3800    5.7640 O.2   221  ASP221     -0.2864
     16  CB       -36.2140   18.6750    8.1090 C.3   221  ASP221      0.1436
     17  CG       -35.8140   19.6300    9.2180 C.2   221  ASP221      0.3671
     18  OD1      -36.6880   20.3470    9.7590 O.co2 221  ASP221     -0.2456
     19  OD2      -34.6190   19.6730    9.5540 O.co2 221  ASP221     -0.2456
     20  N        -40.1810   19.4440    4.0400 N.3   224  LEU224     -0.1245
     21  CA       -39.4950   20.5200    3.3380 C.3   224  LEU224      0.1561
     22  C        -38.8810   20.0300    2.0460 C.2   224  LEU224      0.2260
     23  O        -38.3960   20.8530    1.2450 O.2   224  LEU224     -0.2867
     24  CB       -38.3850   21.1160    4.2090 C.3   224  LEU224      0.0270
     25  CG       -38.7520   21.6750    5.5860 C.3   224  LEU224      0.0019
     26  CD1      -37.4800   22.2710    6.2560 C.3   224  LEU224      0.0001
     27  CD2      -39.9400   22.7010    5.4850 C.3   224  LEU224      0.0001
     28  N        -30.5380   18.9400   -0.3880 N.3   233  ARG233     -0.1245
     29  CA       -30.2850   19.7530    0.7720 C.3   233  ARG233      0.1563
     30  C        -30.4910   19.0280    2.0980 C.2   233  ARG233      0.2260
     31  O        -29.6420   19.1350    2.9890 O.2   233  ARG233     -0.2867
     32  CB       -31.1420   21.0140    0.6980 C.3   233  ARG233      0.0307
     33  CG       -30.5750   22.1740    1.4450 C.3   233  ARG233      0.0489
     34  CD       -31.4620   23.3890    1.2640 C.3   233  ARG233      0.2205
     35  NE       -31.4890   24.1950    2.4880 N.pl3 233  ARG233     -0.0865
     36  CZ       -32.1380   25.3520    2.6150 C.cat 233  ARG233      0.5346
     37  NH1      -32.8350   25.8570    1.6070 N.pl3 233  ARG233      0.1354
     38  NH2      -32.0940   26.0040    3.7570 N.pl3 233  ARG233      0.1354
     39  N        -27.7090   17.3260    4.8520 N.3   237  TYR237     -0.1241
     40  CA       -27.8790   18.1460    6.0070 C.3   237  TYR237      0.1605
     41  C        -26.9550   17.8530    7.1720 C.2   237  TYR237      0.2264
     42  O        -26.9690   16.8120    7.7500 O.2   237  TYR237     -0.2867
     43  CB       -29.3290   18.2730    6.4030 C.3   237  TYR237      0.0534
     44  CG       -29.5690   19.0980    7.6160 C.ar  237  TYR237     -0.0201
     45  CD1      -29.2820   20.4360    7.6280 C.ar  237  TYR237     -0.0009
     46  CD2      -30.0250   18.5340    8.7650 C.ar  237  TYR237     -0.0009
     47  CE1      -29.4630   21.1620    8.7090 C.ar  237  TYR237      0.0417
     48  CE2      -30.2030   19.2630    9.8480 C.ar  237  TYR237      0.0417
     49  CZ       -29.9280   20.5850    9.8120 C.ar  237  TYR237      0.1957
     50  OH       -30.1240   21.3420   10.8860 O.3   237  TYR237     -0.2866
     51  N        -25.8280   20.5960   10.3850 N.3   239  ASP239     -0.1239
     52  CA       -25.6280   21.8810   11.0450 C.3   239  ASP239      0.1674
     53  C        -25.5200   21.5860   12.5390 C.2   239  ASP239      0.2266
     54  O        -26.2440   22.1480   13.3650 O.2   239  ASP239     -0.2867
     55  CB       -26.7870   22.8330   10.7470 C.3   239  ASP239      0.1410
     56  CG       -26.5440   24.2510   11.2680 C.2   239  ASP239      0.3668
     57  OD1      -25.3750   24.6750   11.4620 O.co2 239  ASP239     -0.2456
     58  OD2      -27.5480   24.9510   11.4860 O.co2 239  ASP239     -0.2456
     59  N        -25.4780   24.0030   15.6510 N.3   242  HIS242     -0.1226
     60  CA       -26.6360   24.8610   15.9240 C.3   242  HIS242      0.1752
     61  C        -27.9670   24.1460   15.9980 C.2   242  HIS242      0.2596
     62  O        -28.9630   24.7460   16.4020 O.2   242  HIS242     -0.2718
     63  CB       -26.7330   25.9660   14.8760 C.3   242  HIS242      0.0759
     64  CG       -25.4250   26.6280   14.5940 C.ar  242  HIS242      0.0818
     65  ND1      -24.7980   26.5440   13.3650 N.ar  242  HIS242     -0.2268
     66  CD2      -24.6040   27.3550   15.3930 C.ar  242  HIS242      0.1154
     67  CE1      -23.6530   27.2040   13.4150 C.ar  242  HIS242      0.1986
     68  NE2      -23.5150   27.7100   14.6300 N.ar  242  HIS242     -0.2212
     69  N        -27.9940   22.8870   15.5770 N.am  243  ASP243     -0.1960
     70  CA       -29.2170   22.1140   15.5720 C.3   243  ASP243      0.1825
     71  C        -29.3720   21.3650   16.8960 C.2   243  ASP243      0.2464
     72  O        -28.5230   20.5570   17.2600 O.2   243  ASP243     -0.2730
     73  CB       -29.2400   21.1490   14.3780 C.3   243  ASP243      0.1450
     74  CG       -30.6220   20.5340   14.1360 C.2   243  ASP243      0.3671
     75  OD1      -31.3970   20.3400   15.0990 O.co2 243  ASP243     -0.2456
     76  OD2      -30.9410   20.2460   12.9680 O.co2 243  ASP243     -0.2456
     77  N        -30.4590   21.6370   17.6300 N.am  244  PRO244     -0.2727
     78  CA       -30.6740   20.9450   18.9200 C.3   244  PRO244      0.1402
     79  C        -30.7740   19.4310   18.7370 C.2   244  PRO244      0.2269
     80  O        -30.4760   18.6700   19.6490 O.2   244  PRO244     -0.2865
     81  CB       -32.0080   21.5100   19.4190 C.3   244  PRO244      0.0296
     82  CG       -32.1990   22.7910   18.6260 C.3   244  PRO244      0.0237
     83  CD       -31.5310   22.5990   17.3170 C.3   244  PRO244      0.0939
     84  N        -22.5650   22.2370    3.0810 N.3   311  ASP311     -0.1225
     85  CA       -23.6350   23.2200    3.0480 C.3   311  ASP311      0.1805
     86  C        -23.5690   24.1560    4.2200 C.2   311  ASP311      0.2597
     87  O        -23.8460   25.3450    4.0650 O.2   311  ASP311     -0.2718
     88  CB       -25.0190   22.5660    3.0250 C.3   311  ASP311      0.1424
     89  CG       -25.3550   21.9270    1.6840 C.2   311  ASP311      0.3668
     90  OD1      -26.5210   21.5150    1.5110 O.co2 311  ASP311     -0.2456
     91  OD2      -24.4560   21.8100    0.8160 O.co2 311  ASP311     -0.2456
     92  N        -23.2340   23.6230    5.3910 N.am  312  GLN312     -0.1979
     93  CA       -23.2330   24.3850    6.6420 C.3   312  GLN312      0.1601
     94  C        -22.1070   23.9160    7.5510 C.2   312  GLN312      0.2287
     95  O        -22.1110   24.1580    8.7540 O.2   312  GLN312     -0.2864
     96  CB       -24.5610   24.2110    7.3750 C.3   312  GLN312      0.0394
     97  CG       -25.7320   24.9740    6.7730 C.3   312  GLN312      0.0908
     98  CD       -27.0470   24.5280    7.3650 C.2   312  GLN312      0.2608
     99  OE1      -27.4580   23.3900    7.1840 O.2   312  GLN312     -0.2717
    100  NE2      -27.6990   25.4160    8.1140 N.am  312  GLN312     -0.0878
@<TRIPOS>BOND
     1    28    29    1
     2    32    29    1
     3    32    33    1
     4    29    30    1
     5    91    89   ar
     6    23    22    2
     7    34    33    1
     8    34    35    1
     9    90    89   ar
    10    37    36    1
    11    89    88    1
    12    22    21    1
    13    30    31    2
    14    35    36    2
    15    36    38    1
    16    88    85    1
    17    85    84    1
    18    85    86    1
    19    21    20    1
    20    21    24    1
    21    87    86    2
    22    24    25    1
    23    86    92   am
    24    39    40    1
    25    92    93    1
    26    27    25    1
    27    25    26    1
    28    15    14    2
    29    40    43    1
    30    40    41    1
    31    43    44    1
    32    93    96    1
    33    93    94    1
    34    97    98    1
    35    97    96    1
    36    14    13    1
    37    41    42    2
    38    99    98    2
    39    98   100   am
    40    94    95    2
    41    44    45   ar
    42    44    46   ar
    43    45    47   ar
    44    16    13    1
    45    16    17    1
    46    13    12    1
    47    47    49   ar
    48    46    48   ar
    49    17    19   ar
    50    17    18   ar
    51    12     3   am
    52    49    48   ar
    53    49    50    1
    54     4     3    2
    55     3     2    1
    56    51    52    1
    57    55    52    1
    58    55    56    1
    59    52    53    1
    60    56    57   ar
    61    56    58   ar
    62     1     2    1
    63     2     5    1
    64    10     9    1
    65     8     9    2
    66     8     7    1
    67     5     6    1
    68    53    54    2
    69     9    11    1
    70     6     7    1
    71    76    74   ar
    72    65    67   ar
    73    65    64   ar
    74    67    68   ar
    75    74    73    1
    76    74    75   ar
    77    73    70    1
    78    64    63    1
    79    64    66   ar
    80    68    66   ar
    81    63    60    1
    82    70    69    1
    83    70    71    1
    84    69    61   am
    85    59    60    1
    86    60    61    1
    87    61    62    2
    88    71    72    2
    89    71    77   am
    90    83    77    1
    91    83    82    1
    92    77    78    1
    93    82    81    1
    94    79    78    1
    95    79    80    2
    96    78    81    1
