@<TRIPOS>MOLECULE
tmp/3fgtB00.pdb
 89 87 0 0 0
SMALL
GASTEIGER

@<TRIPOS>ATOM
      1  N        -33.2350   -0.7970  -15.1030 N.3    72  GLY72      -0.1210
      2  CA       -34.1080   -0.6360  -16.2760 C.3    72  GLY72       0.1956
      3  C        -35.4600   -1.3410  -16.1390 C.2    72  GLY72       0.2613
      4  O        -36.3390   -1.1900  -16.9940 O.2    72  GLY72      -0.2717
      5  N        -35.6380   -2.1130  -15.0650 N.am   73  SER73      -0.1938
      6  CA       -36.9220   -2.7490  -14.7610 C.3    73  SER73       0.2055
      7  C        -37.8640   -1.7800  -14.0380 C.2    73  SER73       0.2643
      8  O        -38.9600   -2.1570  -13.6320 O.2    73  SER73      -0.2714
      9  CB       -36.6850   -3.9610  -13.8720 C.3    73  SER73       0.2130
     10  OG       -35.8570   -3.5610  -12.7960 O.3    73  SER73      -0.2179
     11  N        -37.4260   -0.5380  -13.8720 N.am   74  GLY74      -0.1954
     12  CA       -38.2210    0.4640  -13.2400 C.3    74  GLY74       0.1869
     13  C        -38.0870    0.4690  -11.7370 C.2    74  GLY74       0.2309
     14  O        -38.7610    1.2400  -11.0730 O.2    74  GLY74      -0.2863
     15  N        -38.5160   -7.9730  -11.3180 N.3   113  LEU113     -0.1245
     16  CA       -39.3100   -6.9990  -12.0760 C.3   113  LEU113      0.1561
     17  C        -40.1500   -6.1790  -11.1130 C.2   113  LEU113      0.2260
     18  O        -40.6940   -5.1510  -11.4770 O.2   113  LEU113     -0.2867
     19  CB       -40.2050   -7.6710  -13.1250 C.3   113  LEU113      0.0270
     20  CG       -40.9090   -6.7640  -14.1660 C.3   113  LEU113      0.0019
     21  CD1      -39.9680   -5.7800  -14.9630 C.3   113  LEU113      0.0001
     22  CD2      -41.7610   -7.6070  -15.1530 C.3   113  LEU113      0.0001
     23  N        -41.0210    2.0390   -9.5200 N.3   139  TYR139     -0.1227
     24  CA       -41.5960    3.1870  -10.1950 C.3   139  TYR139      0.1736
     25  C        -42.7010    2.8210  -11.1890 C.2   139  TYR139      0.2595
     26  O        -43.5480    3.6610  -11.4980 O.2   139  TYR139     -0.2718
     27  CB       -40.5240    4.0000  -10.8890 C.3   139  TYR139      0.0548
     28  CG       -39.8760    5.0430  -10.0180 C.ar  139  TYR139     -0.0200
     29  CD1      -38.5030    5.0280   -9.8010 C.ar  139  TYR139     -0.0009
     30  CD2      -40.6340    6.0660   -9.4210 C.ar  139  TYR139     -0.0009
     31  CE1      -37.8940    6.0020   -9.0010 C.ar  139  TYR139      0.0417
     32  CE2      -40.0360    7.0390   -8.6280 C.ar  139  TYR139      0.0417
     33  CZ       -38.6650    7.0130   -8.4300 C.ar  139  TYR139      0.1957
     34  OH       -38.0480    7.9670   -7.6410 O.3   139  TYR139     -0.2866
     35  N        -42.7080    1.5730  -11.6690 N.am  140  LYS140     -0.1980
     36  CA       -43.8350    1.0610  -12.4690 C.3   140  LYS140      0.1596
     37  C        -45.1780    1.1190  -11.7370 C.2   140  LYS140      0.2287
     38  O        -46.2160    1.2320  -12.3910 O.2   140  LYS140     -0.2864
     39  CB       -43.5890   -0.3550  -12.9730 C.3   140  LYS140      0.0298
     40  CG       -42.3970   -0.5080  -13.8910 C.3   140  LYS140      0.0038
     41  CD       -42.2670   -1.9400  -14.4100 C.3   140  LYS140      0.0206
     42  CE       -42.2860   -2.9900  -13.3020 C.3   140  LYS140      0.1093
     43  NZ       -41.1370   -2.8370  -12.3620 N.3   140  LYS140     -0.1314
     44  N        -45.8510    3.4740   -9.5800 N.3   142  PHE142     -0.1227
     45  CA       -46.0390    4.8600   -9.2060 C.3   142  PHE142      0.1736
     46  C        -46.8110    5.5890  -10.2790 C.2   142  PHE142      0.2595
     47  O        -46.3830    5.6420  -11.4120 O.2   142  PHE142     -0.2718
     48  CB       -44.7000    5.5890   -8.9020 C.3   142  PHE142      0.0547
     49  CG       -44.9050    7.0140   -8.5030 C.ar  142  PHE142     -0.0202
     50  CD1      -45.5560    7.3210   -7.3090 C.ar  142  PHE142     -0.0042
     51  CD2      -44.5430    8.0540   -9.3550 C.ar  142  PHE142     -0.0042
     52  CE1      -45.8170    8.6460   -6.9560 C.ar  142  PHE142     -0.0003
     53  CE2      -44.7970    9.3790   -8.9990 C.ar  142  PHE142     -0.0003
     54  CZ       -45.4420    9.6710   -7.7980 C.ar  142  PHE142     -0.0000
     55  N        -47.9530    6.1580   -9.9220 N.am  143  LEU143     -0.1966
     56  CA       -48.6830    7.0130  -10.8530 C.3   143  LEU143      0.1713
     57  C        -48.5710    8.4280  -10.3520 C.2   143  LEU143      0.2458
     58  O        -49.0970    8.7400   -9.2720 O.2   143  LEU143     -0.2730
     59  CB       -50.1530    6.5880  -11.0020 C.3   143  LEU143      0.0310
     60  CG       -51.0140    7.3690  -12.0260 C.3   143  LEU143      0.0022
     61  CD1      -50.5040    7.2450  -13.4660 C.3   143  LEU143      0.0001
     62  CD2      -52.5200    6.9740  -11.9370 C.3   143  LEU143      0.0001
     63  N        -47.8310    9.2830  -11.0980 N.am  144  PRO144     -0.2727
     64  CA       -47.7400   10.7080  -10.7590 C.3   144  PRO144      0.1402
     65  C        -49.1270   11.2820  -10.5270 C.2   144  PRO144      0.2269
     66  O        -50.0100   11.1010  -11.3760 O.2   144  PRO144     -0.2865
     67  CB       -47.1080   11.3210  -12.0030 C.3   144  PRO144      0.0296
     68  CG       -46.2320   10.2490  -12.5090 C.3   144  PRO144      0.0237
     69  CD       -47.0010    8.9580  -12.2750 C.3   144  PRO144      0.0939
     70  N        -39.2340    9.9630  -10.5620 N.3   294  PHE294     -0.1241
     71  CA       -39.9460    9.1210  -11.5090 C.3   294  PHE294      0.1605
     72  C        -39.4300    9.3060  -12.9400 C.2   294  PHE294      0.2264
     73  O        -39.1780    8.3290  -13.6500 O.2   294  PHE294     -0.2867
     74  CB       -41.4390    9.4030  -11.4040 C.3   294  PHE294      0.0534
     75  CG       -42.2700    8.6680  -12.4030 C.ar  294  PHE294     -0.0203
     76  CD1      -42.5840    7.3180  -12.2120 C.ar  294  PHE294     -0.0042
     77  CD2      -42.7740    9.3310  -13.5200 C.ar  294  PHE294     -0.0042
     78  CE1      -43.3720    6.6400  -13.1120 C.ar  294  PHE294     -0.0003
     79  CE2      -43.5660    8.6580  -14.4390 C.ar  294  PHE294     -0.0003
     80  CZ       -43.8640    7.3000  -14.2290 C.ar  294  PHE294     -0.0000
     81  N        -36.7430    6.8090  -14.9530 N.3   298  LYS298     -0.1245
     82  CA       -37.2520    6.3930  -16.2500 C.3   298  LYS298      0.1561
     83  C        -36.1700    6.5780  -17.2920 C.2   298  LYS298      0.2260
     84  O        -36.0270    5.7450  -18.1780 O.2   298  LYS298     -0.2867
     85  CB       -38.4940    7.2210  -16.5840 C.3   298  LYS298      0.0271
     86  CG       -39.1960    6.9360  -17.9250 C.3   298  LYS298      0.0035
     87  CD       -40.1980    8.0570  -18.2420 C.3   298  LYS298      0.0206
     88  CE       -41.4440    7.5430  -18.9970 C.3   298  LYS298      0.1093
     89  NZ       -42.5180    7.1430  -18.0120 N.3   298  LYS298     -0.1314
@<TRIPOS>BOND
     1    88    87    1
     2    88    89    1
     3    87    86    1
     4    84    83    2
     5    86    85    1
     6    83    82    1
     7     4     3    2
     8    85    82    1
     9     2     3    1
    10     2     1    1
    11    82    81    1
    12     3     5   am
    13    22    20    1
    14     5     6    1
    15    21    20    1
    16     6     7    1
    17     6     9    1
    18    79    80   ar
    19    79    77   ar
    20    41    40    1
    21    41    42    1
    22    80    78   ar
    23    20    19    1
    24     7    11   am
    25     7     8    2
    26    40    39    1
    27     9    10    1
    28    11    12    1
    29    73    72    2
    30    77    75   ar
    31    61    60    1
    32    42    43    1
    33    12    13    1
    34    19    16    1
    35    78    76   ar
    36    39    36    1
    37    72    71    1
    38    68    69    1
    39    68    67    1
    40    36    37    1
    41    36    35    1
    42    75    76   ar
    43    75    74    1
    44    38    37    2
    45    69    63    1
    46    16    15    1
    47    16    17    1
    48    60    62    1
    49    60    59    1
    50    67    64    1
    51    13    14    2
    52    35    25   am
    53    71    74    1
    54    71    70    1
    55    26    25    2
    56    18    17    2
    57    47    46    2
    58    66    65    2
    59    25    24    1
    60    63    64    1
    61    63    57   am
    62    59    56    1
    63    27    24    1
    64    27    28    1
    65    56    57    1
    66    56    55    1
    67    64    65    1
    68    57    58    2
    69    46    55   am
    70    46    45    1
    71    24    23    1
    72    28    29   ar
    73    28    30   ar
    74    29    31   ar
    75    44    45    1
    76    30    32   ar
    77    51    53   ar
    78    51    49   ar
    79    45    48    1
    80    31    33   ar
    81    53    54   ar
    82    48    49    1
    83    32    33   ar
    84    49    50   ar
    85    33    34    1
    86    54    52   ar
    87    50    52   ar
