@<TRIPOS>MOLECULE
tmp/3fgtA01.pdb
 104 101 0 0 0
SMALL
GASTEIGER

@<TRIPOS>ATOM
      1  N        -12.8650  -19.1610    1.3120 N.3   106  GLU106     -0.1245
      2  CA       -12.5900  -20.3190    0.4590 C.3   106  GLU106      0.1567
      3  C        -13.6710  -21.3900    0.4440 C.2   106  GLU106      0.2260
      4  O        -14.0290  -21.8870   -0.6280 O.2   106  GLU106     -0.2867
      5  CB       -11.2430  -20.9460    0.7990 C.3   106  GLU106      0.0388
      6  CG       -10.0850  -20.0260    0.4940 C.3   106  GLU106      0.1160
      7  CD        -8.7370  -20.6810    0.7280 C.2   106  GLU106      0.3649
      8  OE1       -7.7970  -20.3820   -0.0560 O.co2 106  GLU106     -0.2457
      9  OE2       -8.6220  -21.4810    1.6930 O.co2 106  GLU106     -0.2457
     10  N        -16.7480  -19.8940   -1.3640 N.3   109  LEU109     -0.1231
     11  CA       -16.5070  -19.8550   -2.7890 C.3   109  LEU109      0.1693
     12  C        -16.6040  -21.2470   -3.3940 C.2   109  LEU109      0.2591
     13  O        -17.1750  -21.4280   -4.4820 O.2   109  LEU109     -0.2718
     14  CB       -15.1380  -19.2030   -3.0640 C.3   109  LEU109      0.0284
     15  CG       -15.0270  -17.6990   -2.7290 C.3   109  LEU109      0.0019
     16  CD1      -13.5680  -17.2660   -2.5930 C.3   109  LEU109      0.0001
     17  CD2      -15.7320  -16.8370   -3.7660 C.3   109  LEU109      0.0001
     18  N        -16.0550  -22.2260   -2.6830 N.am  110  GLU110     -0.1979
     19  CA       -16.0930  -23.6080   -3.1110 C.3   110  GLU110      0.1602
     20  C        -17.5350  -24.1240   -3.0930 C.2   110  GLU110      0.2287
     21  O        -17.9460  -24.8500   -4.0140 O.2   110  GLU110     -0.2864
     22  CB       -15.1570  -24.4730   -2.2410 C.3   110  GLU110      0.0415
     23  CG       -15.2700  -25.9810   -2.4670 C.3   110  GLU110      0.1163
     24  CD       -15.1460  -26.3690   -3.9370 C.2   110  GLU110      0.3649
     25  OE1      -14.4240  -25.6730   -4.6860 O.co2 110  GLU110     -0.2457
     26  OE2      -15.7670  -27.3740   -4.3560 O.co2 110  GLU110     -0.2457
     27  N        -20.2970  -22.3760   -3.5540 N.3   112  MET112     -0.1230
     28  CA       -21.0020  -21.8160   -4.6980 C.3   112  MET112      0.1702
     29  C        -20.5820  -22.5130   -6.0010 C.2   112  MET112      0.2592
     30  O        -21.4210  -22.8320   -6.8410 O.2   112  MET112     -0.2718
     31  CB       -20.7530  -20.3070   -4.7880 C.3   112  MET112      0.0401
     32  CG       -21.3370  -19.5270   -3.6280 C.3   112  MET112      0.0596
     33  SD       -21.2310  -17.7690   -3.9530 S.3   112  MET112     -0.1393
     34  CE       -19.4400  -17.4690   -3.8130 C.3   112  MET112      0.0692
     35  N        -19.2800  -22.7530   -6.1520 N.am  113  GLN113     -0.1979
     36  CA       -18.7610  -23.4980   -7.3030 C.3   113  GLN113      0.1601
     37  C        -19.4250  -24.8610   -7.3510 C.2   113  GLN113      0.2287
     38  O        -19.9710  -25.2520   -8.3740 O.2   113  GLN113     -0.2864
     39  CB       -17.2290  -23.6370   -7.2470 C.3   113  GLN113      0.0394
     40  CG       -16.4880  -22.3510   -7.5540 C.3   113  GLN113      0.0908
     41  CD       -16.7650  -21.7950   -8.9550 C.2   113  GLN113      0.2608
     42  OE1      -16.6440  -22.5100   -9.9350 O.2   113  GLN113     -0.2717
     43  NE2      -17.1190  -20.5100   -9.0440 N.am  113  GLN113     -0.0878
     44  N        -19.8660  -13.9680  -10.3830 N.3   132  LEU132     -0.1245
     45  CA       -18.5090  -14.3940  -10.0940 C.3   132  LEU132      0.1561
     46  C        -17.5830  -14.3820  -11.3060 C.2   132  LEU132      0.2260
     47  O        -16.3930  -14.1670  -11.1600 O.2   132  LEU132     -0.2867
     48  CB       -18.5070  -15.7500   -9.4010 C.3   132  LEU132      0.0270
     49  CG       -19.0840  -15.7020   -7.9840 C.3   132  LEU132      0.0019
     50  CD1      -19.3820  -17.1270   -7.5140 C.3   132  LEU132      0.0001
     51  CD2      -18.1350  -14.9600   -7.0240 C.3   132  LEU132      0.0001
     52  N        -15.7650  -24.6800  -13.6820 N.3   152  ARG152     -0.1231
     53  CA       -15.5050  -24.0970  -12.3780 C.3   152  ARG152      0.1694
     54  C        -14.1920  -23.3040  -12.3620 C.2   152  ARG152      0.2592
     55  O        -13.2610  -23.5910  -13.1190 O.2   152  ARG152     -0.2718
     56  CB       -15.5720  -25.1450  -11.2380 C.3   152  ARG152      0.0321
     57  CG       -14.4080  -26.1490  -11.1440 C.3   152  ARG152      0.0489
     58  CD       -14.1160  -26.5150   -9.6680 C.3   152  ARG152      0.2205
     59  NE       -15.2350  -27.1640   -8.9690 N.pl3 152  ARG152     -0.0865
     60  CZ       -15.4290  -27.0940   -7.6500 C.cat 152  ARG152      0.5346
     61  NH1      -14.5860  -26.3950   -6.9110 N.pl3 152  ARG152      0.1354
     62  NH2      -16.4640  -27.7030   -7.0640 N.pl3 152  ARG152      0.1354
     63  N        -14.1550  -22.2880  -11.5130 N.am  153  PHE153     -0.1962
     64  CA       -13.0170  -21.4030  -11.4280 C.3   153  PHE153      0.1771
     65  C        -12.8230  -21.0310   -9.9820 C.2   153  PHE153      0.2620
     66  O        -13.7200  -21.1950   -9.1670 O.2   153  PHE153     -0.2715
     67  CB       -13.2110  -20.1550  -12.2990 C.3   153  PHE153      0.0574
     68  CG       -14.5300  -19.4560  -12.0850 C.ar  153  PHE153     -0.0200
     69  CD1      -14.6230  -18.3640  -11.2250 C.ar  153  PHE153     -0.0042
     70  CD2      -15.6850  -19.8920  -12.7400 C.ar  153  PHE153     -0.0042
     71  CE1      -15.8320  -17.7110  -11.0280 C.ar  153  PHE153     -0.0003
     72  CE2      -16.9040  -19.2550  -12.5310 C.ar  153  PHE153     -0.0003
     73  CZ       -16.9730  -18.1590  -11.6800 C.ar  153  PHE153     -0.0000
     74  N        -11.6320  -20.5510   -9.6680 N.am  154  THR154     -0.1937
     75  CA       -11.2700  -20.2090   -8.3160 C.3   154  THR154      0.2028
     76  C        -11.1880  -18.7070   -8.2290 C.2   154  THR154      0.2642
     77  O        -10.5350  -18.0820   -9.0540 O.2   154  THR154     -0.2714
     78  CB        -9.9090  -20.8650   -7.9330 C.3   154  THR154      0.1808
     79  OG1      -10.0900  -22.2840   -7.8450 O.3   154  THR154     -0.2208
     80  CG2       -9.4040  -20.3510   -6.6080 C.3   154  THR154      0.0379
     81  N        -11.8760  -18.1450   -7.2460 N.am  155  ILE155     -0.1963
     82  CA       -11.7630  -16.7470   -6.9080 C.3   155  ILE155      0.1727
     83  C        -10.8130  -16.6870   -5.7290 C.2   155  ILE155      0.2616
     84  O        -10.9850  -17.4230   -4.7650 O.2   155  ILE155     -0.2715
     85  CB       -13.1620  -16.1300   -6.5220 C.3   155  ILE155      0.0290
     86  CG1      -14.1290  -16.1370   -7.7200 C.3   155  ILE155      0.0022
     87  CG2      -13.0280  -14.7070   -5.9140 C.3   155  ILE155      0.0023
     88  CD1      -13.7900  -15.1540   -8.7950 C.3   155  ILE155      0.0001
     89  N         -9.8030  -15.8250   -5.8170 N.am  156  LYS156     -0.1964
     90  CA        -8.9270  -15.5330   -4.6830 C.3   156  LYS156      0.1713
     91  C         -9.7460  -14.9190   -3.5630 C.2   156  LYS156      0.2458
     92  O        -10.4120  -13.9130   -3.7780 O.2   156  LYS156     -0.2730
     93  CB        -7.8380  -14.5320   -5.0800 C.3   156  LYS156      0.0311
     94  CG        -6.9110  -15.0100   -6.1690 C.3   156  LYS156      0.0038
     95  CD        -5.9100  -13.9080   -6.5650 C.3   156  LYS156      0.0206
     96  CE        -5.3340  -14.2050   -7.9580 C.3   156  LYS156      0.1093
     97  NZ        -4.4970  -13.0800   -8.4730 N.3   156  LYS156     -0.1314
     98  N         -9.6650  -15.4850   -2.3510 N.am  157  PRO157     -0.2727
     99  CA       -10.4950  -14.9620   -1.2630 C.3   157  PRO157      0.1402
    100  C        -10.1530  -13.5060   -0.9400 C.2   157  PRO157      0.2269
    101  O        -11.0360  -12.7240   -0.5990 O.2   157  PRO157     -0.2865
    102  CB       -10.1370  -15.8580   -0.0780 C.3   157  PRO157      0.0296
    103  CG        -9.4400  -17.0180   -0.6520 C.3   157  PRO157      0.0237
    104  CD        -8.7950  -16.5860   -1.9060 C.3   157  PRO157      0.0939
@<TRIPOS>BOND
     1    52    53    1
     2    55    54    2
     3    70    72   ar
     4    70    68   ar
     5    72    73   ar
     6    53    54    1
     7    53    56    1
     8    54    63   am
     9    67    68    1
    10    67    64    1
    11    68    69   ar
    12    73    71   ar
    13    63    64    1
    14    64    65    1
    15    46    47    2
    16    46    45    1
    17    56    57    1
    18    69    71   ar
    19    57    58    1
    20    44    45    1
    21    45    48    1
    22    65    74   am
    23    65    66    2
    24    42    41    2
    25    74    75    1
    26    58    59    1
    27    48    49    1
    28    77    76    2
    29    43    41   am
    30    59    60    2
    31    41    40    1
    32    88    86    1
    33    97    96    1
    34    38    37    2
    35    75    76    1
    36    75    78    1
    37    76    81   am
    38    49    50    1
    39    49    51    1
    40    96    95    1
    41    78    79    1
    42    78    80    1
    43    86    85    1
    44    60    62    1
    45    60    61    1
    46    40    39    1
    47    37    36    1
    48    36    39    1
    49    36    35    1
    50    81    82    1
    51    82    85    1
    52    82    83    1
    53    30    29    2
    54    95    94    1
    55    85    87    1
    56    94    93    1
    57    35    29   am
    58    29    28    1
    59    89    83   am
    60    89    90    1
    61    83    84    2
    62    93    90    1
    63    31    28    1
    64    31    32    1
    65    28    27    1
    66    25    24   ar
    67    90    91    1
    68    13    12    2
    69    26    24   ar
    70    21    20    2
    71    33    34    1
    72    33    32    1
    73    24    23    1
    74    92    91    2
    75    17    15    1
    76    91    98   am
    77    12    11    1
    78    12    18   am
    79    19    20    1
    80    19    18    1
    81    19    22    1
    82    14    11    1
    83    14    15    1
    84    11    10    1
    85    15    16    1
    86    23    22    1
    87    98   104    1
    88    98    99    1
    89   104   103    1
    90    99   100    1
    91    99   102    1
    92   100   101    2
    93   103   102    1
    94     4     3    2
    95     8     7   ar
    96     3     2    1
    97     2     5    1
    98     2     1    1
    99     6     7    1
   100     6     5    1
   101     7     9   ar
