@<TRIPOS>MOLECULE
tmp/3fguA01.pdb
 178 166 0 0 0
SMALL
GASTEIGER

@<TRIPOS>ATOM
      1  N        -13.9970   -8.2080    6.4160 N.3    72  ASP72      -0.1239
      2  CA       -15.2780   -7.5710    6.6940 C.3    72  ASP72       0.1674
      3  C        -16.4500   -8.4310    6.2350 C.2    72  ASP72       0.2266
      4  O        -16.6140   -8.6650    5.0420 O.2    72  ASP72      -0.2867
      5  CB       -15.3370   -6.1970    6.0240 C.3    72  ASP72       0.1410
      6  CG       -16.6350   -5.4630    6.3210 C.2    72  ASP72       0.3668
      7  OD1      -17.7230   -5.9700    5.9710 O.co2  72  ASP72      -0.2456
      8  OD2      -16.5750   -4.3790    6.9050 O.co2  72  ASP72      -0.2456
      9  N        -20.7000   -8.7890    6.7650 N.3    74  GLY74      -0.1210
     10  CA       -21.9400   -8.2330    7.2790 C.3    74  GLY74       0.1956
     11  C        -23.0130   -8.0220    6.2320 C.2    74  GLY74       0.2612
     12  O        -24.2130   -8.1800    6.5250 O.2    74  GLY74      -0.2717
     13  N        -22.5970   -7.6260    5.0270 N.am   75  GLY75      -0.1942
     14  CA       -23.5210   -7.4450    3.9000 C.3    75  GLY75       0.2014
     15  C        -23.5440   -8.6360    2.9540 C.2    75  GLY75       0.2639
     16  O        -23.1960   -9.7620    3.3280 O.2    75  GLY75      -0.2714
     17  N        -23.9610   -8.3850    1.7130 N.am   76  THR76      -0.1950
     18  CA       -23.9680   -9.4260    0.6900 C.3    76  THR76       0.1897
     19  C        -22.5470   -9.7600    0.2410 C.2    76  THR76       0.2313
     20  O        -22.3080  -10.8490   -0.3000 O.2    76  THR76      -0.2863
     21  CB       -24.8510   -9.0360   -0.5420 C.3    76  THR76       0.1794
     22  OG1      -24.6090   -7.6690   -0.9180 O.3    76  THR76      -0.2208
     23  CG2      -26.3450   -9.2360   -0.2250 C.3    76  THR76       0.0378
     24  N        -15.3210   -8.6090    2.2520 N.3    79  ARG79      -0.1245
     25  CA       -14.2160   -7.7690    1.7930 C.3    79  ARG79       0.1563
     26  C        -12.9310   -8.0900    2.5640 C.2    79  ARG79       0.2260
     27  O        -12.9330   -8.2320    3.7890 O.2    79  ARG79      -0.2867
     28  CB       -14.5900   -6.2840    1.9090 C.3    79  ARG79       0.0307
     29  CG       -15.9110   -5.9090    1.2140 C.3    79  ARG79       0.0489
     30  CD       -16.2910   -4.4410    1.3970 C.3    79  ARG79       0.2205
     31  NE       -17.0460   -3.9120    0.2510 N.pl3  79  ARG79      -0.0865
     32  CZ       -18.3700   -3.6890    0.2060 C.cat  79  ARG79       0.5346
     33  NH1      -19.1660   -3.9150    1.2560 N.pl3  79  ARG79       0.1354
     34  NH2      -18.9130   -3.2130   -0.9140 N.pl3  79  ARG79       0.1354
     35  N        -20.0870   -8.0120   11.5610 N.3   140  SER140     -0.1217
     36  CA       -21.1780   -7.0860   11.9000 C.3   140  SER140      0.1889
     37  C        -22.4510   -7.7750   12.3670 C.2   140  SER140      0.2288
     38  O        -23.4770   -7.6990   11.7210 O.2   140  SER140     -0.2866
     39  CB       -21.4790   -6.2160   10.6980 C.3   140  SER140      0.2089
     40  OG       -20.2830   -5.6500   10.2390 O.3   140  SER140     -0.2183
     41  N        -29.8780   -9.7720    9.4620 N.3   158  LYS158     -0.1245
     42  CA       -29.7520   -9.3780    8.0540 C.3   158  LYS158      0.1561
     43  C        -29.7760  -10.5410    7.0600 C.2   158  LYS158      0.2260
     44  O        -29.0490  -10.5170    6.0760 O.2   158  LYS158     -0.2867
     45  CB       -28.4830   -8.5440    7.8250 C.3   158  LYS158      0.0271
     46  CG       -28.4980   -7.1240    8.4030 C.3   158  LYS158      0.0035
     47  CD       -27.0610   -6.5480    8.3590 C.3   158  LYS158      0.0206
     48  CE       -26.1490   -7.2640    9.3430 C.3   158  LYS158      0.1093
     49  NZ       -24.8150   -6.6060    9.5160 N.3   158  LYS158     -0.1314
     50  N        -18.9220   -3.4420   12.9050 N.3   194  ASP194     -0.1239
     51  CA       -18.7060   -2.3810   11.9080 C.3   194  ASP194      0.1674
     52  C        -18.8700   -0.9580   12.4580 C.2   194  ASP194      0.2266
     53  O        -18.1960   -0.0400   11.9940 O.2   194  ASP194     -0.2867
     54  CB       -19.5730   -2.5840   10.6490 C.3   194  ASP194      0.1410
     55  CG       -21.0320   -2.8060   10.9470 C.2   194  ASP194      0.3668
     56  OD1      -21.8070   -2.8760    9.9790 O.co2 194  ASP194     -0.2456
     57  OD2      -21.4210   -2.9210   12.1280 O.co2 194  ASP194     -0.2456
     58  N        -23.9300    2.9420   11.7000 N.3   214  ILE214     -0.1245
     59  CA       -24.0850    2.3070   10.3920 C.3   214  ILE214      0.1561
     60  C        -25.5400    2.4310    9.9800 C.2   214  ILE214      0.2260
     61  O        -26.4280    2.1120   10.7470 O.2   214  ILE214     -0.2867
     62  CB       -23.6660    0.7950   10.4120 C.3   214  ILE214      0.0252
     63  CG1      -22.1940    0.6340   10.8150 C.3   214  ILE214      0.0019
     64  CG2      -23.8900    0.1450    9.0500 C.3   214  ILE214      0.0019
     65  CD1      -21.1760    1.0790    9.7750 C.3   214  ILE214      0.0001
     66  N        -26.8260    1.0660    6.6850 N.3   216  GLY216     -0.1210
     67  CA       -26.5750    0.3460    5.4480 C.3   216  GLY216      0.1956
     68  C        -27.6940   -0.6570    5.2420 C.2   216  GLY216      0.2613
     69  O        -28.8730   -0.3050    5.3030 O.2   216  GLY216     -0.2717
     70  N        -27.3120   -1.9020    4.9790 N.am  217  THR217     -0.1938
     71  CA       -28.2300   -3.0550    5.0090 C.3   217  THR217      0.2028
     72  C        -28.9380   -3.1300    6.3610 C.2   217  THR217      0.2642
     73  O        -30.1600   -3.3200    6.4350 O.2   217  THR217     -0.2714
     74  CB       -27.4580   -4.3820    4.8020 C.3   217  THR217      0.1808
     75  OG1      -26.6180   -4.2740    3.6540 O.3   217  THR217     -0.2208
     76  CG2      -28.4300   -5.5790    4.6320 C.3   217  THR217      0.0379
     77  N        -28.1380   -2.9690    7.4140 N.am  218  GLY218     -0.1954
     78  CA       -28.5880   -2.9200    8.7860 C.3   218  GLY218      0.1869
     79  C        -28.4300   -1.5410    9.3660 C.2   218  GLY218      0.2309
     80  O        -28.0650   -0.6000    8.6820 O.2   218  GLY218     -0.2863
     81  N        -31.4500   -0.6870    4.7390 N.3   284  GLY284     -0.1210
     82  CA       -31.5990   -0.8550    3.2990 C.3   284  GLY284      0.1956
     83  C        -32.0290   -2.2600    2.8620 C.2   284  GLY284      0.2611
     84  O        -32.6180   -2.4260    1.7910 O.2   284  GLY284     -0.2717
     85  N        -31.7810   -3.2750    3.6870 N.am  285  LYS285     -0.1979
     86  CA       -32.3080   -4.6040    3.3800 C.3   285  LYS285      0.1596
     87  C        -33.8370   -4.6090    3.2590 C.2   285  LYS285      0.2287
     88  O        -34.4080   -5.4300    2.5270 O.2   285  LYS285     -0.2864
     89  CB       -31.8750   -5.6390    4.4290 C.3   285  LYS285      0.0298
     90  CG       -32.0890   -7.0860    3.9250 C.3   285  LYS285      0.0038
     91  CD       -31.5630   -8.1080    4.8310 C.3   285  LYS285      0.0206
     92  CE       -31.9760   -9.4940    4.3150 C.3   285  LYS285      0.1093
     93  NZ       -31.5380   -9.7490    2.8900 N.3   285  LYS285     -0.1314
     94  N        -35.6740   -2.3060   -5.3810 N.3   320  GLU320     -0.1231
     95  CA       -34.4130   -2.2720   -4.6690 C.3   320  GLU320      0.1699
     96  C        -34.3040   -0.9470   -3.8970 C.2   320  GLU320      0.2593
     97  O        -34.8690    0.0690   -4.3060 O.2   320  GLU320     -0.2718
     98  CB       -33.2440   -2.4040   -5.6570 C.3   320  GLU320      0.0402
     99  CG       -33.0500   -3.8040   -6.2240 C.3   320  GLU320      0.1161
    100  CD       -32.1660   -3.8250   -7.4530 C.2   320  GLU320      0.3649
    101  OE1      -31.0530   -3.2460   -7.4320 O.co2 320  GLU320     -0.2457
    102  OE2      -32.5850   -4.4330   -8.4500 O.co2 320  GLU320     -0.2457
    103  N        -33.5670   -0.9660   -2.7910 N.am  321  THR321     -0.1939
    104  CA       -33.4170    0.2260   -1.9690 C.3   321  THR321      0.2028
    105  C        -32.7180    1.3310   -2.7600 C.2   321  THR321      0.2642
    106  O        -33.0780    2.4840   -2.6230 O.2   321  THR321     -0.2714
    107  CB       -32.7250   -0.0780   -0.6310 C.3   321  THR321      0.1808
    108  OG1      -33.5830   -0.9130    0.1660 O.3   321  THR321     -0.2208
    109  CG2      -32.3690    1.2320    0.1500 C.3   321  THR321      0.0379
    110  N        -31.7530    0.9970   -3.6130 N.am  322  ARG322     -0.1977
    111  CA       -31.1570    2.0250   -4.4450 C.3   322  ARG322      0.1597
    112  C        -32.1760    2.7500   -5.3390 C.2   322  ARG322      0.2287
    113  O        -31.9830    3.9240   -5.6630 O.2   322  ARG322     -0.2864
    114  CB       -29.9540    1.5050   -5.2420 C.3   322  ARG322      0.0334
    115  CG       -30.2300    0.5180   -6.3540 C.3   322  ARG322      0.0492
    116  CD       -28.8910   -0.0480   -6.8320 C.3   322  ARG322      0.2205
    117  NE       -29.0540   -1.2500   -7.6400 N.pl3 322  ARG322     -0.0865
    118  CZ       -29.3130   -1.2540   -8.9450 C.cat 322  ARG322      0.5346
    119  NH1      -29.4460   -0.1070   -9.6200 N.pl3 322  ARG322      0.1354
    120  NH2      -29.4470   -2.4170   -9.5820 N.pl3 322  ARG322      0.1354
    121  N        -33.4680    5.8290   -3.4380 N.3   325  SER325     -0.1202
    122  CA       -32.5420    6.9460   -3.6460 C.3   325  SER325      0.2020
    123  C        -32.6780    7.5760   -5.0290 C.2   325  SER325      0.2618
    124  O        -32.7340    8.7950   -5.1550 O.2   325  SER325     -0.2717
    125  CB       -31.0990    6.4810   -3.4560 C.3   325  SER325      0.2103
    126  OG       -30.9530    5.9010   -2.1890 O.3   325  SER325     -0.2182
    127  N        -32.7210    6.7360   -6.0610 N.am  326  GLN326     -0.1979
    128  CA       -32.8080    7.2140   -7.4440 C.3   326  GLN326      0.1601
    129  C        -34.0840    8.0030   -7.7340 C.2   326  GLN326      0.2287
    130  O        -34.0400    9.0880   -8.3200 O.2   326  GLN326     -0.2864
    131  CB       -32.6440    6.0580   -8.4160 C.3   326  GLN326      0.0394
    132  CG       -31.1640    5.7260   -8.6340 C.3   326  GLN326      0.0908
    133  CD       -30.9210    4.2930   -9.0550 C.2   326  GLN326      0.2608
    134  OE1      -30.0900    3.5960   -8.4660 O.2   326  GLN326     -0.2717
    135  NE2      -31.6290    3.8480  -10.0790 N.am  326  GLN326     -0.0878
    136  N        -21.2190    5.3110    8.4840 N.3   398  ASP398     -0.1225
    137  CA       -21.0610    4.5680    7.2400 C.3   398  ASP398      0.1805
    138  C        -22.3760    3.8990    6.8740 C.2   398  ASP398      0.2598
    139  O        -23.3140    3.9070    7.6730 O.2   398  ASP398     -0.2718
    140  CB       -19.9420    3.5250    7.3590 C.3   398  ASP398      0.1424
    141  CG       -19.3650    3.1330    6.0120 C.2   398  ASP398      0.3668
    142  OD1      -19.7290    3.7410    4.9920 O.co2 398  ASP398     -0.2456
    143  OD2      -18.5360    2.2230    5.9690 O.co2 398  ASP398     -0.2456
    144  N        -22.4480    3.3920    5.6450 N.am  399  GLY399     -0.1942
    145  CA       -23.6290    2.7200    5.1140 C.3   399  GLY399      0.2014
    146  C        -24.2140    3.4050    3.8780 C.2   399  GLY399      0.2640
    147  O        -24.2650    4.6260    3.7820 O.2   399  GLY399     -0.2714
    148  N        -24.7130    2.6100    2.9480 N.am  400  SER400     -0.1935
    149  CA       -25.1830    3.1160    1.6630 C.3   400  SER400      0.2055
    150  C        -26.4320    4.0040    1.7610 C.2   400  SER400      0.2642
    151  O        -26.6300    4.9060    0.9380 O.2   400  SER400     -0.2714
    152  CB       -25.4350    1.9380    0.7280 C.3   400  SER400      0.2130
    153  OG       -26.4870    1.1290    1.2510 O.3   400  SER400     -0.2179
    154  N        -27.2630    3.7730    2.7720 N.am  401  VAL401     -0.1977
    155  CA       -28.4720    4.5490    2.9360 C.3   401  VAL401      0.1596
    156  C        -28.1250    5.9900    3.3700 C.2   401  VAL401      0.2287
    157  O        -28.5060    6.9390    2.7070 O.2   401  VAL401     -0.2864
    158  CB       -29.4340    3.8930    3.9500 C.3   401  VAL401      0.0276
    159  CG1      -30.5870    4.8250    4.2450 C.3   401  VAL401      0.0022
    160  CG2      -29.9090    2.5280    3.4360 C.3   401  VAL401      0.0022
    161  N        -25.6680    7.4250    0.3280 N.3   404  LEU404     -0.1231
    162  CA       -26.0700    7.5520   -1.0790 C.3   404  LEU404      0.1693
    163  C        -27.4820    8.0850   -1.3160 C.2   404  LEU404      0.2592
    164  O        -27.7750    8.5620   -2.4020 O.2   404  LEU404     -0.2718
    165  CB       -25.8740    6.2090   -1.8060 C.3   404  LEU404      0.0284
    166  CG       -24.4360    5.6640   -1.9180 C.3   404  LEU404      0.0019
    167  CD1      -24.3870    4.4440   -2.8370 C.3   404  LEU404      0.0001
    168  CD2      -23.4720    6.7220   -2.4430 C.3   404  LEU404      0.0001
    169  N        -28.3620    7.9930   -0.3200 N.am  405  HIS405     -0.1976
    170  CA       -29.6990    8.5300   -0.4580 C.3   405  HIS405      0.1656
    171  C        -29.5170   10.0460   -0.4370 C.2   405  HIS405      0.2291
    172  O        -28.7400   10.5480    0.3750 O.2   405  HIS405     -0.2864
    173  CB       -30.6070    8.0710    0.6870 C.3   405  HIS405      0.0771
    174  CG       -32.0520    8.3970    0.4730 C.ar  405  HIS405      0.0820
    175  ND1      -32.5580    9.6700    0.6190 N.ar  405  HIS405     -0.2267
    176  CD2      -33.0990    7.6150    0.1230 C.ar  405  HIS405      0.1154
    177  CE1      -33.8510    9.6600    0.3540 C.ar  405  HIS405      0.1986
    178  NE2      -34.2050    8.4230    0.0540 N.ar  405  HIS405     -0.2212
@<TRIPOS>BOND
     1   135   133   am
     2   119   118    1
     3   120   118    1
     4   133   132    1
     5   133   134    2
     6   118   117    2
     7   132   131    1
     8   102   100   ar
     9   131   128    1
    10   130   129    2
    11   129   128    1
    12   117   116    1
    13   100   101   ar
    14   100    99    1
    15   128   127    1
    16   116   115    1
    17   115   114    1
    18    99    98    1
    19   127   123   am
    20   113   112    2
    21    98    95    1
    22    94    95    1
    23   112   111    1
    24   114   111    1
    25   124   123    2
    26   123   122    1
    27    95    96    1
    28   111   110    1
    29    97    96    2
    30    96   103   am
    31   122   125    1
    32   122   121    1
    33   110   105   am
    34   125   126    1
    35   167   166    1
    36   103   104    1
    37   105   106    2
    38   105   104    1
    39   168   166    1
    40   164   163    2
    41   104   107    1
    42   166   165    1
    43   165   162    1
    44   163   162    1
    45   163   169   am
    46   162   161    1
    47    22    21    1
    48    34    32    1
    49   107   109    1
    50   107   108    1
    51    21    23    1
    52    21    18    1
    53   170   171    1
    54   170   169    1
    55   170   173    1
    56   171   172    2
    57    20    19    2
    58   178   176   ar
    59   178   177   ar
    60   176   174   ar
    61    32    31    2
    62    32    33    1
    63    19    18    1
    64    31    30    1
    65   177   175   ar
    66   174   175   ar
    67   174   173    1
    68    18    17    1
    69   152   153    1
    70   152   149    1
    71   151   150    2
    72    29    30    1
    73    29    28    1
    74   149   150    1
    75   149   148    1
    76    17    15   am
    77   150   154   am
    78    84    83    2
    79    25    28    1
    80    25    24    1
    81    25    26    1
    82    88    87    2
    83    26    27    2
    84   157   156    2
    85   154   155    1
    86    83    82    1
    87    83    85   am
    88    93    92    1
    89   155   156    1
    90   155   158    1
    91   148   146   am
    92    15    16    2
    93    15    14    1
    94    87    86    1
    95    82    81    1
    96    86    85    1
    97    86    89    1
    98   160   158    1
    99    75    74    1
   100   147   146    2
   101   146   145    1
   102    14    13    1
   103    90    89    1
   104    90    91    1
   105   158   159    1
   106    92    91    1
   107    76    74    1
   108    74    71    1
   109    70    71    1
   110    70    68   am
   111   142   141   ar
   112    71    72    1
   113    13    11   am
   114     4     3    2
   115   145   144    1
   116    68    69    2
   117    68    67    1
   118    67    66    1
   119   144   138   am
   120   143   141   ar
   121     7     6   ar
   122   141   140    1
   123     5     6    1
   124     5     2    1
   125    44    43    2
   126    11    12    2
   127    11    10    1
   128     3     2    1
   129     6     8   ar
   130    72    73    2
   131    72    77   am
   132     1     2    1
   133     9    10    1
   134   138   137    1
   135   138   139    2
   136    43    42    1
   137   137   140    1
   138   137   136    1
   139    77    78    1
   140    45    42    1
   141    45    46    1
   142    42    41    1
   143    47    46    1
   144    47    48    1
   145    80    79    2
   146    78    79    1
   147    64    62    1
   148    48    49    1
   149    65    63    1
   150    56    55   ar
   151    60    59    1
   152    60    61    2
   153    40    39    1
   154    59    62    1
   155    59    58    1
   156    62    63    1
   157    54    55    1
   158    54    51    1
   159    39    36    1
   160    55    57   ar
   161    35    36    1
   162    38    37    2
   163    36    37    1
   164    51    52    1
   165    51    50    1
   166    53    52    2
