@<TRIPOS>MOLECULE
tmp/3fgwA00.pdb
 99 96 0 0 0
SMALL
GASTEIGER

@<TRIPOS>ATOM
      1  N         60.0490   11.1380   29.4140 N.3    11  LEU11      -0.1245
      2  CA        60.3820   12.5410   29.5820 C.3    11  LEU11       0.1561
      3  C         61.1230   12.6760   30.9070 C.2    11  LEU11       0.2260
      4  O         60.5090   12.7840   31.9730 O.2    11  LEU11      -0.2867
      5  CB        59.1210   13.4110   29.5450 C.3    11  LEU11       0.0270
      6  CG        59.2890   14.9300   29.4300 C.3    11  LEU11       0.0019
      7  CD1       60.1080   15.3170   28.2040 C.3    11  LEU11       0.0001
      8  CD2       57.9290   15.6120   29.4010 C.3    11  LEU11       0.0001
      9  N         65.0000   17.2840   31.4770 N.3    16  GLY16      -0.1210
     10  CA        63.9830   17.8040   30.5610 C.3    16  GLY16       0.1956
     11  C         64.1590   17.2850   29.1430 C.2    16  GLY16       0.2612
     12  O         63.6650   17.8860   28.1880 O.2    16  GLY16      -0.2717
     13  N         64.8670   16.1640   29.0150 N.am   17  GLN17      -0.1965
     14  CA        65.1750   15.5560   27.7230 C.3    17  GLN17       0.1733
     15  C         64.3820   14.2630   27.5360 C.2    17  GLN17       0.2616
     16  O         63.7990   13.7370   28.4890 O.2    17  GLN17      -0.2715
     17  CB        66.6740   15.2420   27.6320 C.3    17  GLN17       0.0408
     18  CG        67.6030   16.4370   27.8270 C.3    17  GLN17       0.0908
     19  CD        67.9450   17.1430   26.5290 C.2    17  GLN17       0.2608
     20  OE1       68.3990   16.5210   25.5670 O.2    17  GLN17      -0.2717
     21  NE2       67.7430   18.4550   26.5010 N.am   17  GLN17      -0.0878
     22  N         64.3590   13.7620   26.3020 N.am   18  LEU18      -0.1977
     23  CA        63.8350   12.4290   26.0150 C.3    18  LEU18       0.1596
     24  C         64.9860   11.4290   25.9510 C.2    18  LEU18       0.2287
     25  O         66.0070   11.6910   25.3090 O.2    18  LEU18      -0.2864
     26  CB        63.0670   12.4050   24.6850 C.3    18  LEU18       0.0297
     27  CG        61.5830   12.7880   24.5430 C.3    18  LEU18       0.0022
     28  CD1       60.7380   12.3580   25.7540 C.3    18  LEU18       0.0001
     29  CD2       61.4160   14.2890   24.2800 C.3    18  LEU18       0.0001
     30  N         50.3400   13.1270   28.1960 N.3    54  TYR54      -0.1227
     31  CA        51.1740   14.0720   27.4810 C.3    54  TYR54       0.1736
     32  C         50.3900   14.6060   26.2940 C.2    54  TYR54       0.2595
     33  O         49.3890   14.0130   25.8820 O.2    54  TYR54      -0.2718
     34  CB        52.4560   13.3890   27.0040 C.3    54  TYR54       0.0548
     35  CG        53.3020   12.8500   28.1310 C.ar   54  TYR54      -0.0200
     36  CD1       54.2760   13.6440   28.7360 C.ar   54  TYR54      -0.0009
     37  CD2       53.1220   11.5490   28.6020 C.ar   54  TYR54      -0.0009
     38  CE1       55.0560   13.1550   29.7750 C.ar   54  TYR54       0.0417
     39  CE2       53.8950   11.0510   29.6440 C.ar   54  TYR54       0.0417
     40  CZ        54.8590   11.8590   30.2260 C.ar   54  TYR54       0.1957
     41  OH        55.6280   11.3710   31.2580 O.3    54  TYR54      -0.2866
     42  N         50.8400   15.7340   25.7570 N.am   55  ASN55      -0.1974
     43  CA        50.2360   16.3050   24.5610 C.3    55  ASN55       0.1688
     44  C         50.5020   15.4600   23.3170 C.2    55  ASN55       0.2292
     45  O         51.4890   14.7220   23.2490 O.2    55  ASN55      -0.2864
     46  CB        50.6770   17.7610   24.3510 C.3    55  ASN55       0.1181
     47  CG        52.1030   18.0240   24.8100 C.2    55  ASN55       0.2629
     48  OD1       52.9000   17.0970   24.9820 O.2    55  ASN55      -0.2716
     49  ND2       52.4230   19.3010   25.0230 N.am   55  ASN55      -0.0877
     50  N         51.4830   16.1400   20.3340 N.3    57  SER57      -0.1202
     51  CA        52.7280   16.4380   19.6270 C.3    57  SER57       0.2020
     52  C         53.8910   15.5990   20.1480 C.2    57  SER57       0.2618
     53  O         54.6560   15.0310   19.3640 O.2    57  SER57      -0.2717
     54  CB        53.0590   17.9290   19.7340 C.3    57  SER57       0.2103
     55  OG        51.9940   18.7280   19.2470 O.3    57  SER57      -0.2182
     56  N         54.0070   15.5230   21.4730 N.am   58  LEU58      -0.1979
     57  CA        55.0300   14.7120   22.1250 C.3    58  LEU58       0.1596
     58  C         54.7360   13.2250   21.9490 C.2    58  LEU58       0.2287
     59  O         55.6420   12.4460   21.6520 O.2    58  LEU58      -0.2864
     60  CB        55.1460   15.0740   23.6110 C.3    58  LEU58       0.0297
     61  CG        56.2960   14.4790   24.4310 C.3    58  LEU58       0.0022
     62  CD1       57.6570   14.9290   23.9120 C.3    58  LEU58       0.0001
     63  CD2       56.1410   14.8450   25.8950 C.3    58  LEU58       0.0001
     64  N         50.4350   17.6710   11.3240 N.3   128  ARG128     -0.1245
     65  CA        51.6100   17.9150   12.1570 C.3   128  ARG128      0.1563
     66  C         51.9880   16.6950   12.9920 C.2   128  ARG128      0.2260
     67  O         53.1660   16.3630   13.0930 O.2   128  ARG128     -0.2867
     68  CB        51.4160   19.1400   13.0520 C.3   128  ARG128      0.0307
     69  CG        52.7250   19.6630   13.6150 C.3   128  ARG128      0.0489
     70  CD        52.6060   21.0720   14.1610 C.3   128  ARG128      0.2205
     71  NE        53.8740   21.5020   14.7450 N.pl3 128  ARG128     -0.0865
     72  CZ        54.2650   21.2160   15.9840 C.cat 128  ARG128      0.5346
     73  NH1       53.4870   20.5010   16.7900 N.pl3 128  ARG128      0.1354
     74  NH2       55.4390   21.6470   16.4230 N.pl3 128  ARG128      0.1354
     75  N         63.0060   17.1960   20.3220 N.3   147  PHE147     -0.1228
     76  CA        61.5780   17.4760   20.1520 C.3   147  PHE147      0.1721
     77  C         61.3210   18.9330   19.7640 C.2   147  PHE147      0.2437
     78  O         61.5900   19.8410   20.5540 O.2   147  PHE147     -0.2733
     79  CB        60.8010   17.1030   21.4230 C.3   147  PHE147      0.0547
     80  CG        59.3320   17.4380   21.3690 C.ar  147  PHE147     -0.0202
     81  CD1       58.4810   16.7780   20.4850 C.ar  147  PHE147     -0.0042
     82  CD2       58.7960   18.4050   22.2160 C.ar  147  PHE147     -0.0042
     83  CE1       57.1230   17.0850   20.4370 C.ar  147  PHE147     -0.0003
     84  CE2       57.4370   18.7170   22.1760 C.ar  147  PHE147     -0.0003
     85  CZ        56.6000   18.0540   21.2860 C.ar  147  PHE147     -0.0000
     86  N         60.8040   19.1590   18.5390 N.am  148  PRO148     -0.2718
     87  CA        60.5160   20.5170   18.0810 C.3   148  PRO148      0.1535
     88  C         59.2350   21.0870   18.6970 C.2   148  PRO148      0.2599
     89  O         58.1850   20.4400   18.6600 O.2   148  PRO148     -0.2715
     90  CB        60.3740   20.3550   16.5640 C.3   148  PRO148      0.0310
     91  CG        59.9710   18.9500   16.3560 C.3   148  PRO148      0.0237
     92  CD        60.4700   18.1450   17.5200 C.3   148  PRO148      0.0939
     93  N         59.3410   22.2870   19.2640 N.am  149  THR149     -0.1951
     94  CA        58.2100   22.9610   19.9060 C.3   149  THR149      0.1897
     95  C         57.3730   23.7430   18.8880 C.2   149  THR149      0.2313
     96  O         56.1580   23.8770   19.0480 O.2   149  THR149     -0.2863
     97  CB        58.6830   23.8690   21.0820 C.3   149  THR149      0.1794
     98  OG1       59.1170   23.0430   22.1740 O.3   149  THR149     -0.2208
     99  CG2       57.5620   24.7880   21.5790 C.3   149  THR149      0.0378
@<TRIPOS>BOND
     1    64    65    1
     2    65    66    1
     3    65    68    1
     4    66    67    2
     5    68    69    1
     6    69    70    1
     7    70    71    1
     8    71    72    2
     9    72    74    1
    10    72    73    1
    11    91    90    1
    12    91    92    1
    13    90    87    1
    14    92    86    1
    15    87    86    1
    16    87    88    1
    17    86    77   am
    18    89    88    2
    19    88    93   am
    20    95    96    2
    21    95    94    1
    22    55    54    1
    23    93    94    1
    24    53    52    2
    25    51    54    1
    26    51    52    1
    27    51    50    1
    28    77    76    1
    29    77    78    2
    30    94    97    1
    31    52    56   am
    32    76    75    1
    33    76    79    1
    34    83    81   ar
    35    83    85   ar
    36    81    80   ar
    37    97    99    1
    38    97    98    1
    39    85    84   ar
    40    80    79    1
    41    80    82   ar
    42    56    57    1
    43    59    58    2
    44    58    57    1
    45    57    60    1
    46    84    82   ar
    47    45    44    2
    48    44    43    1
    49    60    61    1
    50    62    61    1
    51    29    27    1
    52    46    43    1
    53    46    47    1
    54    61    63    1
    55    27    26    1
    56    27    28    1
    57    43    42    1
    58    26    23    1
    59    47    48    2
    60    47    49   am
    61    25    24    2
    62    20    19    2
    63    42    32   am
    64    33    32    2
    65    24    23    1
    66    23    22    1
    67    32    31    1
    68    22    15   am
    69    21    19   am
    70    19    18    1
    71    34    31    1
    72    34    35    1
    73    31    30    1
    74    15    14    1
    75    15    16    2
    76    17    14    1
    77    17    18    1
    78    14    13    1
    79    35    37   ar
    80    35    36   ar
    81    12    11    2
    82     7     6    1
    83    37    39   ar
    84    36    38   ar
    85    13    11   am
    86    11    10    1
    87     8     6    1
    88     1     2    1
    89     6     5    1
    90     5     2    1
    91     2     3    1
    92    39    40   ar
    93    38    40   ar
    94    40    41    1
    95    10     9    1
    96     3     4    2
