@<TRIPOS>MOLECULE
tmp/3fgyA00.pdb
 112 107 0 0 0
SMALL
GASTEIGER

@<TRIPOS>ATOM
      1  N         36.9230   38.7500   27.6340 N.3    34  TRP34      -0.1241
      2  CA        37.1600   39.4340   26.3630 C.3    34  TRP34       0.1605
      3  C         36.6430   38.5480   25.2470 C.2    34  TRP34       0.2264
      4  O         37.1880   37.4630   24.9590 O.2    34  TRP34      -0.2867
      5  CB        38.6550   39.7270   26.2180 C.3    34  TRP34       0.0550
      6  CG        39.1380   40.5350   25.0490 C.ar   34  TRP34       0.0003
      7  CD1       38.5270   40.7230   23.8240 C.ar   34  TRP34       0.0946
      8  CD2       40.3820   41.2310   24.9800 C.ar   34  TRP34       0.0152
      9  NE1       39.3270   41.5190   23.0120 N.ar   34  TRP34      -0.2442
     10  CE2       40.4670   41.8290   23.6880 C.ar   34  TRP34       0.0810
     11  CE3       41.4350   41.4100   25.8780 C.ar   34  TRP34       0.0012
     12  CZ2       41.5530   42.5790   23.3010 C.ar   34  TRP34       0.0191
     13  CZ3       42.4890   42.1640   25.4990 C.ar   34  TRP34       0.0001
     14  CH2       42.5620   42.7270   24.2210 C.ar   34  TRP34       0.0015
     15  N         35.6640   37.8520   21.3410 N.3    36  ILE36      -0.1245
     16  CA        36.0940   38.1350   19.9920 C.3    36  ILE36       0.1561
     17  C         35.2530   37.2670   19.0560 C.2    36  ILE36       0.2260
     18  O         35.2820   36.0470   19.1470 O.2    36  ILE36      -0.2867
     19  CB        37.6020   37.8540   19.8280 C.3    36  ILE36       0.0252
     20  CG1       38.4080   38.7070   20.8280 C.3    36  ILE36       0.0019
     21  CG2       38.0170   38.1260   18.3660 C.3    36  ILE36       0.0019
     22  CD1       39.9240   38.5760   20.6210 C.3    36  ILE36       0.0001
     23  N         38.4180   32.7190   13.2250 N.3    40  TRP40      -0.1241
     24  CA        39.7850   33.0980   12.9650 C.3    40  TRP40       0.1605
     25  C         40.5310   32.7740   14.2600 C.2    40  TRP40       0.2264
     26  O         39.8930   32.4580   15.2700 O.2    40  TRP40      -0.2867
     27  CB        39.9110   34.5600   12.5600 C.3    40  TRP40       0.0550
     28  CG        39.5030   35.6100   13.5590 C.ar   40  TRP40       0.0003
     29  CD1       38.2620   35.7990   14.1340 C.ar   40  TRP40       0.0946
     30  CD2       40.3180   36.6870   14.0220 C.ar   40  TRP40       0.0152
     31  NE1       38.2800   36.9120   14.9300 N.ar   40  TRP40      -0.2442
     32  CE2       39.5360   37.4560   14.9150 C.ar   40  TRP40       0.0810
     33  CE3       41.6500   37.0530   13.8130 C.ar   40  TRP40       0.0012
     34  CZ2       40.0310   38.5870   15.5420 C.ar   40  TRP40       0.0191
     35  CZ3       42.1380   38.1700   14.4600 C.ar   40  TRP40       0.0001
     36  CH2       41.3200   38.9430   15.2860 C.ar   40  TRP40       0.0015
     37  N         41.9170   34.1670   16.7810 N.3    42  LEU42      -0.1245
     38  CA        41.6970   34.8630   18.0510 C.3    42  LEU42       0.1561
     39  C         40.2690   34.8430   18.5200 C.2    42  LEU42       0.2260
     40  O         39.9810   35.3540   19.6240 O.2    42  LEU42      -0.2867
     41  CB        42.2200   36.2960   17.9860 C.3    42  LEU42       0.0270
     42  CG        43.6760   36.4800   17.5400 C.3    42  LEU42       0.0019
     43  CD1       44.0700   37.9630   17.6780 C.3    42  LEU42       0.0001
     44  CD2       44.6460   35.5290   18.2700 C.3    42  LEU42       0.0001
     45  N         46.2470   35.4430   24.9270 N.3    55  LEU55      -0.1231
     46  CA        45.6270   36.1290   23.7770 C.3    55  LEU55       0.1693
     47  C         46.5900   37.1460   23.1900 C.2    55  LEU55       0.2591
     48  O         46.8220   37.1440   21.9800 O.2    55  LEU55      -0.2718
     49  CB        44.3470   36.8300   24.2260 C.3    55  LEU55       0.0284
     50  CG        43.7320   37.8490   23.2520 C.3    55  LEU55       0.0019
     51  CD1       43.3860   37.1690   21.8880 C.3    55  LEU55       0.0001
     52  CD2       42.5140   38.5320   23.8880 C.3    55  LEU55       0.0001
     53  N         47.1920   37.9690   24.0560 N.am   56  LEU56      -0.1980
     54  CA        48.1530   38.9780   23.6150 C.3    56  LEU56       0.1596
     55  C         49.3920   38.3160   22.9500 C.2    56  LEU56       0.2287
     56  O         49.8880   38.7870   21.8990 O.2    56  LEU56      -0.2864
     57  CB        48.5140   39.9060   24.7790 C.3    56  LEU56       0.0297
     58  CG        47.3170   40.7260   25.3400 C.3    56  LEU56       0.0022
     59  CD1       47.7720   41.7920   26.3310 C.3    56  LEU56       0.0001
     60  CD2       46.4690   41.3570   24.2610 C.3    56  LEU56       0.0001
     61  N         48.2310   36.8480   19.5270 N.3    59  ALA59      -0.1245
     62  CA        48.0230   37.9470   18.5680 C.3    59  ALA59       0.1562
     63  C         49.3810   38.4040   17.9920 C.2    59  ALA59       0.2260
     64  O         49.5380   38.5380   16.7690 O.2    59  ALA59      -0.2867
     65  CB        47.3030   39.1030   19.2220 C.3    59  ALA59       0.0290
     66  N         49.5580   38.0710   13.8160 N.3    62  VAL62      -0.1245
     67  CA        49.1090   39.2330   13.0480 C.3    62  VAL62       0.1561
     68  C         49.9610   40.4580   13.3430 C.2    62  VAL62       0.2260
     69  O         50.4570   40.6450   14.4650 O.2    62  VAL62      -0.2867
     70  CB        47.6120   39.5390   13.2730 C.3    62  VAL62       0.0252
     71  CG1       47.3470   40.1010   14.6590 C.3    62  VAL62       0.0019
     72  CG2       47.1060   40.5290   12.2300 C.3    62  VAL62       0.0019
     73  N         49.5030   44.4340   13.2390 N.3    64  ILE64      -0.1245
     74  CA        48.3880   45.3550   13.2470 C.3    64  ILE64       0.1561
     75  C         48.8750   46.7840   13.4800 C.2    64  ILE64       0.2260
     76  O         49.7880   47.0390   14.2910 O.2    64  ILE64      -0.2867
     77  CB        47.2960   44.9260   14.2520 C.3    64  ILE64       0.0252
     78  CG1       46.0280   45.7610   14.0530 C.3    64  ILE64       0.0019
     79  CG2       47.8300   44.9880   15.6880 C.3    64  ILE64       0.0019
     80  CD1       44.8390   45.2700   14.8420 C.3    64  ILE64       0.0001
     81  N         47.4020   50.9940   13.7150 N.3    66  TYR66      -0.1241
     82  CA        46.2810   51.8890   13.9030 C.3    66  TYR66       0.1605
     83  C         46.7320   53.2480   13.3610 C.2    66  TYR66       0.2264
     84  O         47.5560   53.9140   14.0070 O.2    66  TYR66      -0.2867
     85  CB        45.9330   51.9540   15.4060 C.3    66  TYR66       0.0534
     86  CG        45.7730   50.5740   16.0350 C.ar   66  TYR66      -0.0201
     87  CD1       44.5500   49.8930   15.9880 C.ar   66  TYR66      -0.0009
     88  CD2       46.8640   49.9250   16.6210 C.ar   66  TYR66      -0.0009
     89  CE1       44.4090   48.6140   16.5520 C.ar   66  TYR66       0.0417
     90  CE2       46.7450   48.6450   17.1900 C.ar   66  TYR66       0.0417
     91  CZ        45.5170   47.9870   17.1430 C.ar   66  TYR66       0.1957
     92  OH        45.4170   46.7180   17.7100 O.3    66  TYR66      -0.2866
     93  N         35.3410   48.3980   20.2710 N.3   102  PHE102     -0.1241
     94  CA        35.5350   47.6150   21.4910 C.3   102  PHE102      0.1605
     95  C         34.5770   48.1950   22.5220 C.2   102  PHE102      0.2264
     96  O         34.6590   49.3720   22.8530 O.2   102  PHE102     -0.2867
     97  CB        36.9700   47.7130   22.0240 C.3   102  PHE102      0.0534
     98  CG        37.9610   46.8620   21.2900 C.ar  102  PHE102     -0.0203
     99  CD1       37.8290   46.6050   19.9190 C.ar  102  PHE102     -0.0042
    100  CD2       39.0270   46.3050   21.9630 C.ar  102  PHE102     -0.0042
    101  CE1       38.7650   45.8360   19.2340 C.ar  102  PHE102     -0.0003
    102  CE2       39.9670   45.5350   21.2790 C.ar  102  PHE102     -0.0003
    103  CZ        39.8400   45.3120   19.9220 C.ar  102  PHE102     -0.0000
    104  N         34.4200   42.7570   21.2050 N.3   116  GLU116     -0.1245
    105  CA        34.7730   43.3580   19.9400 C.3   116  GLU116      0.1567
    106  C         33.6740   43.1770   18.8770 C.2   116  GLU116      0.2260
    107  O         33.0520   42.1140   18.7630 O.2   116  GLU116     -0.2867
    108  CB        36.0610   42.7520   19.3760 C.3   116  GLU116      0.0388
    109  CG        37.2380   42.7290   20.3050 C.3   116  GLU116      0.1160
    110  CD        38.5380   42.3370   19.5910 C.2   116  GLU116      0.3649
    111  OE1       38.5390   42.2290   18.3200 O.co2 116  GLU116     -0.2457
    112  OE2       39.5460   42.1360   20.2930 O.co2 116  GLU116     -0.2457
@<TRIPOS>BOND
     1    72    70    1
     2    27    24    1
     3    27    28    1
     4    24    23    1
     5    24    25    1
     6    67    70    1
     7    67    68    1
     8    67    66    1
     9    73    74    1
    10    74    75    1
    11    74    77    1
    12    70    71    1
    13    68    69    2
    14    83    82    1
    15    83    84    2
    16    75    76    2
    17    28    30   ar
    18    28    29   ar
    19    81    82    1
    20    33    30   ar
    21    33    35   ar
    22    82    85    1
    23    30    32   ar
    24    78    77    1
    25    78    80    1
    26    29    31   ar
    27    77    79    1
    28    25    26    2
    29    35    36   ar
    30    32    31   ar
    31    32    34   ar
    32    36    34   ar
    33    85    86    1
    34    87    86   ar
    35    87    89   ar
    36    86    88   ar
    37    89    91   ar
    38    88    90   ar
    39    64    63    2
    40    37    38    1
    41    91    90   ar
    42    91    92    1
    43    42    43    1
    44    42    41    1
    45    42    44    1
    46    41    38    1
    47    63    62    1
    48    38    39    1
    49   111   110   ar
    50    21    19    1
    51    39    40    2
    52    62    65    1
    53    62    61    1
    54   107   106    2
    55   106   105    1
    56    17    18    2
    57    17    16    1
    58   101    99   ar
    59   101   103   ar
    60   108   105    1
    61   108   109    1
    62   110   112   ar
    63   110   109    1
    64    19    16    1
    65    19    20    1
    66    99    98   ar
    67   103   102   ar
    68   105   104    1
    69    16    15    1
    70    93    94    1
    71    22    20    1
    72   102   100   ar
    73    98   100   ar
    74    98    97    1
    75    94    97    1
    76    94    95    1
    77    51    50    1
    78    56    55    2
    79    48    47    2
    80    95    96    2
    81    55    54    1
    82     9    10   ar
    83     9     7   ar
    84    47    46    1
    85    47    53   am
    86    50    52    1
    87    50    49    1
    88    12    10   ar
    89    12    14   ar
    90    54    53    1
    91    54    57    1
    92    10     8   ar
    93    46    49    1
    94    46    45    1
    95     7     6   ar
    96    14    13   ar
    97    60    58    1
    98    57    58    1
    99     4     3    2
   100     8     6   ar
   101     8    11   ar
   102     6     5    1
   103     3     2    1
   104    58    59    1
   105    13    11   ar
   106     5     2    1
   107     2     1    1
