@<TRIPOS>MOLECULE
tmp/3fh0B00.pdb
 167 161 0 0 0
SMALL
GASTEIGER

@<TRIPOS>ATOM
      1  N         14.3210   55.7650   41.8590 N.3     6  PRO6       -0.2102
      2  CA        13.3610   55.9040   40.7490 C.3     6  PRO6        0.1504
      3  C         13.4030   57.3320   40.2110 C.2     6  PRO6        0.2576
      4  O         13.5010   58.2910   40.9880 O.2     6  PRO6       -0.2718
      5  CB        12.0020   55.5680   41.4010 C.3     6  PRO6        0.0282
      6  CG        12.2100   55.6540   42.8670 C.3     6  PRO6        0.0208
      7  CD        13.6760   55.5820   43.1720 C.3     6  PRO6        0.0893
      8  N         13.4170   57.4640   38.8940 N.am    7  ILE7       -0.1966
      9  CA        13.4800   58.7590   38.2310 C.3     7  ILE7        0.1727
     10  C         12.3000   58.8170   37.2560 C.2     7  ILE7        0.2616
     11  O         12.1140   57.9050   36.4430 O.2     7  ILE7       -0.2715
     12  CB        14.7590   58.9060   37.3470 C.3     7  ILE7        0.0290
     13  CG1       16.0780   58.7150   38.1480 C.3     7  ILE7        0.0022
     14  CG2       14.7370   60.2330   36.5830 C.3     7  ILE7        0.0023
     15  CD1       16.3930   59.8460   39.0870 C.3     7  ILE7        0.0001
     16  N         11.5620   59.9150   37.3110 N.am    8  ASP8       -0.1971
     17  CA        10.5590   60.2170   36.3240 C.3     8  ASP8        0.1709
     18  C         11.2620   61.0460   35.2410 C.2     8  ASP8        0.2293
     19  O         11.7320   62.1630   35.5080 O.2     8  ASP8       -0.2864
     20  CB         9.4220   60.9830   36.9930 C.3     8  ASP8        0.1436
     21  CG         8.3000   61.3610   36.0320 C.2     8  ASP8        0.3671
     22  OD1        8.3790   61.0800   34.8080 O.co2   8  ASP8       -0.2456
     23  OD2        7.3170   61.9520   36.5220 O.co2   8  ASP8       -0.2456
     24  N         10.0330   64.8890   34.4040 N.3    11  ASP11      -0.1239
     25  CA        10.5880   65.9380   35.2830 C.3    11  ASP11       0.1674
     26  C         11.2270   65.4250   36.5840 C.2    11  ASP11       0.2266
     27  O         10.6100   65.4480   37.6540 O.2    11  ASP11      -0.2867
     28  CB         9.5610   67.0410   35.5620 C.3    11  ASP11       0.1410
     29  CG         9.6980   68.2140   34.6060 C.2    11  ASP11       0.3668
     30  OD1       10.5570   69.0850   34.8680 O.co2  11  ASP11      -0.2456
     31  OD2        8.9570   68.2680   33.5920 O.co2  11  ASP11      -0.2456
     32  N         17.6260   65.6480   44.6470 N.3    14  ILE14      -0.1245
     33  CA        18.0120   64.3010   45.0410 C.3    14  ILE14       0.1561
     34  C         19.4950   64.0160   44.7420 C.2    14  ILE14       0.2260
     35  O         20.0140   63.0480   45.2690 O.2    14  ILE14      -0.2867
     36  CB        17.1610   63.1670   44.3890 C.3    14  ILE14       0.0252
     37  CG1       17.5210   63.0210   42.9090 C.3    14  ILE14       0.0019
     38  CG2       15.6480   63.3040   44.7040 C.3    14  ILE14       0.0019
     39  CD1       16.9400   61.7750   42.2670 C.3    14  ILE14       0.0001
     40  N         15.9410   53.6670   38.1290 N.3    32  LEU32      -0.1231
     41  CA        14.7750   53.0610   37.4830 C.3    32  LEU32       0.1693
     42  C         13.8420   54.1370   36.9440 C.2    32  LEU32       0.2593
     43  O         13.5220   55.1170   37.6520 O.2    32  LEU32      -0.2718
     44  CB        13.9910   52.1740   38.4810 C.3    32  LEU32       0.0284
     45  CG        12.5760   51.6890   38.0830 C.3    32  LEU32       0.0019
     46  CD1       12.6100   50.6470   36.9750 C.3    32  LEU32       0.0001
     47  CD2       11.7990   51.1520   39.3100 C.3    32  LEU32       0.0001
     48  N         13.3920   53.9550   35.7060 N.am   33  THR33      -0.1939
     49  CA        12.2670   54.7270   35.2210 C.3    33  THR33       0.2028
     50  C         11.1330   53.7940   34.7590 C.2    33  THR33       0.2642
     51  O         11.3670   52.7150   34.2240 O.2    33  THR33      -0.2714
     52  CB        12.6510   55.7570   34.1340 C.3    33  THR33       0.1808
     53  OG1       11.5850   56.7150   34.0090 O.3    33  THR33      -0.2208
     54  CG2       12.9090   55.0760   32.7590 C.3    33  THR33       0.0379
     55  N          9.9010   54.1930   35.0200 N.am   34  VAL34      -0.1977
     56  CA         8.7610   53.3380   34.6800 C.3    34  VAL34       0.1596
     57  C          7.9560   54.0640   33.6460 C.2    34  VAL34       0.2287
     58  O          7.5460   55.1900   33.8700 O.2    34  VAL34      -0.2864
     59  CB         7.8630   53.0340   35.9120 C.3    34  VAL34       0.0276
     60  CG1        6.7240   52.0770   35.5250 C.3    34  VAL34       0.0022
     61  CG2        8.7180   52.4630   37.0690 C.3    34  VAL34       0.0022
     62  N          4.5530   54.5490   31.9250 N.3    36  PRO36      -0.2116
     63  CA         3.1930   54.1160   32.3010 C.3    36  PRO36       0.1372
     64  C          2.4200   53.4720   31.1510 C.2    36  PRO36       0.2244
     65  O          2.7710   53.6590   29.9850 O.2    36  PRO36      -0.2868
     66  CB         2.5430   55.4130   32.7910 C.3    36  PRO36       0.0268
     67  CG         3.7030   56.1520   33.4070 C.3    36  PRO36       0.0207
     68  CD         4.7960   55.9390   32.3590 C.3    36  PRO36       0.0892
     69  N          4.0310   53.0680   38.2250 N.3    73  PRO73      -0.2116
     70  CA         5.3340   53.4010   38.8110 C.3    73  PRO73       0.1372
     71  C          5.4860   52.8140   40.2270 C.2    73  PRO73       0.2244
     72  O          6.4770   52.1430   40.5090 O.2    73  PRO73      -0.2868
     73  CB         5.3410   54.9360   38.8210 C.3    73  PRO73       0.0268
     74  CG         4.4170   55.3090   37.6850 C.3    73  PRO73       0.0207
     75  CD         3.2970   54.2780   37.7910 C.3    73  PRO73       0.0892
     76  N          8.4380   50.2020   41.1070 N.3    77  ILE77      -0.1245
     77  CA         9.4190   50.6310   42.1120 C.3    77  ILE77       0.1561
     78  C          9.4780   49.5960   43.2380 C.2    77  ILE77       0.2260
     79  O         10.5710   49.0920   43.5640 O.2    77  ILE77      -0.2867
     80  CB         9.1280   52.0410   42.6600 C.3    77  ILE77       0.0252
     81  CG1        9.2260   53.0650   41.5280 C.3    77  ILE77       0.0019
     82  CG2       10.0960   52.3910   43.8370 C.3    77  ILE77       0.0019
     83  CD1        8.6710   54.4350   41.8350 C.3    77  ILE77       0.0001
     84  N         13.7440   58.8190   47.1000 N.3    91  ILE91      -0.1231
     85  CA        12.6700   59.3250   46.2710 C.3    91  ILE91       0.1692
     86  C         12.3730   60.7880   46.6730 C.2    91  ILE91       0.2591
     87  O         12.3500   61.1110   47.8590 O.2    91  ILE91      -0.2718
     88  CB        11.4220   58.3650   46.4190 C.3    91  ILE91       0.0266
     89  CG1       10.3640   58.6430   45.3600 C.3    91  ILE91       0.0019
     90  CG2       10.7710   58.4330   47.8570 C.3    91  ILE91       0.0020
     91  CD1        9.4410   57.4530   45.1190 C.3    91  ILE91       0.0001
     92  N         12.1400   61.6760   45.7120 N.am   92  ALA92      -0.1980
     93  CA        11.7010   63.0390   46.0370 C.3    92  ALA92       0.1597
     94  C         10.2870   62.9860   46.6660 C.2    92  ALA92       0.2287
     95  O          9.5020   62.0810   46.3360 O.2    92  ALA92      -0.2864
     96  CB        11.6810   63.8880   44.7530 C.3    92  ALA92       0.0319
     97  N          7.8230   64.8960   46.1150 N.3    94  HIS94      -0.1226
     98  CA         6.8900   65.0890   45.0000 C.3    94  HIS94       0.1752
     99  C          7.6170   65.6730   43.7920 C.2    94  HIS94       0.2596
    100  O          8.7900   66.0130   43.8820 O.2    94  HIS94      -0.2718
    101  CB         5.6850   65.9620   45.4030 C.3    94  HIS94       0.0759
    102  CG         6.0560   67.2720   46.0360 C.ar   94  HIS94       0.0818
    103  ND1        6.4570   68.3730   45.3070 N.ar   94  HIS94      -0.2268
    104  CD2        6.0570   67.6650   47.3350 C.ar   94  HIS94       0.1154
    105  CE1        6.7000   69.3810   46.1230 C.ar   94  HIS94       0.1986
    106  NE2        6.4620   68.9800   47.3610 N.ar   94  HIS94      -0.2212
    107  N          6.9200   65.7660   42.6630 N.am   95  ARG95      -0.1966
    108  CA         7.4050   66.4780   41.4780 C.3    95  ARG95       0.1714
    109  C          7.7530   67.9150   41.8740 C.2    95  ARG95       0.2458
    110  O          7.0070   68.5420   42.6350 O.2    95  ARG95      -0.2730
    111  CB         6.3440   66.4630   40.3820 C.3    95  ARG95       0.0347
    112  CG         5.8570   65.0450   40.0780 C.3    95  ARG95       0.0492
    113  CD         6.7120   64.3160   39.0940 C.3    95  ARG95       0.2205
    114  NE         6.6850   64.8950   37.7700 N.pl3  95  ARG95      -0.0865
    115  CZ         5.8230   64.5530   36.7930 C.cat  95  ARG95       0.5346
    116  NH1        4.8960   63.6160   37.0140 N.pl3  95  ARG95       0.1354
    117  NH2        5.8520   65.1420   35.6220 N.pl3  95  ARG95       0.1354
    118  N          8.9010   68.4330   41.3870 N.am   96  PRO96      -0.2727
    119  CA         9.3880   69.7600   41.8250 C.3    96  PRO96       0.1402
    120  C          8.3900   70.9020   41.6290 C.2    96  PRO96       0.2269
    121  O          8.3240   71.8110   42.4590 O.2    96  PRO96      -0.2865
    122  CB        10.6410   69.9930   40.9620 C.3    96  PRO96       0.0296
    123  CG        10.6110   68.9180   39.8970 C.3    96  PRO96       0.0237
    124  CD         9.8700   67.7640   40.4970 C.3    96  PRO96       0.0939
    125  N          5.0060   70.8210   41.6110 N.3    98  ILE98      -0.1245
    126  CA         3.6550   70.6900   42.1910 C.3    98  ILE98       0.1561
    127  C          3.6790   70.7410   43.7200 C.2    98  ILE98       0.2260
    128  O          4.2810   69.8800   44.3720 O.2    98  ILE98      -0.2867
    129  CB         2.9080   69.4030   41.7180 C.3    98  ILE98       0.0252
    130  CG1        3.1140   69.1580   40.2150 C.3    98  ILE98       0.0019
    131  CG2        1.4110   69.4920   42.0640 C.3    98  ILE98       0.0019
    132  CD1        2.9080   67.7060   39.7750 C.3    98  ILE98       0.0001
    133  N          0.2740   68.6730   47.0500 N.3   101  TYR101     -0.1241
    134  CA         0.3480   67.4290   47.8050 C.3   101  TYR101      0.1605
    135  C          1.7540   67.3230   48.4610 C.2   101  TYR101      0.2264
    136  O          2.7600   67.1000   47.7580 O.2   101  TYR101     -0.2867
    137  CB         0.0230   66.2160   46.8990 C.3   101  TYR101      0.0534
    138  CG        -1.2300   66.3580   46.0080 C.ar  101  TYR101     -0.0201
    139  CD1       -2.5250   66.1760   46.5210 C.ar  101  TYR101     -0.0009
    140  CD2       -1.1130   66.6550   44.6440 C.ar  101  TYR101     -0.0009
    141  CE1       -3.6690   66.2990   45.6960 C.ar  101  TYR101      0.0417
    142  CE2       -2.2470   66.7800   43.8200 C.ar  101  TYR101      0.0417
    143  CZ        -3.5220   66.5990   44.3500 C.ar  101  TYR101      0.1957
    144  OH        -4.6390   66.7330   43.5080 O.3   101  TYR101     -0.2866
    145  N          3.7850   63.2650   47.2720 N.3   104  GLY104     -0.1210
    146  CA         3.1470   62.7250   46.0620 C.3   104  GLY104      0.1956
    147  C          2.6700   61.3080   46.3030 C.2   104  GLY104      0.2613
    148  O          3.0080   60.7140   47.3230 O.2   104  GLY104     -0.2717
    149  N          1.9080   60.7440   45.3690 N.am  105  SER105     -0.1938
    150  CA         1.2540   59.4690   45.6640 C.3   105  SER105      0.2055
    151  C          2.2130   58.2760   45.5340 C.2   105  SER105      0.2643
    152  O          2.1150   57.3060   46.2990 O.2   105  SER105     -0.2714
    153  CB        -0.0540   59.2750   44.8660 C.3   105  SER105      0.2130
    154  OG         0.1910   58.5450   43.6810 O.3   105  SER105     -0.2179
    155  N          3.1500   58.3650   44.5950 N.am  106  ASN106     -0.1957
    156  CA         4.2170   57.3810   44.4750 C.3   106  ASN106      0.1819
    157  C          5.1610   57.3770   45.6640 C.2   106  ASN106      0.2621
    158  O          5.4820   56.3120   46.1740 O.2   106  ASN106     -0.2715
    159  CB         4.9790   57.5600   43.1640 C.3   106  ASN106      0.1195
    160  CG         4.1300   57.1950   41.9770 C.2   106  ASN106      0.2630
    161  OD1        3.5890   56.0920   41.9120 O.2   106  ASN106     -0.2716
    162  ND2        3.9620   58.1320   41.0530 N.am  106  ASN106     -0.0877
    163  N          5.5990   58.5580   46.1030 N.am  107  ALA107     -0.1977
    164  CA         6.4020   58.6820   47.3230 C.3   107  ALA107      0.1597
    165  C          5.6860   58.0810   48.5510 C.2   107  ALA107      0.2287
    166  O          6.2770   57.3240   49.3030 O.2   107  ALA107     -0.2864
    167  CB         6.7560   60.1330   47.5750 C.3   107  ALA107      0.0319
@<TRIPOS>BOND
     1    65    64    2
     2    64    63    1
     3    62    63    1
     4    62    68    1
     5    63    66    1
     6    68    67    1
     7    54    52    1
     8    66    67    1
     9    31    29   ar
    10    57    58    2
    11    57    56    1
    12    53    52    1
    13    52    49    1
    14    51    50    2
    15    24    25    1
    16    29    30   ar
    17    29    28    1
    18    56    55    1
    19    56    59    1
    20    50    55   am
    21    50    49    1
    22    22    21   ar
    23    49    48    1
    24    18    19    2
    25    18    17    1
    26    25    28    1
    27    25    26    1
    28    60    59    1
    29   117   115    1
    30    48    42   am
    31    59    61    1
    32    21    23   ar
    33    21    20    1
    34    17    20    1
    35    17    16    1
    36    11    10    2
    37    14    12    1
    38    26    27    2
    39   115   116    1
    40   115   114    2
    41    42    41    1
    42    42    43    2
    43    46    45    1
    44    10    16   am
    45    10     9    1
    46    12    13    1
    47    12     9    1
    48    41    40    1
    49    41    44    1
    50    74    75    1
    51    74    73    1
    52   114   113    1
    53    75    69    1
    54    45    44    1
    55    45    47    1
    56    13    15    1
    57    69    70    1
    58     9     8    1
    59    70    73    1
    60    70    71    1
    61     8     3   am
    62   113   112    1
    63   132   130    1
    64   123   124    1
    65   123   122    1
    66   112   111    1
    67     3     2    1
    68     3     4    2
    69   130   129    1
    70    71    72    2
    71   111   108    1
    72   124   118    1
    73     2     5    1
    74     2     1    1
    75   122   119    1
    76   162   160   am
    77    76    77    1
    78   118   119    1
    79   118   109   am
    80     5     6    1
    81   108   109    1
    82   108   107    1
    83    81    83    1
    84    81    80    1
    85   125   126    1
    86   120   119    1
    87   120   121    2
    88   129   131    1
    89   129   126    1
    90     1     7    1
    91   109   110    2
    92   161   160    2
    93   160   159    1
    94    77    80    1
    95    77    78    1
    96   126   127    1
    97    39    37    1
    98    80    82    1
    99   107    99   am
   100     6     7    1
   101    37    36    1
   102   159   156    1
   103    78    79    2
   104   144   143    1
   105   154   153    1
   106   127   128    2
   107    99   100    2
   108    99    98    1
   109   142   143   ar
   110   142   140   ar
   111   143   141   ar
   112    36    38    1
   113    36    33    1
   114   156   155    1
   115   156   157    1
   116   155   151   am
   117   140   138   ar
   118    32    33    1
   119    34    33    1
   120    34    35    2
   121    96    93    1
   122   153   150    1
   123    98   101    1
   124    98    97    1
   125    91    89    1
   126   103   102   ar
   127   103   105   ar
   128    89    88    1
   129   149   150    1
   130   149   147   am
   131   101   102    1
   132   151   150    1
   133   151   152    2
   134   157   163   am
   135   157   158    2
   136   141   139   ar
   137    92    93    1
   138    92    86   am
   139   138   139   ar
   140   138   137    1
   141   102   104   ar
   142    93    94    1
   143   146   147    1
   144   146   145    1
   145   163   164    1
   146   105   106   ar
   147    85    88    1
   148    85    86    1
   149    85    84    1
   150   147   148    2
   151    95    94    2
   152    88    90    1
   153    86    87    2
   154   137   134    1
   155   133   134    1
   156   164   167    1
   157   164   165    1
   158   104   106   ar
   159   136   135    2
   160   134   135    1
   161   165   166    2
