@<TRIPOS>MOLECULE
tmp/3fh5A00.pdb
 201 199 0 0 0
SMALL
GASTEIGER

@<TRIPOS>ATOM
      1  N         35.5360    2.3290    8.6050 N.3   131  GLN131     -0.1245
      2  CA        34.9890    1.7700    7.3760 C.3   131  GLN131      0.1566
      3  C         33.7900    2.6360    7.0040 C.2   131  GLN131      0.2260
      4  O         32.6600    2.3950    7.4390 O.2   131  GLN131     -0.2867
      5  CB        34.5870    0.3020    7.5630 C.3   131  GLN131      0.0367
      6  CG        34.8260   -0.6250    6.3440 C.3   131  GLN131      0.0905
      7  CD        33.8790   -0.4230    5.1590 C.2   131  GLN131      0.2608
      8  OE1       34.2360   -0.7400    4.0270 O.2   131  GLN131     -0.2717
      9  NE2       32.6760    0.0790    5.4070 N.am  131  GLN131     -0.0878
     10  N         32.4730    3.2970    3.8730 N.3   133  GLN133     -0.1231
     11  CA        31.5970    2.9490    2.7560 C.3   133  GLN133      0.1698
     12  C         30.3870    2.1420    3.2300 C.2   133  GLN133      0.2592
     13  O         30.5600    1.1870    3.9720 O.2   133  GLN133     -0.2718
     14  CB        32.3810    2.1950    1.6700 C.3   133  GLN133      0.0381
     15  CG        31.6030    2.1130    0.3620 C.3   133  GLN133      0.0905
     16  CD        32.2980    1.2790   -0.6900 C.2   133  GLN133      0.2608
     17  OE1       32.9420    0.2710   -0.3790 O.2   133  GLN133     -0.2717
     18  NE2       32.1510    1.6790   -1.9460 N.am  133  GLN133     -0.0878
     19  N         29.1520    2.4900    2.8350 N.am  134  ALA134     -0.1980
     20  CA        28.7720    3.5690    1.9250 C.3   134  ALA134      0.1597
     21  C         28.6040    4.9290    2.5990 C.2   134  ALA134      0.2287
     22  O         29.1460    5.9330    2.1200 O.2   134  ALA134     -0.2864
     23  CB        27.4690    3.1670    1.2120 C.3   134  ALA134      0.0319
     24  N         34.8230   -6.7970    5.8360 N.3   264  TYR264     -0.1227
     25  CA        34.8130   -7.1060    4.4050 C.3   264  TYR264      0.1736
     26  C         36.1460   -7.6980    3.9490 C.2   264  TYR264      0.2596
     27  O         37.1380   -7.6430    4.6830 O.2   264  TYR264     -0.2718
     28  CB        34.4870   -5.8310    3.6240 C.3   264  TYR264      0.0548
     29  CG        33.1750   -5.1840    4.0220 C.ar  264  TYR264     -0.0200
     30  CD1       31.9620   -5.6670    3.5170 C.ar  264  TYR264     -0.0009
     31  CD2       33.1390   -4.0850    4.8860 C.ar  264  TYR264     -0.0009
     32  CE1       30.7470   -5.0860    3.8640 C.ar  264  TYR264      0.0417
     33  CE2       31.9100   -3.4970    5.2400 C.ar  264  TYR264      0.0417
     34  CZ        30.7290   -4.0020    4.7160 C.ar  264  TYR264      0.1957
     35  OH        29.5060   -3.4420    5.0340 O.3   264  TYR264     -0.2866
     36  N         36.1820   -8.2550    2.7410 N.am  265  GLY265     -0.1942
     37  CA        37.4170   -8.8210    2.1980 C.3   265  GLY265      0.2014
     38  C         38.4570   -7.7220    1.9990 C.2   265  GLY265      0.2639
     39  O         39.6420   -7.9000    2.2880 O.2   265  GLY265     -0.2714
     40  N         37.9960   -6.5810    1.5050 N.am  266  GLY266     -0.1939
     41  CA        38.9060   -5.4710    1.2520 C.3   266  GLY266      0.2014
     42  C         38.1700   -4.1650    1.1000 C.2   266  GLY266      0.2639
     43  O         36.9700   -4.1460    0.8710 O.2   266  GLY266     -0.2714
     44  N         38.8950   -3.0700    1.2780 N.am  267  MET267     -0.1963
     45  CA        38.3810   -1.7420    1.0160 C.3   267  MET267      0.1736
     46  C         39.4920   -0.9700    0.3350 C.2   267  MET267      0.2616
     47  O         40.6110   -0.8900    0.8520 O.2   267  MET267     -0.2715
     48  CB        37.9240   -1.0280    2.3100 C.3   267  MET267      0.0427
     49  CG        37.5030    0.4320    2.0600 C.3   267  MET267      0.0599
     50  SD        35.9410    0.4580    1.1250 S.3   267  MET267     -0.1393
     51  CE        36.0680    2.0610    0.3370 C.3   267  MET267      0.0692
     52  N         39.1550   -0.4100   -0.8240 N.am  268  GLU268     -0.1977
     53  CA        40.0980    0.2330   -1.7440 C.3   268  GLU268      0.1602
     54  C         40.5120    1.6470   -1.3160 C.2   268  GLU268      0.2287
     55  O         40.5580    2.5570   -2.1380 O.2   268  GLU268     -0.2864
     56  CB        39.4400    0.2820   -3.1380 C.3   268  GLU268      0.0415
     57  CG        38.1690    1.1800   -3.2140 C.3   268  GLU268      0.1163
     58  CD        36.8550    0.4660   -2.9540 C.2   268  GLU268      0.3649
     59  OE1       36.8160   -0.5930   -2.2780 O.co2 268  GLU268     -0.2457
     60  OE2       35.8210    0.9880   -3.4480 O.co2 268  GLU268     -0.2457
     61  N         24.6580    5.9390   -4.7280 N.3   308  TRP308     -0.1227
     62  CA        24.7680    4.5070   -4.4630 C.3   308  TRP308      0.1737
     63  C         23.8220    3.6480   -5.3010 C.2   308  TRP308      0.2595
     64  O         24.0280    2.4530   -5.4340 O.2   308  TRP308     -0.2718
     65  CB        24.6490    4.2240   -2.9530 C.3   308  TRP308      0.0564
     66  CG        25.7540    4.9220   -2.2070 C.ar  308  TRP308      0.0003
     67  CD1       25.6400    6.0010   -1.3430 C.ar  308  TRP308      0.0946
     68  CD2       27.1460    4.6100   -2.2810 C.ar  308  TRP308      0.0152
     69  NE1       26.8960    6.3640   -0.8870 N.ar  308  TRP308     -0.2442
     70  CE2       27.8330    5.5400   -1.4590 C.ar  308  TRP308      0.0810
     71  CE3       27.8900    3.6480   -2.9860 C.ar  308  TRP308      0.0012
     72  CZ2       29.2250    5.5200   -1.3060 C.ar  308  TRP308      0.0191
     73  CZ3       29.2780    3.6270   -2.8410 C.ar  308  TRP308      0.0001
     74  CH2       29.9330    4.5600   -1.9930 C.ar  308  TRP308      0.0015
     75  N         22.8100    4.2580   -5.9130 N.am  309  ASP309     -0.1974
     76  CA        21.9770    3.5200   -6.8620 C.3   309  ASP309      0.1709
     77  C         22.8050    2.9460   -8.0190 C.2   309  ASP309      0.2293
     78  O         22.4110    1.9580   -8.6510 O.2   309  ASP309     -0.2864
     79  CB        20.8880    4.4350   -7.4460 C.3   309  ASP309      0.1436
     80  CG        19.8160    4.8170   -6.4290 C.2   309  ASP309      0.3671
     81  OD1       19.7940    4.2880   -5.3070 O.co2 309  ASP309     -0.2456
     82  OD2       18.9680    5.6700   -6.7770 O.co2 309  ASP309     -0.2456
     83  N         26.0790    1.9620   -7.8080 N.3   311  PHE311     -0.1227
     84  CA        27.1970    1.1890   -7.2370 C.3   311  PHE311      0.1736
     85  C         27.7430    0.1250   -8.1810 C.2   311  PHE311      0.2595
     86  O         28.9440   -0.1450   -8.1750 O.2   311  PHE311     -0.2718
     87  CB        26.7430    0.5710   -5.8970 C.3   311  PHE311      0.0547
     88  CG        27.8050   -0.2150   -5.1600 C.ar  311  PHE311     -0.0202
     89  CD1       29.0450    0.3540   -4.8510 C.ar  311  PHE311     -0.0042
     90  CD2       27.5400   -1.5120   -4.7300 C.ar  311  PHE311     -0.0042
     91  CE1       30.0000   -0.3740   -4.1490 C.ar  311  PHE311     -0.0003
     92  CE2       28.4940   -2.2470   -3.9960 C.ar  311  PHE311     -0.0003
     93  CZ        29.7240   -1.6670   -3.7110 C.ar  311  PHE311     -0.0000
     94  N         26.8810   -0.4860   -9.0040 N.am  312  TRP312     -0.1976
     95  CA        27.3700   -1.4730   -9.9900 C.3   312  TRP312      0.1640
     96  C         28.4600   -0.9170  -10.9150 C.2   312  TRP312      0.2290
     97  O         29.2850   -1.6780  -11.4210 O.2   312  TRP312     -0.2864
     98  CB        26.2200   -2.0800  -10.8220 C.3   312  TRP312      0.0576
     99  CG        25.8490   -1.2630  -12.0350 C.ar  312  TRP312      0.0006
    100  CD1       24.9440   -0.2410  -12.0890 C.ar  312  TRP312      0.0946
    101  CD2       26.3720   -1.4110  -13.3610 C.ar  312  TRP312      0.0152
    102  NE1       24.8830    0.2690  -13.3700 N.ar  312  TRP312     -0.2442
    103  CE2       25.7510   -0.4260  -14.1680 C.ar  312  TRP312      0.0810
    104  CE3       27.3170   -2.2630  -13.9410 C.ar  312  TRP312      0.0012
    105  CZ2       26.0330   -0.2820  -15.5340 C.ar  312  TRP312      0.0191
    106  CZ3       27.6100   -2.1220  -15.3090 C.ar  312  TRP312      0.0001
    107  CH2       26.9640   -1.1390  -16.0870 C.ar  312  TRP312      0.0015
    108  N         31.5650   -1.5950   -9.0130 N.3   315  GLU315     -0.1245
    109  CA        31.9140   -3.0090   -8.8180 C.3   315  GLU315      0.1567
    110  C         32.0090   -3.8620  -10.0610 C.2   315  GLU315      0.2260
    111  O         32.9120   -4.6930  -10.1760 O.2   315  GLU315     -0.2867
    112  CB        31.0140   -3.6740   -7.7750 C.3   315  GLU315      0.0388
    113  CG        31.0770   -2.9880   -6.4140 C.3   315  GLU315      0.1160
    114  CD        32.4930   -2.8800   -5.8660 C.2   315  GLU315      0.3649
    115  OE1       33.3310   -3.7700   -6.1420 O.co2 315  GLU315     -0.2457
    116  OE2       32.7570   -1.8990   -5.1540 O.co2 315  GLU315     -0.2457
    117  N         16.4330   -5.8140   -4.7630 N.3   359  PHE359     -0.1241
    118  CA        17.8970   -5.8050   -4.5380 C.3   359  PHE359      0.1605
    119  C         18.6410   -6.6660   -5.5780 C.2   359  PHE359      0.2264
    120  O         19.8790   -6.7110   -5.5760 O.2   359  PHE359     -0.2867
    121  CB        18.2970   -6.2830   -3.1290 C.3   359  PHE359      0.0534
    122  CG        17.7890   -5.4270   -1.9880 C.ar  359  PHE359     -0.0203
    123  CD1       17.2240   -4.1620   -2.2120 C.ar  359  PHE359     -0.0042
    124  CD2       17.9030   -5.8930   -0.6750 C.ar  359  PHE359     -0.0042
    125  CE1       16.7640   -3.3900   -1.1400 C.ar  359  PHE359     -0.0003
    126  CE2       17.4490   -5.1340    0.3970 C.ar  359  PHE359     -0.0003
    127  CZ        16.8820   -3.8820    0.1610 C.ar  359  PHE359     -0.0000
    128  N         20.1140   -4.4530  -11.2460 N.3   362  LEU362     -0.1245
    129  CA        21.4760   -3.9210  -11.3730 C.3   362  LEU362      0.1561
    130  C         21.5600   -2.4720  -10.8870 C.2   362  LEU362      0.2260
    131  O         22.4280   -2.1210  -10.0770 O.2   362  LEU362     -0.2867
    132  CB        21.9660   -4.0420  -12.8070 C.3   362  LEU362      0.0270
    133  CG        23.4320   -3.6510  -13.0330 C.3   362  LEU362      0.0019
    134  CD1       24.3790   -4.5750  -12.2730 C.3   362  LEU362      0.0001
    135  CD2       23.7290   -3.6690  -14.5230 C.3   362  LEU362      0.0001
    136  N         19.7400    0.0160   -8.6030 N.3   364  VAL364     -0.1245
    137  CA        18.7940   -0.0700   -7.4830 C.3   364  VAL364      0.1561
    138  C         18.1920    1.2740   -7.1140 C.2   364  VAL364      0.2260
    139  O         18.5890    2.3250   -7.6300 O.2   364  VAL364     -0.2867
    140  CB        19.4270   -0.7510   -6.2600 C.3   364  VAL364      0.0252
    141  CG1       19.8170   -2.1860   -6.6200 C.3   364  VAL364      0.0019
    142  CG2       20.6280    0.0540   -5.7400 C.3   364  VAL364      0.0019
    143  N         17.6470    3.0910   -3.6410 N.3   366  LEU366     -0.1245
    144  CA        17.8840    3.0210   -2.2110 C.3   366  LEU366      0.1561
    145  C         17.0830    4.0270   -1.3740 C.2   366  LEU366      0.2260
    146  O         17.4070    4.2560   -0.2060 O.2   366  LEU366     -0.2867
    147  CB        19.3830    3.1520   -1.9280 C.3   366  LEU366      0.0270
    148  CG        20.1800    1.9540   -2.4520 C.3   366  LEU366      0.0019
    149  CD1       21.6560    2.3020   -2.4390 C.3   366  LEU366      0.0001
    150  CD2       19.9020    0.6860   -1.6250 C.3   366  LEU366      0.0001
    151  N         21.7890    1.2880    2.9970 N.3   371  PRO371     -0.2102
    152  CA        22.7060    0.6700    2.0250 C.3   371  PRO371      0.1504
    153  C         23.3020   -0.6650    2.5090 C.2   371  PRO371      0.2575
    154  O         23.4890   -1.5820    1.7070 O.2   371  PRO371     -0.2718
    155  CB        23.8000    1.7290    1.8700 C.3   371  PRO371      0.0282
    156  CG        23.0620    3.0170    2.0530 C.3   371  PRO371      0.0208
    157  CD        22.0600    2.7310    3.1560 C.3   371  PRO371      0.0893
    158  N         23.5870   -0.7670    3.8110 N.am  372  ASP372     -0.1974
    159  CA        24.2030   -1.9800    4.3640 C.3   372  ASP372      0.1708
    160  C         23.3030   -3.2100    4.2710 C.2   372  ASP372      0.2293
    161  O         23.7880   -4.3430    4.2710 O.2   372  ASP372     -0.2864
    162  CB        24.6140   -1.7550    5.8180 C.3   372  ASP372      0.1436
    163  CG        25.8010   -0.8150    5.9500 C.2   372  ASP372      0.3671
    164  OD1       26.6060   -0.7310    4.9950 O.co2 372  ASP372     -0.2456
    165  OD2       25.9200   -0.1710    7.0070 O.co2 372  ASP372     -0.2456
    166  N         21.0520   -3.6220    1.7290 N.3   374  ALA374     -0.1231
    167  CA        20.9850   -3.9360    0.3100 C.3   374  ALA374      0.1694
    168  C         22.2400   -4.6360   -0.1980 C.2   374  ALA374      0.2592
    169  O         22.1830   -5.3010   -1.2210 O.2   374  ALA374     -0.2718
    170  CB        20.7450   -2.6760   -0.5130 C.3   374  ALA374      0.0304
    171  N         23.3680   -4.4590    0.4960 N.am  375  TYR375     -0.1976
    172  CA        24.6630   -4.9590    0.0140 C.3   375  TYR375      0.1639
    173  C         24.6550   -6.4600   -0.2780 C.2   375  TYR375      0.2290
    174  O         24.1540   -7.2440    0.5190 O.2   375  TYR375     -0.2864
    175  CB        25.8000   -4.5620    0.9760 C.3   375  TYR375      0.0560
    176  CG        27.1530   -5.0170    0.5010 C.ar  375  TYR375     -0.0198
    177  CD1       27.8620   -4.2780   -0.4410 C.ar  375  TYR375     -0.0009
    178  CD2       27.7280   -6.1890    0.9970 C.ar  375  TYR375     -0.0009
    179  CE1       29.1000   -4.7080   -0.9050 C.ar  375  TYR375      0.0417
    180  CE2       28.9590   -6.6090    0.5630 C.ar  375  TYR375      0.0417
    181  CZ        29.6310   -5.8850   -0.3990 C.ar  375  TYR375      0.1957
    182  OH        30.8660   -6.3290   -0.8200 O.3   375  TYR375     -0.2866
    183  N         25.5840   -6.3780   -7.4150 N.3   379  PRO379     -0.2102
    184  CA        26.2240   -5.3600   -8.2590 C.3   379  PRO379      0.1504
    185  C         27.5470   -5.8430   -8.8330 C.2   379  PRO379      0.2575
    186  O         27.9150   -5.4650   -9.9590 O.2   379  PRO379     -0.2718
    187  CB        26.4420   -4.1790   -7.2970 C.3   379  PRO379      0.0282
    188  CG        26.2750   -4.7460   -5.9040 C.3   379  PRO379      0.0208
    189  CD        25.3000   -5.8750   -6.0580 C.3   379  PRO379      0.0893
    190  N         28.2330   -6.7000   -8.0860 N.am  380  TYR380     -0.1977
    191  CA        29.5080   -7.2600   -8.5290 C.3   380  TYR380      0.1639
    192  C         29.3210   -8.1770   -9.7350 C.2   380  TYR380      0.2290
    193  O         29.9860   -8.0280  -10.7600 O.2   380  TYR380     -0.2864
    194  CB        30.1360   -8.1050   -7.4130 C.3   380  TYR380      0.0560
    195  CG        30.5990   -7.3230   -6.2110 C.ar  380  TYR380     -0.0198
    196  CD1       29.6900   -6.8540   -5.2510 C.ar  380  TYR380     -0.0009
    197  CD2       31.9520   -7.0600   -6.0340 C.ar  380  TYR380     -0.0009
    198  CE1       30.1270   -6.1140   -4.1500 C.ar  380  TYR380      0.0417
    199  CE2       32.4080   -6.3630   -4.9340 C.ar  380  TYR380      0.0417
    200  CZ        31.4960   -5.8780   -3.9980 C.ar  380  TYR380      0.1957
    201  OH        31.9340   -5.1670   -2.9020 O.3   380  TYR380     -0.2866
@<TRIPOS>BOND
     1   107   105   ar
     2   107   106   ar
     3   105   103   ar
     4   106   104   ar
     5   135   133    1
     6   103   102   ar
     7   103   101   ar
     8   104   101   ar
     9   102   100   ar
    10   101    99   ar
    11   133   132    1
    12   133   134    1
    13   132   129    1
    14   100    99   ar
    15    99    98    1
    16    97    96    2
    17   129   128    1
    18   129   130    1
    19    96    95    1
    20   130   131    2
    21    98    95    1
    22   193   192    2
    23   111   110    2
    24   110   109    1
    25    95    94    1
    26   186   185    2
    27   192   191    1
    28   108   109    1
    29    94    85   am
    30   185   184    1
    31   185   190   am
    32   109   112    1
    33    78    77    2
    34   136   137    1
    35   191   190    1
    36   191   194    1
    37   184   183    1
    38   184   187    1
    39    85    86    2
    40    85    84    1
    41    77    76    1
    42    83    84    1
    43   112   113    1
    44   139   138    2
    45   137   138    1
    46   137   140    1
    47    79    76    1
    48    79    80    1
    49   183   189    1
    50   194   195    1
    51   187   188    1
    52    84    87    1
    53    76    75    1
    54    82    80   ar
    55   141   140    1
    56    80    81   ar
    57   113   114    1
    58   140   142    1
    59   195   197   ar
    60   195   196   ar
    61   115   114   ar
    62   189   188    1
    63   197   199   ar
    64    75    63   am
    65    87    88    1
    66   114   116   ar
    67   119   120    2
    68   119   118    1
    69    64    63    2
    70    63    62    1
    71   196   198   ar
    72    88    89   ar
    73    88    90   ar
    74   199   200   ar
    75    89    91   ar
    76   117   118    1
    77    90    92   ar
    78    61    62    1
    79   118   121    1
    80    62    65    1
    81   198   200   ar
    82    91    93   ar
    83   200   201    1
    84    92    93   ar
    85   143   144    1
    86    60    58   ar
    87    57    56    1
    88    57    58    1
    89    56    53    1
    90   121   122    1
    91    71    73   ar
    92    71    68   ar
    93    58    59   ar
    94    65    66    1
    95    73    74   ar
    96   148   149    1
    97   148   147    1
    98   148   150    1
    99    68    66   ar
   100    68    70   ar
   101   123   122   ar
   102   123   125   ar
   103   144   147    1
   104   144   145    1
   105    66    67   ar
   106    55    54    2
   107    74    72   ar
   108   122   124   ar
   109    18    16   am
   110    53    54    1
   111    53    52    1
   112    70    72   ar
   113    70    69   ar
   114   145   146    2
   115    67    69   ar
   116   169   168    2
   117   125   127   ar
   118   179   177   ar
   119   179   181   ar
   120    52    46   am
   121   182   181    1
   122    16    17    2
   123    16    15    1
   124   124   126   ar
   125   170   167    1
   126   177   176   ar
   127   181   180   ar
   128   173   172    1
   129   173   174    2
   130   168   167    1
   131   168   171   am
   132   172   171    1
   133   172   175    1
   134   127   126   ar
   135   167   166    1
   136    46    47    2
   137    46    45    1
   138    51    50    1
   139    15    14    1
   140   176   175    1
   141   176   178   ar
   142   180   178   ar
   143    43    42    2
   144    45    44    1
   145    45    48    1
   146    42    41    1
   147    42    44   am
   148    50    49    1
   149    23    20    1
   150    41    40    1
   151    40    38   am
   152    14    11    1
   153   154   153    2
   154   155   152    1
   155   155   156    1
   156    20    21    1
   157    20    19    1
   158    38    37    1
   159    38    39    2
   160   152   153    1
   161   152   151    1
   162   156   157    1
   163    49    48    1
   164    22    21    2
   165    37    36    1
   166   153   158   am
   167    36    26   am
   168    11    12    1
   169    11    10    1
   170    19    12   am
   171   151   157    1
   172    12    13    2
   173    30    32   ar
   174    30    29   ar
   175    28    29    1
   176    28    25    1
   177   158   159    1
   178    32    34   ar
   179    26    25    1
   180    26    27    2
   181    29    31   ar
   182     8     7    2
   183   161   160    2
   184   160   159    1
   185   159   162    1
   186    25    24    1
   187    34    35    1
   188    34    33   ar
   189    31    33   ar
   190   164   163   ar
   191     7     9   am
   192     7     6    1
   193   162   163    1
   194   163   165   ar
   195     6     5    1
   196     3     2    1
   197     3     4    2
   198     2     5    1
   199     2     1    1
