@<TRIPOS>MOLECULE
tmp/3fh7A00.pdb
 239 237 0 0 0
SMALL
GASTEIGER

@<TRIPOS>ATOM
      1  N         35.6180   89.5040    8.7010 N.3   131  GLN131     -0.1245
      2  CA        35.0780   89.0090    7.4520 C.3   131  GLN131      0.1566
      3  C         33.9100   89.9030    7.0220 C.2   131  GLN131      0.2260
      4  O         32.7840   89.7430    7.5160 O.2   131  GLN131     -0.2867
      5  CB        34.6480   87.5340    7.5600 C.3   131  GLN131      0.0367
      6  CG        34.0050   87.0070    6.2790 C.3   131  GLN131      0.0905
      7  CD        34.9580   87.1170    5.0950 C.2   131  GLN131      0.2608
      8  OE1       35.9750   86.4060    5.0440 O.2   131  GLN131     -0.2717
      9  NE2       34.6560   88.0310    4.1450 N.am  131  GLN131     -0.0878
     10  N         32.5360   90.5460    3.8430 N.3   133  GLN133     -0.1231
     11  CA        31.6300   90.1540    2.7790 C.3   133  GLN133      0.1698
     12  C         30.4310   89.3720    3.3640 C.2   133  GLN133      0.2592
     13  O         30.6230   88.5350    4.2280 O.2   133  GLN133     -0.2718
     14  CB        32.3440   89.3490    1.6820 C.3   133  GLN133      0.0381
     15  CG        31.5180   89.2580    0.3800 C.3   133  GLN133      0.0905
     16  CD        32.1890   88.4390   -0.6870 C.2   133  GLN133      0.2608
     17  OE1       33.0580   87.6320   -0.3920 O.2   133  GLN133     -0.2717
     18  NE2       31.7790   88.6230   -1.9310 N.am  133  GLN133     -0.0878
     19  N         29.1970   89.6580    2.9390 N.am  134  ALA134     -0.1980
     20  CA        28.8170   90.6850    1.9750 C.3   134  ALA134      0.1597
     21  C         28.6520   92.0620    2.6090 C.2   134  ALA134      0.2287
     22  O         29.1760   93.0710    2.0900 O.2   134  ALA134     -0.2864
     23  CB        27.4790   90.2600    1.2870 C.3   134  ALA134      0.0319
     24  N         34.8890   80.1140    5.7560 N.3   264  TYR264     -0.1227
     25  CA        34.9130   79.7580    4.3330 C.3   264  TYR264      0.1736
     26  C         36.2590   79.1470    3.9120 C.2   264  TYR264      0.2596
     27  O         37.2280   79.1750    4.6920 O.2   264  TYR264     -0.2718
     28  CB        34.6380   80.9940    3.5040 C.3   264  TYR264      0.0548
     29  CG        33.2800   81.6160    3.7430 C.ar  264  TYR264     -0.0200
     30  CD1       32.1680   81.2020    3.0090 C.ar  264  TYR264     -0.0009
     31  CD2       33.1090   82.6230    4.6970 C.ar  264  TYR264     -0.0009
     32  CE1       30.9080   81.7790    3.2180 C.ar  264  TYR264      0.0417
     33  CE2       31.8480   83.2150    4.9140 C.ar  264  TYR264      0.0417
     34  CZ        30.7590   82.7860    4.1720 C.ar  264  TYR264      0.1957
     35  OH        29.5190   83.3670    4.3610 O.3   264  TYR264     -0.2866
     36  N         36.3160   78.6210    2.6940 N.am  265  GLY265     -0.1942
     37  CA        37.5600   78.0650    2.1670 C.3   265  GLY265      0.2014
     38  C         38.6160   79.1640    1.9820 C.2   265  GLY265      0.2639
     39  O         39.7910   78.9980    2.3320 O.2   265  GLY265     -0.2714
     40  N         38.1730   80.3070    1.4740 N.am  266  GLY266     -0.1939
     41  CA        39.0750   81.3920    1.1390 C.3   266  GLY266      0.2014
     42  C         38.3030   82.7030    1.0980 C.2   266  GLY266      0.2639
     43  O         37.0880   82.6940    1.0930 O.2   266  GLY266     -0.2714
     44  N         39.0170   83.8220    1.0670 N.am  267  MET267     -0.1963
     45  CA        38.4040   85.1360    0.9300 C.3   267  MET267      0.1736
     46  C         39.4400   86.0090    0.2420 C.2   267  MET267      0.2616
     47  O         40.5720   86.1460    0.7260 O.2   267  MET267     -0.2715
     48  CB        38.0120   85.7480    2.2790 C.3   267  MET267      0.0427
     49  CG        37.5500   87.2180    2.1720 C.3   267  MET267      0.0599
     50  SD        36.0490   87.2480    1.2030 S.3   267  MET267     -0.1393
     51  CE        36.1420   88.8190    0.3430 C.3   267  MET267      0.0692
     52  N         39.0480   86.5750   -0.8970 N.am  268  GLU268     -0.1977
     53  CA        39.9840   87.2570   -1.8010 C.3   268  GLU268      0.1602
     54  C         40.3620   88.6990   -1.3590 C.2   268  GLU268      0.2287
     55  O         40.3630   89.6340   -2.1610 O.2   268  GLU268     -0.2864
     56  CB        39.3680   87.2770   -3.1900 C.3   268  GLU268      0.0415
     57  CG        38.1140   88.2120   -3.2760 C.3   268  GLU268      0.1163
     58  CD        36.7730   87.5100   -3.0220 C.2   268  GLU268      0.3649
     59  OE1       36.7200   86.4290   -2.3770 O.co2 268  GLU268     -0.2457
     60  OE2       35.7410   88.0490   -3.4890 O.co2 268  GLU268     -0.2457
     61  N         41.3030   79.9490   -7.1800 N.3   292  HIS292     -0.1226
     62  CA        40.0430   80.6930   -7.1620 C.3   292  HIS292      0.1752
     63  C         40.2420   82.0990   -6.5370 C.2   292  HIS292      0.2595
     64  O         39.8260   83.1060   -7.1170 O.2   292  HIS292     -0.2718
     65  CB        38.9940   79.9010   -6.3770 C.3   292  HIS292      0.0759
     66  CG        37.6740   80.5960   -6.2620 C.ar  292  HIS292      0.0818
     67  ND1       36.5990   80.2790   -7.0630 N.ar  292  HIS292     -0.2268
     68  CD2       37.2590   81.6010   -5.4490 C.ar  292  HIS292      0.1154
     69  CE1       35.5770   81.0590   -6.7520 C.ar  292  HIS292      0.1986
     70  NE2       35.9590   81.8840   -5.7920 N.ar  292  HIS292     -0.2212
     71  N         40.8460   82.1590   -5.3470 N.am  293  GLU293     -0.1979
     72  CA        41.0960   83.4590   -4.6860 C.3   293  GLU293      0.1602
     73  C         42.0160   84.3710   -5.5290 C.2   293  GLU293      0.2287
     74  O         41.7600   85.5730   -5.6580 O.2   293  GLU293     -0.2864
     75  CB        41.7050   83.2710   -3.2840 C.3   293  GLU293      0.0415
     76  CG        40.8560   82.4170   -2.3260 C.3   293  GLU293      0.1163
     77  CD        39.3470   82.7540   -2.3640 C.2   293  GLU293      0.3649
     78  OE1       38.9680   83.9410   -2.4840 O.co2 293  GLU293     -0.2457
     79  OE2       38.5350   81.8120   -2.2680 O.co2 293  GLU293     -0.2457
     80  N         40.0450   86.0720   -8.2850 N.3   296  HIS296     -0.1241
     81  CA        39.3230   87.2490   -7.8190 C.3   296  HIS296      0.1621
     82  C         40.0750   88.5630   -7.9330 C.2   296  HIS296      0.2264
     83  O         39.4400   89.6170   -7.9080 O.2   296  HIS296     -0.2867
     84  CB        38.8590   87.0940   -6.3730 C.3   296  HIS296      0.0745
     85  CG        37.5560   86.3820   -6.2270 C.ar  296  HIS296      0.0817
     86  ND1       36.4210   86.7470   -6.9280 N.ar  296  HIS296     -0.2268
     87  CD2       37.2000   85.3330   -5.4480 C.ar  296  HIS296      0.1154
     88  CE1       35.4180   85.9610   -6.5720 C.ar  296  HIS296      0.1986
     89  NE2       35.8620   85.1000   -5.6740 N.ar  296  HIS296     -0.2212
     90  N         24.5400   92.9880   -4.6200 N.3   308  TRP308     -0.1227
     91  CA        24.6450   91.5710   -4.3220 C.3   308  TRP308      0.1737
     92  C         23.7020   90.6980   -5.1530 C.2   308  TRP308      0.2595
     93  O         23.8850   89.4950   -5.1970 O.2   308  TRP308     -0.2718
     94  CB        24.4940   91.3340   -2.8130 C.3   308  TRP308      0.0564
     95  CG        25.5980   92.0330   -2.0790 C.ar  308  TRP308      0.0003
     96  CD1       25.4860   93.1240   -1.2620 C.ar  308  TRP308      0.0946
     97  CD2       26.9960   91.7320   -2.1700 C.ar  308  TRP308      0.0152
     98  NE1       26.7380   93.5000   -0.8060 N.ar  308  TRP308     -0.2442
     99  CE2       27.6810   92.6630   -1.3530 C.ar  308  TRP308      0.0810
    100  CE3       27.7370   90.7430   -2.8410 C.ar  308  TRP308      0.0012
    101  CZ2       29.0850   92.6490   -1.2020 C.ar  308  TRP308      0.0191
    102  CZ3       29.1330   90.7320   -2.6880 C.ar  308  TRP308      0.0001
    103  CH2       29.7840   91.6810   -1.8740 C.ar  308  TRP308      0.0015
    104  N         22.7080   91.3030   -5.8140 N.am  309  ASP309     -0.1974
    105  CA        21.8200   90.5580   -6.7100 C.3   309  ASP309      0.1709
    106  C         22.6440   90.0210   -7.8680 C.2   309  ASP309      0.2293
    107  O         22.2660   89.0240   -8.4980 O.2   309  ASP309     -0.2864
    108  CB        20.7170   91.4650   -7.3010 C.3   309  ASP309      0.1436
    109  CG        19.7030   91.9500   -6.2600 C.2   309  ASP309      0.3671
    110  OD1       19.6310   91.4410   -5.1320 O.co2 309  ASP309     -0.2456
    111  OD2       18.9340   92.8520   -6.5950 O.co2 309  ASP309     -0.2456
    112  N         25.8190   88.9740   -7.7170 N.3   311  PHE311     -0.1227
    113  CA        26.9520   88.2280   -7.1370 C.3   311  PHE311      0.1736
    114  C         27.5080   87.1960   -8.1030 C.2   311  PHE311      0.2595
    115  O         28.7250   87.0120   -8.1700 O.2   311  PHE311     -0.2718
    116  CB        26.5080   87.5860   -5.8220 C.3   311  PHE311      0.0547
    117  CG        27.5810   86.8370   -5.0730 C.ar  311  PHE311     -0.0202
    118  CD1       28.7760   87.4530   -4.6880 C.ar  311  PHE311     -0.0042
    119  CD2       27.3590   85.5060   -4.6880 C.ar  311  PHE311     -0.0042
    120  CE1       29.7510   86.7480   -3.9520 C.ar  311  PHE311     -0.0003
    121  CE2       28.3330   84.7810   -3.9660 C.ar  311  PHE311     -0.0003
    122  CZ        29.5240   85.4130   -3.5850 C.ar  311  PHE311     -0.0000
    123  N         26.6410   86.5410   -8.8790 N.am  312  TRP312     -0.1976
    124  CA        27.1290   85.5660   -9.8700 C.3   312  TRP312      0.1640
    125  C         28.2160   86.1230  -10.8040 C.2   312  TRP312      0.2290
    126  O         29.0540   85.3630  -11.2850 O.2   312  TRP312     -0.2864
    127  CB        25.9640   84.9930  -10.7100 C.3   312  TRP312      0.0576
    128  CG        25.6090   85.8130  -11.9410 C.ar  312  TRP312      0.0006
    129  CD1       24.7080   86.8370  -12.0060 C.ar  312  TRP312      0.0946
    130  CD2       26.1540   85.6760  -13.2710 C.ar  312  TRP312      0.0152
    131  NE1       24.6690   87.3480  -13.2710 N.ar  312  TRP312     -0.2442
    132  CE2       25.5280   86.6480  -14.0740 C.ar  312  TRP312      0.0810
    133  CE3       27.1000   84.8130  -13.8570 C.ar  312  TRP312      0.0012
    134  CZ2       25.8090   86.7950  -15.4480 C.ar  312  TRP312      0.0191
    135  CZ3       27.3920   84.9540  -15.2320 C.ar  312  TRP312      0.0001
    136  CH2       26.7480   85.9450  -16.0050 C.ar  312  TRP312      0.0015
    137  N         31.3800   85.4060   -8.9640 N.3   315  GLU315     -0.1245
    138  CA        31.7450   83.9970   -8.7450 C.3   315  GLU315      0.1567
    139  C         31.8470   83.1390  -10.0050 C.2   315  GLU315      0.2260
    140  O         32.7770   82.3350  -10.1370 O.2   315  GLU315     -0.2867
    141  CB        30.8360   83.3500   -7.6810 C.3   315  GLU315      0.0388
    142  CG        30.9250   84.0890   -6.3290 C.3   315  GLU315      0.1160
    143  CD        32.3410   84.1030   -5.7520 C.2   315  GLU315      0.3649
    144  OE1       33.1640   83.2230   -6.0760 O.co2 315  GLU315     -0.2457
    145  OE2       32.6540   85.0000   -4.9690 O.co2 315  GLU315     -0.2457
    146  N         16.3400   81.2420   -4.7670 N.3   359  PHE359     -0.1241
    147  CA        17.7980   81.2620   -4.5920 C.3   359  PHE359      0.1605
    148  C         18.4830   80.3440   -5.6060 C.2   359  PHE359      0.2264
    149  O         19.6870   80.1950   -5.5550 O.2   359  PHE359     -0.2867
    150  CB        18.2490   80.8150   -3.1790 C.3   359  PHE359      0.0534
    151  CG        17.7020   81.6480   -2.0290 C.ar  359  PHE359     -0.0203
    152  CD1       17.1100   82.9070   -2.2410 C.ar  359  PHE359     -0.0042
    153  CD2       17.8290   81.1790   -0.7130 C.ar  359  PHE359     -0.0042
    154  CE1       16.6170   83.6640   -1.1450 C.ar  359  PHE359     -0.0003
    155  CE2       17.3400   81.9250    0.3840 C.ar  359  PHE359     -0.0003
    156  CZ        16.7330   83.1680    0.1630 C.ar  359  PHE359     -0.0000
    157  N         17.8830   80.8770   -8.7890 N.3   361  LYS361     -0.1231
    158  CA        18.0390   81.8200   -9.8880 C.3   361  LYS361      0.1693
    159  C         19.4820   82.3280   -9.9240 C.2   361  LYS361      0.2591
    160  O         20.1050   82.4820   -8.8770 O.2   361  LYS361     -0.2718
    161  CB        17.0960   83.0130   -9.6950 C.3   361  LYS361      0.0285
    162  CG        15.5960   82.6470   -9.6860 C.3   361  LYS361      0.0035
    163  CD        14.7700   83.9000   -9.4250 C.3   361  LYS361      0.0206
    164  CE        13.2710   83.6700   -9.5820 C.3   361  LYS361      0.1093
    165  NZ        12.5610   84.9960   -9.5620 N.3   361  LYS361     -0.1314
    166  N         20.0020   82.5860  -11.1270 N.am  362  LEU362     -0.1980
    167  CA        21.3410   83.1510  -11.2640 C.3   362  LEU362      0.1596
    168  C         21.3830   84.5900  -10.7390 C.2   362  LEU362      0.2287
    169  O         22.1970   84.9150   -9.8700 O.2   362  LEU362     -0.2864
    170  CB        21.8100   83.0770  -12.7170 C.3   362  LEU362      0.0297
    171  CG        23.2830   83.4100  -12.9830 C.3   362  LEU362      0.0022
    172  CD1       24.2490   82.4920  -12.1840 C.3   362  LEU362      0.0001
    173  CD2       23.5720   83.3680  -14.4700 C.3   362  LEU362      0.0001
    174  N         19.5350   87.1220   -8.4890 N.3   364  VAL364     -0.1245
    175  CA        18.5780   87.0030   -7.3970 C.3   364  VAL364      0.1561
    176  C         18.0330   88.3690   -6.9820 C.2   364  VAL364      0.2260
    177  O         18.5480   89.3960   -7.4090 O.2   364  VAL364     -0.2867
    178  CB        19.1740   86.2260   -6.2000 C.3   364  VAL364      0.0252
    179  CG1       19.5900   84.7870   -6.6460 C.3   364  VAL364      0.0019
    180  CG2       20.3500   86.9760   -5.5810 C.3   364  VAL364      0.0019
    181  N         17.5600   90.3180   -3.6210 N.3   366  LEU366     -0.1245
    182  CA        17.8730   90.2160   -2.1980 C.3   366  LEU366      0.1561
    183  C         17.1450   91.1930   -1.2720 C.2   366  LEU366      0.2260
    184  O         17.5450   91.3470   -0.1110 O.2   366  LEU366     -0.2867
    185  CB        19.3820   90.2740   -1.9860 C.3   366  LEU366      0.0270
    186  CG        20.1390   89.0330   -2.4750 C.3   366  LEU366      0.0019
    187  CD1       21.6190   89.3140   -2.4550 C.3   366  LEU366      0.0001
    188  CD2       19.8270   87.7820   -1.6380 C.3   366  LEU366      0.0001
    189  N         21.8550   88.2550    2.9220 N.3   371  PRO371     -0.2102
    190  CA        22.7180   87.5940    1.9310 C.3   371  PRO371      0.1504
    191  C         23.3870   86.3220    2.4700 C.2   371  PRO371      0.2575
    192  O         23.6020   85.3870    1.6870 O.2   371  PRO371     -0.2718
    193  CB        23.7630   88.6670    1.6050 C.3   371  PRO371      0.0282
    194  CG        23.0200   89.9670    1.8380 C.3   371  PRO371      0.0208
    195  CD        22.2200   89.6730    3.0990 C.3   371  PRO371      0.0893
    196  N         23.6890   86.2880    3.7760 N.am  372  ASP372     -0.1974
    197  CA        24.2860   85.0990    4.4070 C.3   372  ASP372      0.1708
    198  C         23.3730   83.8820    4.3500 C.2   372  ASP372      0.2293
    199  O         23.8570   82.7510    4.2790 O.2   372  ASP372     -0.2864
    200  CB        24.7190   85.3680    5.8520 C.3   372  ASP372      0.1436
    201  CG        25.9510   86.2640    5.9410 C.2   372  ASP372      0.3671
    202  OD1       26.6880   86.3830    4.9460 O.co2 372  ASP372     -0.2456
    203  OD2       26.2020   86.8410    7.0120 O.co2 372  ASP372     -0.2456
    204  N         21.0340   83.4940    1.8580 N.3   374  ALA374     -0.1231
    205  CA        20.9300   83.1630    0.4340 C.3   374  ALA374      0.1694
    206  C         22.1800   82.4570   -0.1290 C.2   374  ALA374      0.2592
    207  O         22.0980   81.7460   -1.1420 O.2   374  ALA374     -0.2718
    208  CB        20.6440   84.4200   -0.3550 C.3   374  ALA374      0.0304
    209  N         23.3310   82.6820    0.5000 N.am  375  TYR375     -0.1976
    210  CA        24.6020   82.1240    0.0420 C.3   375  TYR375      0.1639
    211  C         24.5500   80.5940   -0.2310 C.2   375  TYR375      0.2290
    212  O         24.0610   79.8360    0.5800 O.2   375  TYR375     -0.2864
    213  CB        25.7200   82.4570    1.0340 C.3   375  TYR375      0.0560
    214  CG        27.0790   81.9820    0.5570 C.ar  375  TYR375     -0.0198
    215  CD1       27.8520   82.7710   -0.3100 C.ar  375  TYR375     -0.0009
    216  CD2       27.5860   80.7480    0.9620 C.ar  375  TYR375     -0.0009
    217  CE1       29.1050   82.3310   -0.7590 C.ar  375  TYR375      0.0417
    218  CE2       28.8350   80.2910    0.5230 C.ar  375  TYR375      0.0417
    219  CZ        29.5910   81.0900   -0.3370 C.ar  375  TYR375      0.1957
    220  OH        30.8260   80.6510   -0.7800 O.3   375  TYR375     -0.2866
    221  N         25.3420   80.6370   -7.4250 N.3   379  PRO379     -0.2102
    222  CA        25.9910   81.6600   -8.2550 C.3   379  PRO379      0.1504
    223  C         27.3570   81.2280   -8.8030 C.2   379  PRO379      0.2575
    224  O         27.7400   81.6590   -9.8960 O.2   379  PRO379     -0.2718
    225  CB        26.1420   82.8470   -7.2970 C.3   379  PRO379      0.0282
    226  CG        25.9820   82.2690   -5.9220 C.3   379  PRO379      0.0208
    227  CD        24.9830   81.1720   -6.1030 C.3   379  PRO379      0.0893
    228  N         28.0520   80.3610   -8.0630 N.am  380  TYR380     -0.1977
    229  CA        29.3160   79.7690   -8.4900 C.3   380  TYR380      0.1639
    230  C         29.1010   78.8460   -9.7090 C.2   380  TYR380      0.2290
    231  O         29.7390   79.0250  -10.7390 O.2   380  TYR380     -0.2864
    232  CB        29.9380   78.9430   -7.3580 C.3   380  TYR380      0.0560
    233  CG        30.4000   79.7560   -6.1540 C.ar  380  TYR380     -0.0198
    234  CD1       29.4890   80.2050   -5.1990 C.ar  380  TYR380     -0.0009
    235  CD2       31.7400   80.0630   -5.9750 C.ar  380  TYR380     -0.0009
    236  CE1       29.8960   80.9630   -4.0930 C.ar  380  TYR380      0.0417
    237  CE2       32.1640   80.8110   -4.8650 C.ar  380  TYR380      0.0417
    238  CZ        31.2390   81.2720   -3.9370 C.ar  380  TYR380      0.1957
    239  OH        31.6540   82.0240   -2.8290 O.3   380  TYR380     -0.2866
@<TRIPOS>BOND
     1   136   134   ar
     2   136   135   ar
     3   134   132   ar
     4   135   133   ar
     5   173   171    1
     6   132   131   ar
     7   132   130   ar
     8   133   130   ar
     9   131   129   ar
    10   130   128   ar
    11   171   170    1
    12   171   172    1
    13   170   167    1
    14   129   128   ar
    15   128   127    1
    16   126   125    2
    17   167   166    1
    18   167   168    1
    19   166   159   am
    20   125   124    1
    21   168   169    2
    22   231   230    2
    23   127   124    1
    24   140   139    2
    25   139   138    1
    26   159   158    1
    27   159   160    2
    28   224   223    2
    29   158   161    1
    30   158   157    1
    31   124   123    1
    32   230   229    1
    33   161   162    1
    34   162   163    1
    35   164   165    1
    36   164   163    1
    37   137   138    1
    38   123   114   am
    39   223   222    1
    40   223   228   am
    41   138   141    1
    42   107   106    2
    43   229   228    1
    44   229   232    1
    45   174   175    1
    46    80    81    1
    47   222   221    1
    48   222   225    1
    49   115   114    2
    50   114   113    1
    51    82    83    2
    52    82    81    1
    53   106   105    1
    54    81    84    1
    55   112   113    1
    56   141   142    1
    57   221   227    1
    58   177   176    2
    59   175   176    1
    60   175   178    1
    61   232   233    1
    62   108   105    1
    63   108   109    1
    64   225   226    1
    65    61    62    1
    66    62    63    1
    67    62    65    1
    68   113   116    1
    69    64    63    2
    70    67    69   ar
    71    67    66   ar
    72    86    88   ar
    73    86    85   ar
    74    69    70   ar
    75   105   104    1
    76   179   178    1
    77   111   109   ar
    78    88    89   ar
    79    63    71   am
    80    65    66    1
    81    84    85    1
    82   142   143    1
    83    66    68   ar
    84   109   110   ar
    85    85    87   ar
    86   178   180    1
    87   233   235   ar
    88   233   234   ar
    89   227   226    1
    90   144   143   ar
    91   235   237   ar
    92   116   117    1
    93   104    92   am
    94    70    68   ar
    95   143   145   ar
    96    89    87   ar
    97    74    73    2
    98   148   149    2
    99   148   147    1
   100    73    72    1
   101    71    72    1
   102   234   236   ar
   103    93    92    2
   104    92    91    1
   105   117   119   ar
   106   117   118   ar
   107   237   238   ar
   108   146   147    1
   109   119   121   ar
   110   118   120   ar
   111    72    75    1
   112    90    91    1
   113   147   150    1
   114    91    94    1
   115   236   238   ar
   116   121   122   ar
   117   120   122   ar
   118   238   239    1
   119   181   182    1
   120    60    58   ar
   121    75    76    1
   122    57    56    1
   123    57    58    1
   124    56    53    1
   125   150   151    1
   126    58    59   ar
   127   100   102   ar
   128   100    97   ar
   129    94    95    1
   130   102   103   ar
   131    78    77   ar
   132   186   187    1
   133   186   185    1
   134   186   188    1
   135    77    76    1
   136    77    79   ar
   137   152   151   ar
   138   152   154   ar
   139   182   185    1
   140   182   183    1
   141    97    95   ar
   142    97    99   ar
   143    55    54    2
   144    95    96   ar
   145   151   153   ar
   146    18    16   am
   147   103   101   ar
   148    53    54    1
   149    53    52    1
   150    99   101   ar
   151    99    98   ar
   152   183   184    2
   153    96    98   ar
   154   154   156   ar
   155   207   206    2
   156    52    46   am
   157   220   219    1
   158   217   219   ar
   159   217   215   ar
   160   153   155   ar
   161    16    17    2
   162    16    15    1
   163   208   205    1
   164   219   218   ar
   165   215   214   ar
   166   211   210    1
   167   211   212    2
   168   206   205    1
   169   206   209   am
   170   210   209    1
   171   210   213    1
   172   156   155   ar
   173    46    47    2
   174    46    45    1
   175    51    50    1
   176    15    14    1
   177   205   204    1
   178   218   216   ar
   179   214   216   ar
   180   214   213    1
   181    45    44    1
   182    45    48    1
   183    44    42   am
   184    43    42    2
   185    42    41    1
   186    41    40    1
   187    50    49    1
   188    23    20    1
   189    40    38   am
   190   193   194    1
   191   193   190    1
   192    14    11    1
   193   192   191    2
   194   194   195    1
   195   190   191    1
   196   190   189    1
   197    20    21    1
   198    20    19    1
   199    38    37    1
   200    38    39    2
   201    22    21    2
   202    37    36    1
   203    49    48    1
   204   191   196   am
   205    36    26   am
   206    11    12    1
   207    11    10    1
   208   189   195    1
   209    19    12   am
   210    30    32   ar
   211    30    29   ar
   212    32    34   ar
   213    12    13    2
   214    28    29    1
   215    28    25    1
   216    29    31   ar
   217   196   197    1
   218    26    25    1
   219    26    27    2
   220     9     7   am
   221    34    35    1
   222    34    33   ar
   223   199   198    2
   224    25    24    1
   225   198   197    1
   226   197   200    1
   227    31    33   ar
   228   202   201   ar
   229     8     7    2
   230     7     6    1
   231   200   201    1
   232   201   203   ar
   233     6     5    1
   234     3     2    1
   235     3     4    2
   236     2     5    1
   237     2     1    1
