@<TRIPOS>MOLECULE
tmp/3fh8A00.pdb
 212 209 0 0 0
SMALL
GASTEIGER

@<TRIPOS>ATOM
      1  N         35.8570   89.7910    8.5710 N.3   131  GLN131     -0.1245
      2  CA        35.3700   89.3240    7.2790 C.3   131  GLN131      0.1566
      3  C         34.1390   90.1760    6.9290 C.2   131  GLN131      0.2260
      4  O         33.0710   90.0250    7.5110 O.2   131  GLN131     -0.2867
      5  CB        35.0860   87.8170    7.2720 C.3   131  GLN131      0.0367
      6  CG        35.1670   87.1970    5.8420 C.3   131  GLN131      0.0905
      7  CD        34.1360   87.7930    4.9120 C.2   131  GLN131      0.2608
      8  OE1       34.4780   88.4530    3.9290 O.2   131  GLN131     -0.2717
      9  NE2       32.8510   87.5750    5.2260 N.am  131  GLN131     -0.0878
     10  N         32.6630   90.8330    3.6890 N.3   133  GLN133     -0.1231
     11  CA        31.7410   90.4730    2.6270 C.3   133  GLN133      0.1698
     12  C         30.5320   89.7300    3.1960 C.2   133  GLN133      0.2592
     13  O         30.7210   88.8510    4.0360 O.2   133  GLN133     -0.2718
     14  CB        32.4370   89.6110    1.5620 C.3   133  GLN133      0.0381
     15  CG        31.6160   89.4440    0.3190 C.3   133  GLN133      0.0905
     16  CD        32.2480   88.5310   -0.7080 C.2   133  GLN133      0.2608
     17  OE1       32.5180   87.3570   -0.4370 O.2   133  GLN133     -0.2717
     18  NE2       32.4330   89.0510   -1.9130 N.am  133  GLN133     -0.0878
     19  N         29.2950   90.0580    2.7980 N.am  134  ALA134     -0.1980
     20  CA        28.9210   91.1120    1.8600 C.3   134  ALA134      0.1597
     21  C         28.7710   92.4830    2.5150 C.2   134  ALA134      0.2287
     22  O         29.3090   93.4850    2.0140 O.2   134  ALA134     -0.2864
     23  CB        27.5880   90.7290    1.1840 C.3   134  ALA134      0.0319
     24  N         35.2650   80.3930    5.7110 N.3   264  TYR264     -0.1241
     25  CA        35.2810   80.2200    4.2530 C.3   264  TYR264      0.1605
     26  C         36.5680   79.5710    3.7420 C.2   264  TYR264      0.2264
     27  O         37.5860   79.5890    4.4230 O.2   264  TYR264     -0.2867
     28  CB        35.0680   81.5750    3.5680 C.3   264  TYR264      0.0534
     29  CG        33.8760   82.2990    4.1510 C.ar  264  TYR264     -0.0201
     30  CD1       32.5800   81.9450    3.7930 C.ar  264  TYR264     -0.0009
     31  CD2       34.0510   83.2850    5.1120 C.ar  264  TYR264     -0.0009
     32  CE1       31.4800   82.6010    4.3570 C.ar  264  TYR264      0.0417
     33  CE2       32.9690   83.9310    5.6830 C.ar  264  TYR264      0.0417
     34  CZ        31.6930   83.5750    5.3070 C.ar  264  TYR264      0.1957
     35  OH        30.6270   84.2040    5.9040 O.3   264  TYR264     -0.2866
     36  N         38.2630   80.7470    1.2360 N.3   266  GLY266     -0.1210
     37  CA        39.1100   81.9190    1.1120 C.3   266  GLY266      0.1956
     38  C         38.3080   83.1990    0.9870 C.2   266  GLY266      0.2612
     39  O         37.1440   83.1720    0.6170 O.2   266  GLY266     -0.2717
     40  N         38.9360   84.3210    1.3290 N.am  267  MET267     -0.1965
     41  CA        38.3970   85.6430    1.0280 C.3   267  MET267      0.1736
     42  C         39.4880   86.4550    0.3540 C.2   267  MET267      0.2616
     43  O         40.6170   86.5400    0.8620 O.2   267  MET267     -0.2715
     44  CB        37.9000   86.3660    2.2870 C.3   267  MET267      0.0427
     45  CG        37.3720   87.7830    2.0060 C.3   267  MET267      0.0599
     46  SD        35.9120   87.7500    0.9140 S.3   267  MET267     -0.1393
     47  CE        36.0900   89.3420    0.1020 C.3   267  MET267      0.0692
     48  N         39.1320   87.0590   -0.7840 N.am  268  GLU268     -0.1977
     49  CA        40.0990   87.6470   -1.7370 C.3   268  GLU268      0.1602
     50  C         40.5620   89.0580   -1.3470 C.2   268  GLU268      0.2287
     51  O         40.6760   89.9430   -2.1930 O.2   268  GLU268     -0.2864
     52  CB        39.4930   87.6890   -3.1450 C.3   268  GLU268      0.0415
     53  CG        38.2760   88.6120   -3.3010 C.3   268  GLU268      0.1163
     54  CD        36.9230   87.9250   -3.1120 C.2   268  GLU268      0.3649
     55  OE1       36.8360   86.8760   -2.4300 O.co2 268  GLU268     -0.2457
     56  OE2       35.9180   88.4680   -3.6270 O.co2 268  GLU268     -0.2457
     57  N         24.8000   93.3780   -4.7230 N.3   308  TRP308     -0.1227
     58  CA        24.9530   91.9440   -4.4390 C.3   308  TRP308      0.1737
     59  C         24.0000   91.0450   -5.2350 C.2   308  TRP308      0.2595
     60  O         24.2150   89.8370   -5.3170 O.2   308  TRP308     -0.2718
     61  CB        24.8530   91.6870   -2.9360 C.3   308  TRP308      0.0564
     62  CG        25.9880   92.3660   -2.1980 C.ar  308  TRP308      0.0003
     63  CD1       25.8980   93.4170   -1.3290 C.ar  308  TRP308      0.0946
     64  CD2       27.3800   92.0770   -2.3380 C.ar  308  TRP308      0.0152
     65  NE1       27.1510   93.7810   -0.8980 N.ar  308  TRP308     -0.2442
     66  CE2       28.0790   92.9780   -1.5100 C.ar  308  TRP308      0.0810
     67  CE3       28.1070   91.1440   -3.0910 C.ar  308  TRP308      0.0012
     68  CZ2       29.4660   92.9620   -1.3960 C.ar  308  TRP308      0.0191
     69  CZ3       29.5030   91.1310   -2.9780 C.ar  308  TRP308      0.0001
     70  CH2       30.1570   92.0360   -2.1390 C.ar  308  TRP308      0.0015
     71  N         22.9740   91.6320   -5.8600 N.am  309  ASP309     -0.1974
     72  CA        22.1250   90.8840   -6.7790 C.3   309  ASP309      0.1709
     73  C         22.9220   90.2910   -7.9400 C.2   309  ASP309      0.2293
     74  O         22.5220   89.2760   -8.5170 O.2   309  ASP309     -0.2864
     75  CB        21.0300   91.7920   -7.3630 C.3   309  ASP309      0.1436
     76  CG        19.9670   92.1860   -6.3460 C.2   309  ASP309      0.3671
     77  OD1       20.0060   91.7620   -5.1680 O.co2 309  ASP309     -0.2456
     78  OD2       19.0630   92.9560   -6.7440 O.co2 309  ASP309     -0.2456
     79  N         26.1560   89.2520   -7.8540 N.3   311  PHE311     -0.1227
     80  CA        27.2970   88.5000   -7.2840 C.3   311  PHE311      0.1736
     81  C         27.8490   87.4500   -8.2300 C.2   311  PHE311      0.2595
     82  O         29.0570   87.2040   -8.2510 O.2   311  PHE311     -0.2718
     83  CB        26.8320   87.8680   -5.9690 C.3   311  PHE311      0.0547
     84  CG        27.8930   87.1100   -5.1940 C.ar  311  PHE311     -0.0202
     85  CD1       29.1000   87.7070   -4.8560 C.ar  311  PHE311     -0.0042
     86  CD2       27.6390   85.8200   -4.7500 C.ar  311  PHE311     -0.0042
     87  CE1       30.0610   87.0100   -4.1070 C.ar  311  PHE311     -0.0003
     88  CE2       28.5850   85.1110   -4.0000 C.ar  311  PHE311     -0.0003
     89  CZ        29.7890   85.7180   -3.6600 C.ar  311  PHE311     -0.0000
     90  N         26.9890   86.8340   -9.0440 N.am  312  TRP312     -0.1976
     91  CA        27.4670   85.8350  -10.0160 C.3   312  TRP312      0.1640
     92  C         28.5480   86.3780  -10.9660 C.2   312  TRP312      0.2290
     93  O         29.3810   85.6080  -11.4460 O.2   312  TRP312     -0.2864
     94  CB        26.2990   85.2430  -10.8230 C.3   312  TRP312      0.0576
     95  CG        25.9390   86.0630  -12.0400 C.ar  312  TRP312      0.0006
     96  CD1       25.0370   87.0840  -12.1010 C.ar  312  TRP312      0.0946
     97  CD2       26.4530   85.8930  -13.3730 C.ar  312  TRP312      0.0152
     98  NE1       24.9870   87.5880  -13.3820 N.ar  312  TRP312     -0.2442
     99  CE2       25.8450   86.8800  -14.1810 C.ar  312  TRP312      0.0810
    100  CE3       27.3960   85.0370  -13.9520 C.ar  312  TRP312      0.0012
    101  CZ2       26.1290   87.0120  -15.5620 C.ar  312  TRP312      0.0191
    102  CZ3       27.6880   85.1680  -15.3320 C.ar  312  TRP312      0.0001
    103  CH2       27.0460   86.1510  -16.1150 C.ar  312  TRP312      0.0015
    104  N         31.6500   85.7160   -9.0470 N.3   315  GLU315     -0.1245
    105  CA        31.9840   84.2990   -8.8350 C.3   315  GLU315      0.1567
    106  C         32.0850   83.4500  -10.0970 C.2   315  GLU315      0.2260
    107  O         33.0070   82.6390  -10.2210 O.2   315  GLU315     -0.2867
    108  CB        31.0390   83.6620   -7.8070 C.3   315  GLU315      0.0388
    109  CG        31.1020   84.3460   -6.4380 C.3   315  GLU315      0.1160
    110  CD        32.5060   84.4910   -5.9060 C.2   315  GLU315      0.3649
    111  OE1       33.3450   83.5850   -6.1480 O.co2 315  GLU315     -0.2457
    112  OE2       32.7830   85.5180   -5.2520 O.co2 315  GLU315     -0.2457
    113  N         16.5120   81.5520   -4.6030 N.3   359  PHE359     -0.1241
    114  CA        17.9800   81.5370   -4.4010 C.3   359  PHE359      0.1605
    115  C         18.7250   80.6560   -5.4150 C.2   359  PHE359      0.2264
    116  O         19.9700   80.5960   -5.3830 O.2   359  PHE359     -0.2867
    117  CB        18.3720   81.0700   -2.9870 C.3   359  PHE359      0.0534
    118  CG        17.8340   81.9250   -1.8560 C.ar  359  PHE359     -0.0203
    119  CD1       17.2660   83.1800   -2.0750 C.ar  359  PHE359     -0.0042
    120  CD2       17.9290   81.4700   -0.5520 C.ar  359  PHE359     -0.0042
    121  CE1       16.7860   83.9390   -1.0080 C.ar  359  PHE359     -0.0003
    122  CE2       17.4630   82.2310    0.5070 C.ar  359  PHE359     -0.0003
    123  CZ        16.8870   83.4660    0.2700 C.ar  359  PHE359     -0.0000
    124  N         18.1410   81.1560   -8.7040 N.3   361  LYS361     -0.1231
    125  CA        18.2740   82.0340   -9.8430 C.3   361  LYS361      0.1693
    126  C         19.7150   82.5490   -9.8890 C.2   361  LYS361      0.2591
    127  O         20.3550   82.6830   -8.8370 O.2   361  LYS361     -0.2718
    128  CB        17.3180   83.2260   -9.7120 C.3   361  LYS361      0.0285
    129  CG        15.8290   82.8640   -9.8560 C.3   361  LYS361      0.0035
    130  CD        14.9500   84.1060   -9.5940 C.3   361  LYS361      0.0206
    131  CE        13.4590   83.8000   -9.7120 C.3   361  LYS361      0.1093
    132  NZ        12.6000   85.0110   -9.5180 N.3   361  LYS361     -0.1314
    133  N         20.2000   82.8500  -11.0870 N.am  362  LEU362     -0.1980
    134  CA        21.5660   83.3700  -11.2600 C.3   362  LEU362      0.1596
    135  C         21.6500   84.8010  -10.7560 C.2   362  LEU362      0.2287
    136  O         22.5510   85.1390   -9.9630 O.2   362  LEU362     -0.2864
    137  CB        21.9990   83.2980  -12.7140 C.3   362  LEU362      0.0297
    138  CG        23.4620   83.6740  -13.0030 C.3   362  LEU362      0.0022
    139  CD1       24.4700   82.7660  -12.2670 C.3   362  LEU362      0.0001
    140  CD2       23.7060   83.6480  -14.5100 C.3   362  LEU362      0.0001
    141  N         19.8190   87.2940   -8.4340 N.3   364  VAL364     -0.1245
    142  CA        18.8930   87.1980   -7.3100 C.3   364  VAL364      0.1561
    143  C         18.3250   88.5720   -6.9340 C.2   364  VAL364      0.2260
    144  O         18.8310   89.5990   -7.3680 O.2   364  VAL364     -0.2867
    145  CB        19.5570   86.5060   -6.0960 C.3   364  VAL364      0.0252
    146  CG1       20.0940   85.1350   -6.4980 C.3   364  VAL364      0.0019
    147  CG2       20.6520   87.3660   -5.4960 C.3   364  VAL364      0.0019
    148  N         17.7160   90.5030   -3.5840 N.3   366  LEU366     -0.1245
    149  CA        18.0080   90.4480   -2.1590 C.3   366  LEU366      0.1561
    150  C         17.2290   91.4640   -1.3110 C.2   366  LEU366      0.2260
    151  O         17.5870   91.7200   -0.1680 O.2   366  LEU366     -0.2867
    152  CB        19.5120   90.5930   -1.9420 C.3   366  LEU366      0.0270
    153  CG        20.3590   89.4530   -2.5030 C.3   366  LEU366      0.0019
    154  CD1       21.8370   89.8820   -2.5400 C.3   366  LEU366      0.0001
    155  CD2       20.1690   88.1680   -1.6810 C.3   366  LEU366      0.0001
    156  N         21.9620   88.5840    2.9490 N.3   371  PRO371     -0.2102
    157  CA        22.8120   87.8640    1.9930 C.3   371  PRO371      0.1504
    158  C         23.3870   86.5340    2.5180 C.2   371  PRO371      0.2575
    159  O         23.5350   85.5820    1.7450 O.2   371  PRO371     -0.2718
    160  CB        23.9390   88.8690    1.7030 C.3   371  PRO371      0.0282
    161  CG        23.3020   90.2170    1.9060 C.3   371  PRO371      0.0208
    162  CD        22.3660   89.9970    3.0910 C.3   371  PRO371      0.0893
    163  N         23.6910   86.4670    3.8090 N.am  372  ASP372     -0.1974
    164  CA        24.2960   85.2640    4.3980 C.3   372  ASP372      0.1708
    165  C         23.3460   84.0700    4.3660 C.2   372  ASP372      0.2293
    166  O         23.7920   82.9280    4.4150 O.2   372  ASP372     -0.2864
    167  CB        24.7650   85.5210    5.8300 C.3   372  ASP372      0.1436
    168  CG        25.9980   86.4100    5.8920 C.2   372  ASP372      0.3671
    169  OD1       26.8630   86.3000    4.9940 O.co2 372  ASP372     -0.2456
    170  OD2       26.0940   87.2060    6.8390 O.co2 372  ASP372     -0.2456
    171  N         21.1620   83.6070    1.7460 N.3   374  ALA374     -0.1231
    172  CA        21.1060   83.2540    0.3330 C.3   374  ALA374      0.1694
    173  C         22.3830   82.5670   -0.1780 C.2   374  ALA374      0.2592
    174  O         22.3300   81.8130   -1.1460 O.2   374  ALA374     -0.2718
    175  CB        20.8180   84.5100   -0.5050 C.3   374  ALA374      0.0304
    176  N         23.5120   82.8330    0.4710 N.am  375  TYR375     -0.1962
    177  CA        24.8180   82.3870   -0.0180 C.3   375  TYR375      0.1771
    178  C         24.8500   80.8660   -0.2390 C.2   375  TYR375      0.2620
    179  O         24.3820   80.1070    0.6050 O.2   375  TYR375     -0.2715
    180  CB        25.9360   82.8360    0.9370 C.3   375  TYR375      0.0574
    181  CG        27.3140   82.3980    0.4960 C.ar  375  TYR375     -0.0198
    182  CD1       27.9700   83.0410   -0.5420 C.ar  375  TYR375     -0.0009
    183  CD2       27.9630   81.3340    1.1240 C.ar  375  TYR375     -0.0009
    184  CE1       29.2320   82.6370   -0.9610 C.ar  375  TYR375      0.0417
    185  CE2       29.2330   80.9320    0.7210 C.ar  375  TYR375      0.0417
    186  CZ        29.8550   81.5770   -0.3350 C.ar  375  TYR375      0.1957
    187  OH        31.1100   81.1960   -0.7650 O.3   375  TYR375     -0.2866
    188  N         25.3980   80.4560   -1.3800 N.am  376  SER376     -0.1950
    189  CA        25.4910   79.0540   -1.7850 C.3   376  SER376      0.1924
    190  C         26.4030   78.9040   -2.9990 C.2   376  SER376      0.2314
    191  O         26.9220   79.8940   -3.5190 O.2   376  SER376     -0.2863
    192  CB        24.0980   78.5160   -2.1550 C.3   376  SER376      0.2116
    193  OG        23.7600   78.8240   -3.5080 O.3   376  SER376     -0.2180
    194  N         25.6490   80.8910   -7.4240 N.3   379  PRO379     -0.2102
    195  CA        26.2920   81.9200   -8.2600 C.3   379  PRO379      0.1504
    196  C         27.6370   81.4650   -8.8420 C.2   379  PRO379      0.2575
    197  O         27.9990   81.8820   -9.9480 O.2   379  PRO379     -0.2718
    198  CB        26.4920   83.0880   -7.2890 C.3   379  PRO379      0.0282
    199  CG        26.3830   82.4840   -5.9140 C.3   379  PRO379      0.0208
    200  CD        25.3810   81.3900   -6.0640 C.3   379  PRO379      0.0893
    201  N         28.3510   80.6210   -8.0950 N.am  380  TYR380     -0.1977
    202  CA        29.6240   80.0370   -8.5310 C.3   380  TYR380      0.1639
    203  C         29.4380   79.1160   -9.7350 C.2   380  TYR380      0.2290
    204  O         30.1020   79.2850  -10.7750 O.2   380  TYR380     -0.2864
    205  CB        30.2830   79.2330   -7.3940 C.3   380  TYR380      0.0560
    206  CG        30.7500   80.0300   -6.1960 C.ar  380  TYR380     -0.0198
    207  CD1       29.8630   80.4530   -5.2100 C.ar  380  TYR380     -0.0009
    208  CD2       32.0920   80.3110   -6.0230 C.ar  380  TYR380     -0.0009
    209  CE1       30.2930   81.1620   -4.1210 C.ar  380  TYR380      0.0417
    210  CE2       32.5340   81.0040   -4.9400 C.ar  380  TYR380      0.0417
    211  CZ        31.6370   81.4430   -3.9880 C.ar  380  TYR380      0.1957
    212  OH        32.0740   82.1630   -2.9080 O.3   380  TYR380     -0.2866
@<TRIPOS>BOND
     1   103   101   ar
     2   103   102   ar
     3   101    99   ar
     4   102   100   ar
     5   140   138    1
     6    99    98   ar
     7    99    97   ar
     8   100    97   ar
     9    98    96   ar
    10    97    95   ar
    11   138   137    1
    12   138   139    1
    13   137   134    1
    14    96    95   ar
    15    95    94    1
    16    93    92    2
    17   134   133    1
    18   134   135    1
    19   133   126   am
    20    92    91    1
    21    94    91    1
    22   204   203    2
    23   135   136    2
    24   107   106    2
    25   106   105    1
    26    91    90    1
    27   197   196    2
    28   126   125    1
    29   126   127    2
    30   129   128    1
    31   129   130    1
    32   125   128    1
    33   125   124    1
    34   203   202    1
    35   131   130    1
    36   131   132    1
    37   104   105    1
    38    90    81   am
    39   196   195    1
    40   196   201   am
    41   105   108    1
    42   202   201    1
    43   202   205    1
    44    74    73    2
    45   141   142    1
    46   195   194    1
    47   195   198    1
    48    82    81    2
    49    81    80    1
    50    73    72    1
    51    79    80    1
    52   108   109    1
    53   194   200    1
    54   205   206    1
    55   144   143    2
    56    75    72    1
    57    75    76    1
    58   142   143    1
    59   142   145    1
    60   198   199    1
    61    80    83    1
    62    72    71    1
    63    78    76   ar
    64   146   145    1
    65   109   110    1
    66    76    77   ar
    67   206   208   ar
    68   206   207   ar
    69   111   110   ar
    70   145   147    1
    71   200   199    1
    72   208   210   ar
    73    83    84    1
    74   110   112   ar
    75    71    59   am
    76   115   116    2
    77   115   114    1
    78    60    59    2
    79    59    58    1
    80   207   209   ar
    81    84    85   ar
    82    84    86   ar
    83   210   211   ar
    84    85    87   ar
    85    86    88   ar
    86    57    58    1
    87   113   114    1
    88    58    61    1
    89   114   117    1
    90   209   211   ar
    91    87    89   ar
    92    88    89   ar
    93   211   212    1
    94    56    54   ar
    95   148   149    1
    96   191   190    2
    97   193   192    1
    98    53    52    1
    99    53    54    1
   100    52    49    1
   101    54    55   ar
   102    67    69   ar
   103    67    64   ar
   104   190   189    1
   105   117   118    1
   106    69    70   ar
   107    61    62    1
   108   154   153    1
   109   153   152    1
   110   153   155    1
   111    64    62   ar
   112    64    66   ar
   113    62    63   ar
   114    51    50    2
   115   149   152    1
   116   149   150    1
   117   192   189    1
   118    70    68   ar
   119   119   118   ar
   120   119   121   ar
   121    18    16   am
   122   118   120   ar
   123   189   188    1
   124    49    50    1
   125    49    48    1
   126    66    68   ar
   127    66    65   ar
   128   188   178   am
   129    63    65   ar
   130   150   151    2
   131   174   173    2
   132   121   123   ar
   133   184   182   ar
   134   184   186   ar
   135    48    42   am
   136   187   186    1
   137    16    17    2
   138    16    15    1
   139   120   122   ar
   140   182   181   ar
   141   175   172    1
   142   186   185   ar
   143   178   177    1
   144   178   179    2
   145   173   172    1
   146   173   176   am
   147   177   176    1
   148   177   180    1
   149    47    46    1
   150   123   122   ar
   151    15    14    1
   152   172   171    1
   153    42    43    2
   154    42    41    1
   155   181   180    1
   156   181   183   ar
   157    39    38    2
   158   185   183   ar
   159    46    45    1
   160    38    37    1
   161    38    40   am
   162    41    40    1
   163    41    44    1
   164    37    36    1
   165    23    20    1
   166    14    11    1
   167   160   161    1
   168   160   157    1
   169   159   158    2
   170    20    21    1
   171    20    19    1
   172   161   162    1
   173   157   158    1
   174   157   156    1
   175    45    44    1
   176    22    21    2
   177   158   163   am
   178    11    12    1
   179    11    10    1
   180    19    12   am
   181   156   162    1
   182    12    13    2
   183    28    29    1
   184    28    25    1
   185    26    25    1
   186    26    27    2
   187    30    29   ar
   188    30    32   ar
   189   163   164    1
   190     8     7    2
   191    29    31   ar
   192    25    24    1
   193    32    34   ar
   194   165   164    1
   195   165   166    2
   196   164   167    1
   197     7     9   am
   198     7     6    1
   199   169   168   ar
   200    31    33   ar
   201    34    33   ar
   202    34    35    1
   203   167   168    1
   204     6     5    1
   205   168   170   ar
   206     3     2    1
   207     3     4    2
   208     5     2    1
   209     2     1    1
