@<TRIPOS>MOLECULE
tmp/3fheA00.pdb
 241 238 0 0 0
SMALL
GASTEIGER

@<TRIPOS>ATOM
      1  N         35.7310   89.1520    8.6380 N.3   131  GLN131     -0.1245
      2  CA        35.1840   88.6840    7.3690 C.3   131  GLN131      0.1566
      3  C         34.0300   89.6300    6.9870 C.2   131  GLN131      0.2260
      4  O         32.9320   89.5480    7.5400 O.2   131  GLN131     -0.2867
      5  CB        34.7290   87.2330    7.4880 C.3   131  GLN131      0.0367
      6  CG        33.8840   86.7290    6.3310 C.3   131  GLN131      0.0905
      7  CD        34.6540   86.7880    5.0230 C.2   131  GLN131      0.2608
      8  OE1       35.8370   86.4620    4.9800 O.2   131  GLN131     -0.2717
      9  NE2       33.9850   87.1940    3.9550 N.am  131  GLN131     -0.0878
     10  N         32.7320   90.3230    3.6920 N.3   133  GLN133     -0.1231
     11  CA        31.8360   89.9170    2.6350 C.3   133  GLN133      0.1698
     12  C         30.7340   89.0710    3.2220 C.2   133  GLN133      0.2592
     13  O         31.0200   88.1200    3.9350 O.2   133  GLN133     -0.2718
     14  CB        32.5340   89.1220    1.5110 C.3   133  GLN133      0.0381
     15  CG        31.7160   89.0480    0.1760 C.3   133  GLN133      0.0905
     16  CD        32.4090   88.1770   -0.8670 C.2   133  GLN133      0.2608
     17  OE1       33.0650   87.2290   -0.5050 O.2   133  GLN133     -0.2717
     18  NE2       32.2950   88.5230   -2.1530 N.am  133  GLN133     -0.0878
     19  N         29.4720   89.3640    2.9180 N.am  134  ALA134     -0.1980
     20  CA        29.0060   90.3600    1.9670 C.3   134  ALA134      0.1597
     21  C         28.8250   91.7150    2.5950 C.2   134  ALA134      0.2287
     22  O         29.4200   92.6970    2.1210 O.2   134  ALA134     -0.2864
     23  CB        27.6410   89.9000    1.3420 C.3   134  ALA134      0.0319
     24  N         34.9900   80.0380    5.7160 N.3   264  TYR264     -0.1241
     25  CA        35.0280   79.7580    4.2890 C.3   264  TYR264      0.1605
     26  C         36.3510   79.1090    3.8640 C.2   264  TYR264      0.2264
     27  O         37.3000   79.0500    4.6520 O.2   264  TYR264     -0.2867
     28  CB        34.8580   81.0650    3.5410 C.3   264  TYR264      0.0534
     29  CG        33.5570   81.7570    3.8350 C.ar  264  TYR264     -0.0201
     30  CD1       32.3860   81.3740    3.1890 C.ar  264  TYR264     -0.0009
     31  CD2       33.5000   82.8150    4.7190 C.ar  264  TYR264     -0.0009
     32  CE1       31.1920   82.0080    3.4470 C.ar  264  TYR264      0.0417
     33  CE2       32.3160   83.4650    4.9710 C.ar  264  TYR264      0.0417
     34  CZ        31.1730   83.0510    4.3300 C.ar  264  TYR264      0.1957
     35  OH        30.0120   83.6810    4.5710 O.3   264  TYR264     -0.2866
     36  N         38.2450   80.2630    1.3540 N.3   266  GLY266     -0.1210
     37  CA        39.1080   81.4040    1.0800 C.3   266  GLY266      0.1956
     38  C         38.3150   82.7050    1.0090 C.2   266  GLY266      0.2612
     39  O         37.1340   82.6860    0.8100 O.2   266  GLY266     -0.2717
     40  N         38.9850   83.8240    1.2320 N.am  267  MET267     -0.1965
     41  CA        38.4450   85.1300    0.9880 C.3   267  MET267      0.1736
     42  C         39.5300   85.9740    0.3050 C.2   267  MET267      0.2616
     43  O         40.6470   86.1030    0.8050 O.2   267  MET267     -0.2715
     44  CB        37.9830   85.7690    2.2890 C.3   267  MET267      0.0427
     45  CG        37.4310   87.1520    2.0890 C.3   267  MET267      0.0599
     46  SD        35.9010   87.0250    1.1570 S.3   267  MET267     -0.1393
     47  CE        35.9510   88.6360    0.3250 C.3   267  MET267      0.0692
     48  N         39.1940   86.4880   -0.8780 N.am  268  GLU268     -0.1977
     49  CA        40.1490   87.1440   -1.7850 C.3   268  GLU268      0.1602
     50  C         40.5290   88.5710   -1.3490 C.2   268  GLU268      0.2287
     51  O         40.6230   89.4840   -2.1720 O.2   268  GLU268     -0.2864
     52  CB        39.5430   87.1790   -3.1780 C.3   268  GLU268      0.0415
     53  CG        38.2590   88.0860   -3.2870 C.3   268  GLU268      0.1163
     54  CD        36.9270   87.3780   -3.0950 C.2   268  GLU268      0.3649
     55  OE1       36.8530   86.3440   -2.3920 O.co2 268  GLU268     -0.2457
     56  OE2       35.9160   87.8770   -3.6390 O.co2 268  GLU268     -0.2457
     57  N         41.4370   79.8880   -7.1780 N.3   292  HIS292     -0.1226
     58  CA        40.1970   80.6410   -7.0870 C.3   292  HIS292      0.1752
     59  C         40.4390   82.0200   -6.4650 C.2   292  HIS292      0.2595
     60  O         40.0230   83.0420   -7.0290 O.2   292  HIS292     -0.2718
     61  CB        39.1670   79.8680   -6.2550 C.3   292  HIS292      0.0759
     62  CG        37.8180   80.4950   -6.2210 C.ar  292  HIS292      0.0818
     63  ND1       36.7890   80.0820   -7.0430 N.ar  292  HIS292     -0.2268
     64  CD2       37.3180   81.4890   -5.4590 C.ar  292  HIS292      0.1154
     65  CE1       35.7250   80.8140   -6.8030 C.ar  292  HIS292      0.1986
     66  NE2       36.0190   81.6760   -5.8500 N.ar  292  HIS292     -0.2212
     67  N         41.0820   82.0630   -5.3030 N.am  293  GLU293     -0.1979
     68  CA        41.2830   83.3650   -4.6500 C.3   293  GLU293      0.1602
     69  C         42.1940   84.2570   -5.5070 C.2   293  GLU293      0.2287
     70  O         41.9230   85.4460   -5.7060 O.2   293  GLU293     -0.2864
     71  CB        41.8300   83.2150   -3.2390 C.3   293  GLU293      0.0415
     72  CG        40.9910   82.3250   -2.3160 C.3   293  GLU293      0.1163
     73  CD        39.4920   82.6720   -2.2780 C.2   293  GLU293      0.3649
     74  OE1       39.1390   83.8490   -2.4210 O.co2 293  GLU293     -0.2457
     75  OE2       38.6700   81.7500   -2.0690 O.co2 293  GLU293     -0.2457
     76  N         40.2210   85.9830   -8.3460 N.3   296  HIS296     -0.1241
     77  CA        39.4820   87.1540   -7.8570 C.3   296  HIS296      0.1621
     78  C         40.2430   88.4700   -7.9100 C.2   296  HIS296      0.2264
     79  O         39.6130   89.5220   -7.8500 O.2   296  HIS296     -0.2867
     80  CB        39.0430   86.9780   -6.4120 C.3   296  HIS296      0.0745
     81  CG        37.7290   86.2950   -6.2570 C.ar  296  HIS296      0.0817
     82  ND1       36.6090   86.6760   -6.9610 N.ar  296  HIS296     -0.2268
     83  CD2       37.3550   85.2610   -5.4720 C.ar  296  HIS296      0.1154
     84  CE1       35.5930   85.9150   -6.5930 C.ar  296  HIS296      0.1986
     85  NE2       36.0280   85.0350   -5.7090 N.ar  296  HIS296     -0.2212
     86  N         24.7560   92.7610   -4.7080 N.3   308  TRP308     -0.1227
     87  CA        24.9010   91.3440   -4.4290 C.3   308  TRP308      0.1737
     88  C         23.9520   90.4570   -5.2360 C.2   308  TRP308      0.2595
     89  O         24.1390   89.2450   -5.2700 O.2   308  TRP308     -0.2718
     90  CB        24.7770   91.0790   -2.9260 C.3   308  TRP308      0.0564
     91  CG        25.8930   91.7650   -2.1630 C.ar  308  TRP308      0.0003
     92  CD1       25.7850   92.8120   -1.2800 C.ar  308  TRP308      0.0946
     93  CD2       27.2790   91.5070   -2.3160 C.ar  308  TRP308      0.0152
     94  NE1       27.0420   93.1830   -0.8290 N.ar  308  TRP308     -0.2442
     95  CE2       27.9730   92.3890   -1.4560 C.ar  308  TRP308      0.0810
     96  CE3       28.0120   90.5700   -3.0710 C.ar  308  TRP308      0.0012
     97  CZ2       29.3720   92.3760   -1.3470 C.ar  308  TRP308      0.0191
     98  CZ3       29.3910   90.5650   -2.9700 C.ar  308  TRP308      0.0001
     99  CH2       30.0580   91.4570   -2.1140 C.ar  308  TRP308      0.0015
    100  N         22.9430   91.0470   -5.8770 N.am  309  ASP309     -0.1974
    101  CA        22.0870   90.3150   -6.7840 C.3   309  ASP309      0.1709
    102  C         22.9290   89.7340   -7.9070 C.2   309  ASP309      0.2293
    103  O         22.5540   88.7250   -8.4730 O.2   309  ASP309     -0.2864
    104  CB        21.0120   91.2180   -7.4150 C.3   309  ASP309      0.1436
    105  CG        19.9730   91.7300   -6.4180 C.2   309  ASP309      0.3671
    106  OD1       19.9700   91.3340   -5.2390 O.co2 309  ASP309     -0.2456
    107  OD2       19.1450   92.5580   -6.8450 O.co2 309  ASP309     -0.2456
    108  N         26.1690   88.6840   -7.8040 N.3   311  PHE311     -0.1227
    109  CA        27.3070   87.9870   -7.1830 C.3   311  PHE311      0.1736
    110  C         27.8460   86.9410   -8.1410 C.2   311  PHE311      0.2595
    111  O         29.0710   86.7150   -8.1930 O.2   311  PHE311     -0.2718
    112  CB        26.8380   87.3670   -5.8740 C.3   311  PHE311      0.0547
    113  CG        27.8810   86.5790   -5.1090 C.ar  311  PHE311     -0.0202
    114  CD1       29.1170   87.1330   -4.7800 C.ar  311  PHE311     -0.0042
    115  CD2       27.5780   85.2950   -4.6340 C.ar  311  PHE311     -0.0042
    116  CE1       30.0370   86.4130   -4.0290 C.ar  311  PHE311     -0.0003
    117  CE2       28.5070   84.5480   -3.9050 C.ar  311  PHE311     -0.0003
    118  CZ        29.7250   85.1030   -3.5960 C.ar  311  PHE311     -0.0000
    119  N         26.9650   86.3400   -8.9490 N.am  312  TRP312     -0.1976
    120  CA        27.4340   85.3370   -9.9460 C.3   312  TRP312      0.1640
    121  C         28.5080   85.8930  -10.8750 C.2   312  TRP312      0.2290
    122  O         29.3480   85.1420  -11.4080 O.2   312  TRP312     -0.2864
    123  CB        26.2710   84.7790  -10.7920 C.3   312  TRP312      0.0576
    124  CG        25.9540   85.5940  -12.0440 C.ar  312  TRP312      0.0006
    125  CD1       25.0800   86.6360  -12.1340 C.ar  312  TRP312      0.0946
    126  CD2       26.5040   85.4230  -13.3540 C.ar  312  TRP312      0.0152
    127  NE1       25.0390   87.1130  -13.4090 N.ar  312  TRP312     -0.2442
    128  CE2       25.9020   86.3860  -14.1850 C.ar  312  TRP312      0.0810
    129  CE3       27.4230   84.5240  -13.9200 C.ar  312  TRP312      0.0012
    130  CZ2       26.2200   86.5100  -15.5440 C.ar  312  TRP312      0.0191
    131  CZ3       27.7180   84.6290  -15.2790 C.ar  312  TRP312      0.0001
    132  CH2       27.1250   85.6180  -16.0720 C.ar  312  TRP312      0.0015
    133  N         31.6090   85.1970   -8.9750 N.3   315  GLU315     -0.1245
    134  CA        31.9620   83.8010   -8.7450 C.3   315  GLU315      0.1567
    135  C         32.0850   83.0060  -10.0240 C.2   315  GLU315      0.2260
    136  O         33.0010   82.2140  -10.1580 O.2   315  GLU315     -0.2867
    137  CB        30.9730   83.1270   -7.7630 C.3   315  GLU315      0.0388
    138  CG        30.9990   83.7650   -6.3580 C.3   315  GLU315      0.1160
    139  CD        32.4150   84.0140   -5.9020 C.2   315  GLU315      0.3649
    140  OE1       33.2600   83.1060   -6.0720 O.co2 315  GLU315     -0.2457
    141  OE2       32.7120   85.1220   -5.4330 O.co2 315  GLU315     -0.2457
    142  N         16.5490   81.1270   -4.6370 N.3   359  PHE359     -0.1241
    143  CA        18.0130   81.0470   -4.4650 C.3   359  PHE359      0.1605
    144  C         18.7510   80.1540   -5.4680 C.2   359  PHE359      0.2264
    145  O         19.9920   80.0690   -5.4380 O.2   359  PHE359     -0.2867
    146  CB        18.4050   80.5650   -3.0390 C.3   359  PHE359      0.0534
    147  CG        17.8550   81.4110   -1.8800 C.ar  359  PHE359     -0.0203
    148  CD1       17.3010   82.6810   -2.0740 C.ar  359  PHE359     -0.0042
    149  CD2       17.9470   80.9290   -0.5660 C.ar  359  PHE359     -0.0042
    150  CE1       16.8300   83.4320   -0.9740 C.ar  359  PHE359     -0.0003
    151  CE2       17.4750   81.6800    0.5140 C.ar  359  PHE359     -0.0003
    152  CZ        16.9160   82.9300    0.3020 C.ar  359  PHE359     -0.0000
    153  N         18.1450   80.6340   -8.7100 N.3   361  LYS361     -0.1231
    154  CA        18.2780   81.5550   -9.8220 C.3   361  LYS361      0.1693
    155  C         19.7040   82.1040   -9.8760 C.2   361  LYS361      0.2591
    156  O         20.3160   82.3250   -8.8210 O.2   361  LYS361     -0.2718
    157  CB        17.3330   82.7440   -9.6080 C.3   361  LYS361      0.0285
    158  CG        15.8480   82.4210   -9.6070 C.3   361  LYS361      0.0035
    159  CD        15.0370   83.7230   -9.5790 C.3   361  LYS361      0.0206
    160  CE        13.5390   83.4820   -9.6210 C.3   361  LYS361      0.1093
    161  NZ        12.7820   84.7620   -9.5110 N.3   361  LYS361     -0.1314
    162  N         20.2150   82.3550  -11.0850 N.am  362  LEU362     -0.1980
    163  CA        21.5570   82.9160  -11.2570 C.3   362  LEU362      0.1596
    164  C         21.6590   84.3390  -10.7250 C.2   362  LEU362      0.2287
    165  O         22.5770   84.6570   -9.9310 O.2   362  LEU362     -0.2864
    166  CB        22.0100   82.8580  -12.7240 C.3   362  LEU362      0.0297
    167  CG        23.4880   83.2050  -13.0100 C.3   362  LEU362      0.0022
    168  CD1       24.5380   82.3060  -12.2850 C.3   362  LEU362      0.0001
    169  CD2       23.7370   83.2300  -14.5130 C.3   362  LEU362      0.0001
    170  N         19.8740   86.7300   -8.3670 N.3   364  VAL364     -0.1245
    171  CA        18.8970   86.6140   -7.2670 C.3   364  VAL364      0.1561
    172  C         18.3560   88.0150   -6.9170 C.2   364  VAL364      0.2260
    173  O         18.9280   89.0250   -7.3490 O.2   364  VAL364     -0.2867
    174  CB        19.5460   85.9710   -6.0520 C.3   364  VAL364      0.0252
    175  CG1       20.1740   84.5770   -6.4500 C.3   364  VAL364      0.0019
    176  CG2       20.6030   86.9050   -5.4870 C.3   364  VAL364      0.0019
    177  N         17.7230   90.0880   -3.6190 N.3   366  LEU366     -0.1245
    178  CA        18.0150   89.9840   -2.1940 C.3   366  LEU366      0.1561
    179  C         17.2060   90.9620   -1.3280 C.2   366  LEU366      0.2260
    180  O         17.5290   91.1590   -0.1660 O.2   366  LEU366     -0.2867
    181  CB        19.5060   90.1460   -1.9480 C.3   366  LEU366      0.0270
    182  CG        20.3340   89.0090   -2.5520 C.3   366  LEU366      0.0019
    183  CD1       21.8090   89.4430   -2.6180 C.3   366  LEU366      0.0001
    184  CD2       20.1130   87.6580   -1.7960 C.3   366  LEU366      0.0001
    185  N         21.9070   88.0070    2.9150 N.3   371  PRO371     -0.2102
    186  CA        22.7650   87.3330    1.9440 C.3   371  PRO371      0.1504
    187  C         23.3830   86.0150    2.4720 C.2   371  PRO371      0.2575
    188  O         23.5300   85.0710    1.7000 O.2   371  PRO371     -0.2718
    189  CB        23.8570   88.3730    1.6800 C.3   371  PRO371      0.0282
    190  CG        23.1410   89.7180    1.9210 C.3   371  PRO371      0.0208
    191  CD        22.3170   89.4080    3.1370 C.3   371  PRO371      0.0893
    192  N         23.7170   85.9640    3.7680 N.am  372  ASP372     -0.1974
    193  CA        24.2890   84.7470    4.3900 C.3   372  ASP372      0.1708
    194  C         23.3230   83.5660    4.3740 C.2   372  ASP372      0.2293
    195  O         23.7580   82.4220    4.3800 O.2   372  ASP372     -0.2864
    196  CB        24.7420   85.0170    5.8350 C.3   372  ASP372      0.1436
    197  CG        25.9200   85.9560    5.9150 C.2   372  ASP372      0.3671
    198  OD1       26.7250   85.9660    4.9670 O.co2 372  ASP372     -0.2456
    199  OD2       26.0610   86.6820    6.9280 O.co2 372  ASP372     -0.2456
    200  N         21.1650   83.1630    1.8230 N.3   374  ALA374     -0.1231
    201  CA        21.0720   82.7950    0.3990 C.3   374  ALA374      0.1694
    202  C         22.3360   82.1320   -0.1600 C.2   374  ALA374      0.2592
    203  O         22.2570   81.4230   -1.1620 O.2   374  ALA374     -0.2718
    204  CB        20.7530   84.0150   -0.4140 C.3   374  ALA374      0.0304
    205  N         23.4900   82.3840    0.4610 N.am  375  TYR375     -0.1962
    206  CA        24.7730   81.8670   -0.0240 C.3   375  TYR375      0.1771
    207  C         24.8170   80.3460   -0.2280 C.2   375  TYR375      0.2620
    208  O         24.3690   79.5770    0.6200 O.2   375  TYR375     -0.2715
    209  CB        25.9020   82.2730    0.9170 C.3   375  TYR375      0.0574
    210  CG        27.2900   81.8740    0.4470 C.ar  375  TYR375     -0.0198
    211  CD1       27.9450   82.5840   -0.5440 C.ar  375  TYR375     -0.0009
    212  CD2       27.9670   80.8100    1.0380 C.ar  375  TYR375     -0.0009
    213  CE1       29.2370   82.2320   -0.9550 C.ar  375  TYR375      0.0417
    214  CE2       29.2400   80.4570    0.6490 C.ar  375  TYR375      0.0417
    215  CZ        29.8750   81.1570   -0.3670 C.ar  375  TYR375      0.1957
    216  OH        31.1540   80.7830   -0.7640 O.3   375  TYR375     -0.2866
    217  N         25.3860   79.9430   -1.3610 N.am  376  SER376     -0.1950
    218  CA        25.4430   78.5460   -1.7910 C.3   376  SER376      0.1924
    219  C         26.3330   78.4240   -3.0310 C.2   376  SER376      0.2314
    220  O         26.9070   79.4080   -3.5060 O.2   376  SER376     -0.2863
    221  CB        24.0310   78.0320   -2.1320 C.3   376  SER376      0.2116
    222  OG        23.5810   78.4570   -3.4340 O.3   376  SER376     -0.2180
    223  N         25.5450   80.5040   -7.4120 N.3   379  PRO379     -0.2102
    224  CA        26.2450   81.5620   -8.1570 C.3   379  PRO379      0.1504
    225  C         27.5600   81.0860   -8.7980 C.2   379  PRO379      0.2575
    226  O         27.8580   81.4680   -9.9280 O.2   379  PRO379     -0.2718
    227  CB        26.5060   82.6450   -7.0810 C.3   379  PRO379      0.0282
    228  CG        26.3720   81.9270   -5.7710 C.3   379  PRO379      0.0208
    229  CD        25.2790   80.9240   -6.0210 C.3   379  PRO379      0.0893
    230  N         28.2860   80.2190   -8.0710 N.am  380  TYR380     -0.1977
    231  CA        29.5370   79.5490   -8.4830 C.3   380  TYR380      0.1639
    232  C         29.3900   78.6300   -9.6920 C.2   380  TYR380      0.2290
    233  O         30.0860   78.7940  -10.7070 O.2   380  TYR380     -0.2864
    234  CB        30.0620   78.6800   -7.3380 C.3   380  TYR380      0.0560
    235  CG        30.5490   79.4670   -6.1580 C.ar  380  TYR380     -0.0198
    236  CD1       29.6850   79.8900   -5.1660 C.ar  380  TYR380     -0.0009
    237  CD2       31.8830   79.8250   -6.0620 C.ar  380  TYR380     -0.0009
    238  CE1       30.1420   80.6560   -4.0810 C.ar  380  TYR380      0.0417
    239  CE2       32.3570   80.5680   -4.9850 C.ar  380  TYR380      0.0417
    240  CZ        31.4870   80.9860   -3.9880 C.ar  380  TYR380      0.1957
    241  OH        31.9910   81.7480   -2.9410 O.3   380  TYR380     -0.2866
@<TRIPOS>BOND
     1   132   130   ar
     2   132   131   ar
     3   130   128   ar
     4   131   129   ar
     5   169   167    1
     6   128   127   ar
     7   128   126   ar
     8   129   126   ar
     9   127   125   ar
    10   126   124   ar
    11   167   166    1
    12   167   168    1
    13   166   163    1
    14   125   124   ar
    15   124   123    1
    16   122   121    2
    17   163   162    1
    18   163   164    1
    19   162   155   am
    20   121   120    1
    21   123   120    1
    22   164   165    2
    23   233   232    2
    24   136   135    2
    25   135   134    1
    26   120   119    1
    27   226   225    2
    28   155   154    1
    29   155   156    2
    30   154   157    1
    31   154   153    1
    32   232   231    1
    33   160   159    1
    34   160   161    1
    35   157   158    1
    36   158   159    1
    37   133   134    1
    38   119   110   am
    39   225   224    1
    40   225   230   am
    41   134   137    1
    42   231   230    1
    43   231   234    1
    44   103   102    2
    45   170   171    1
    46    76    77    1
    47   111   110    2
    48   224   223    1
    49   224   227    1
    50   110   109    1
    51    78    77    1
    52    78    79    2
    53   102   101    1
    54    77    80    1
    55   108   109    1
    56   137   138    1
    57   104   101    1
    58   104   105    1
    59   223   229    1
    60   173   172    2
    61   234   235    1
    62   171   172    1
    63   171   174    1
    64   109   112    1
    65    57    58    1
    66    58    59    1
    67    58    61    1
    68   227   228    1
    69    63    65   ar
    70    63    62   ar
    71    60    59    2
    72    82    84   ar
    73    82    81   ar
    74   107   105   ar
    75    65    66   ar
    76   101   100    1
    77    84    85   ar
    78    59    67   am
    79   175   174    1
    80   105   106   ar
    81    80    81    1
    82   138   139    1
    83    81    83   ar
    84    61    62    1
    85    62    64   ar
    86   235   237   ar
    87   235   236   ar
    88   140   139   ar
    89   237   239   ar
    90   174   176    1
    91   229   228    1
    92   139   141   ar
    93   100    88   am
    94   112   113    1
    95    66    64   ar
    96    85    83   ar
    97    70    69    2
    98    69    68    1
    99   144   145    2
   100   144   143    1
   101    67    68    1
   102    89    88    2
   103    88    87    1
   104   236   238   ar
   105   113   114   ar
   106   113   115   ar
   107   239   240   ar
   108   114   116   ar
   109    86    87    1
   110    68    71    1
   111   142   143    1
   112   115   117   ar
   113   143   146    1
   114    87    90    1
   115   238   240   ar
   116   116   118   ar
   117   240   241    1
   118   117   118   ar
   119    56    54   ar
   120   177   178    1
   121   220   219    2
   122   222   221    1
   123    53    52    1
   124    53    54    1
   125    71    72    1
   126    52    49    1
   127    54    55   ar
   128    96    98   ar
   129    96    93   ar
   130   146   147    1
   131   219   218    1
   132    98    99   ar
   133    90    91    1
   134   183   182    1
   135   182   181    1
   136   182   184    1
   137    74    73   ar
   138    93    91   ar
   139    93    95   ar
   140    72    73    1
   141    73    75   ar
   142   178   181    1
   143   178   179    1
   144    51    50    2
   145    91    92   ar
   146    18    16   am
   147   221   218    1
   148    99    97   ar
   149   148   147   ar
   150   148   150   ar
   151   147   149   ar
   152   218   217    1
   153    49    50    1
   154    49    48    1
   155    95    97   ar
   156    95    94   ar
   157   217   207   am
   158   179   180    2
   159    92    94   ar
   160   203   202    2
   161   150   152   ar
   162   213   211   ar
   163   213   215   ar
   164    48    42   am
   165    16    17    2
   166    16    15    1
   167   216   215    1
   168   149   151   ar
   169   211   210   ar
   170   204   201    1
   171   215   214   ar
   172   207   206    1
   173   207   208    2
   174   202   201    1
   175   202   205   am
   176   206   205    1
   177   206   209    1
   178    15    14    1
   179   152   151   ar
   180    42    43    2
   181    42    41    1
   182    47    46    1
   183   201   200    1
   184   210   209    1
   185   210   212   ar
   186   214   212   ar
   187    39    38    2
   188    41    40    1
   189    41    44    1
   190    38    37    1
   191    38    40   am
   192    37    36    1
   193    46    45    1
   194    23    20    1
   195    14    11    1
   196   189   190    1
   197   189   186    1
   198   188   187    2
   199   190   191    1
   200   186   187    1
   201   186   185    1
   202    20    21    1
   203    20    19    1
   204    45    44    1
   205    22    21    2
   206   187   192   am
   207    11    12    1
   208    11    10    1
   209   185   191    1
   210    19    12   am
   211    30    32   ar
   212    30    29   ar
   213    12    13    2
   214    32    34   ar
   215    28    29    1
   216    28    25    1
   217   192   193    1
   218    29    31   ar
   219    26    25    1
   220    26    27    2
   221     9     7   am
   222    25    24    1
   223    34    35    1
   224    34    33   ar
   225   194   195    2
   226   194   193    1
   227   193   196    1
   228    31    33   ar
   229   198   197   ar
   230     8     7    2
   231     7     6    1
   232   196   197    1
   233   197   199   ar
   234     6     5    1
   235     3     2    1
   236     3     4    2
   237     2     5    1
   238     2     1    1
