@<TRIPOS>MOLECULE
tmp/3fhjA01.pdb
 136 128 0 0 0
SMALL
GASTEIGER

@<TRIPOS>ATOM
      1  N        -45.4120  -10.5530  -69.1050 N.3     9  GLN9       -0.1245
      2  CA       -45.0540  -11.1470  -67.8220 C.3     9  GLN9        0.1566
      3  C        -45.2470  -12.6600  -67.8420 C.2     9  GLN9        0.2260
      4  O        -46.0110  -13.1880  -68.6500 O.2     9  GLN9       -0.2867
      5  CB       -45.8800  -10.5260  -66.6950 C.3     9  GLN9        0.0367
      6  CG       -45.6290   -9.0410  -66.4870 C.3     9  GLN9        0.0905
      7  CD       -44.9560   -8.7440  -65.1610 C.2     9  GLN9        0.2608
      8  OE1      -45.0400   -7.6300  -64.6450 O.2     9  GLN9       -0.2717
      9  NE2      -44.2830   -9.7440  -64.6020 N.am    9  GLN9       -0.0878
     10  N        -54.2420  -17.4090  -71.4050 N.3    10  THR10      -0.1218
     11  CA       -55.5670  -17.9710  -71.4410 C.3    10  THR10       0.1862
     12  C        -56.1900  -17.8250  -72.7990 C.2    10  THR10       0.2287
     13  O        -55.6530  -17.1740  -73.6500 O.2    10  THR10      -0.2866
     14  CB       -56.4650  -17.2820  -70.4580 C.3    10  THR10       0.1770
     15  OG1      -56.9800  -16.1000  -71.0460 O.3    10  THR10      -0.2211
     16  CG2      -55.7130  -16.9200  -69.2600 C.3    10  THR10       0.0375
     17  N        -58.6580  -16.1590  -73.5620 N.3    12  GLY12      -0.1210
     18  CA       -59.2120  -14.8500  -73.7520 C.3    12  GLY12       0.1956
     19  C        -58.1270  -13.9210  -74.1820 C.2    12  GLY12       0.2611
     20  O        -58.3650  -12.9700  -74.8590 O.2    12  GLY12      -0.2717
     21  N        -56.9150  -14.2090  -73.7880 N.am   13  ASN13      -0.1974
     22  CA       -55.8000  -13.4190  -74.2090 C.3    13  ASN13       0.1688
     23  C        -55.3460  -13.7940  -75.5980 C.2    13  ASN13       0.2292
     24  O        -55.0590  -12.9610  -76.4180 O.2    13  ASN13      -0.2864
     25  CB       -54.6660  -13.6360  -73.2430 C.3    13  ASN13       0.1181
     26  CG       -53.4750  -12.8490  -73.5990 C.2    13  ASN13       0.2629
     27  OD1      -52.8000  -12.3140  -72.7490 O.2    13  ASN13      -0.2716
     28  ND2      -53.2000  -12.7640  -74.8750 N.am   13  ASN13      -0.0877
     29  N        -57.7690  -12.3920  -77.8180 N.3    16  GLY16      -0.1210
     30  CA       -57.9420  -10.9730  -77.6570 C.3    16  GLY16       0.1956
     31  C        -56.8300  -10.2000  -78.2950 C.2    16  GLY16       0.2611
     32  O        -57.0480   -9.1710  -78.8740 O.2    16  GLY16      -0.2717
     33  N        -55.6230  -10.7060  -78.1890 N.am   17  ALA17      -0.1979
     34  CA       -54.5000  -10.0470  -78.8000 C.3    17  ALA17       0.1597
     35  C        -53.4980  -10.9170  -79.5050 C.2    17  ALA17       0.2287
     36  O        -52.8440  -10.4940  -80.4200 O.2    17  ALA17      -0.2864
     37  CB       -53.6960   -9.3380  -77.7740 C.3    17  ALA17       0.0319
     38  N        -49.5900   -2.7320  -78.1090 N.3   127  PRO127     -0.2102
     39  CA       -50.8480   -3.4400  -77.9000 C.3   127  PRO127      0.1504
     40  C        -51.1500   -3.6400  -76.4180 C.2   127  PRO127      0.2576
     41  O        -50.8180   -4.6770  -75.8430 O.2   127  PRO127     -0.2718
     42  CB       -50.5950   -4.7920  -78.5720 C.3   127  PRO127      0.0282
     43  CG       -49.1290   -4.9910  -78.4530 C.3   127  PRO127      0.0208
     44  CD       -48.5300   -3.6250  -78.6080 C.3   127  PRO127      0.0893
     45  N        -51.7870   -2.6480  -75.8060 N.am  128  VAL128     -0.1966
     46  CA       -52.1320   -2.7200  -74.3900 C.3   128  VAL128      0.1727
     47  C        -53.5740   -2.2890  -74.1370 C.2   128  VAL128      0.2616
     48  O        -54.1710   -1.5800  -74.9460 O.2   128  VAL128     -0.2715
     49  CB       -51.1480   -1.9080  -73.5190 C.3   128  VAL128      0.0290
     50  CG1      -49.8010   -2.6050  -73.4400 C.3   128  VAL128      0.0023
     51  CG2      -50.9970   -0.4940  -74.0570 C.3   128  VAL128      0.0023
     52  N        -54.1240   -2.7170  -73.0030 N.am  129  GLY129     -0.1955
     53  CA       -55.4910   -2.3730  -72.6320 C.3   129  GLY129      0.1869
     54  C        -55.5550   -0.9970  -71.9710 C.2   129  GLY129      0.2309
     55  O        -54.5940   -0.2250  -72.0190 O.2   129  GLY129     -0.2863
     56  N        -55.8420   -0.5290  -68.8080 N.3   131  ASP131     -0.1225
     57  CA       -55.1080   -0.6250  -67.5520 C.3   131  ASP131      0.1805
     58  C        -53.6860   -0.0890  -67.7000 C.2   131  ASP131      0.2597
     59  O        -53.0260    0.2270  -66.7110 O.2   131  ASP131     -0.2718
     60  CB       -55.0720   -2.0770  -67.0660 C.3   131  ASP131      0.1424
     61  CG       -54.8930   -3.0680  -68.2010 C.2   131  ASP131      0.3668
     62  OD1      -55.6620   -2.9910  -69.1840 O.co2 131  ASP131     -0.2456
     63  OD2      -53.9810   -3.9180  -68.1140 O.co2 131  ASP131     -0.2456
     64  N        -53.2140    0.0040  -68.9390 N.am  132  GLN132     -0.1979
     65  CA       -51.8670    0.4910  -69.2050 C.3   132  GLN132      0.1601
     66  C        -51.8740    1.8880  -69.8160 C.2   132  GLN132      0.2287
     67  O        -50.8260    2.4240  -70.1720 O.2   132  GLN132     -0.2864
     68  CB       -51.1150   -0.4830  -70.1140 C.3   132  GLN132      0.0394
     69  CG       -51.0770   -1.9100  -69.5910 C.3   132  GLN132      0.0908
     70  CD       -50.2720   -2.0410  -68.3150 C.2   132  GLN132      0.2608
     71  OE1      -49.2890   -1.3290  -68.1140 O.2   132  GLN132     -0.2717
     72  NE2      -50.6810   -2.9600  -67.4470 N.am  132  GLN132     -0.0878
     73  N        -53.9820   -1.8610  -80.0300 N.3   158  ILE158     -0.1245
     74  CA       -54.0830   -3.2340  -80.5100 C.3   158  ILE158      0.1561
     75  C        -54.6670   -3.2850  -81.9180 C.2   158  ILE158      0.2260
     76  O        -55.7850   -2.8270  -82.1540 O.2   158  ILE158     -0.2867
     77  CB       -54.9490   -4.0970  -79.5740 C.3   158  ILE158      0.0252
     78  CG1      -54.4100   -4.0390  -78.1440 C.3   158  ILE158      0.0019
     79  CG2      -55.0020   -5.5340  -80.0710 C.3   158  ILE158      0.0019
     80  CD1      -55.2610   -4.7860  -77.1400 C.3   158  ILE158      0.0001
     81  N        -62.5810  -10.2660  -79.6900 N.3   163  ALA163     -0.1231
     82  CA       -63.6320  -10.1540  -78.6850 C.3   163  ALA163      0.1694
     83  C        -63.0430  -10.0060  -77.2860 C.2   163  ALA163      0.2592
     84  O        -61.9330  -10.4660  -77.0170 O.2   163  ALA163     -0.2718
     85  CB       -64.5560  -11.3600  -78.7490 C.3   163  ALA163      0.0304
     86  N        -63.7940   -9.3620  -76.3990 N.am  164  ARG164     -0.1966
     87  CA       -63.4300   -9.3000  -74.9880 C.3   164  ARG164      0.1729
     88  C        -63.9910  -10.5150  -74.2570 C.2   164  ARG164      0.2616
     89  O        -65.1810  -10.5750  -73.9500 O.2   164  ARG164     -0.2715
     90  CB       -63.9190   -8.0020  -74.3400 C.3   164  ARG164      0.0348
     91  CG       -63.2060   -7.6650  -73.0330 C.3   164  ARG164      0.0492
     92  CD       -63.4700   -6.2330  -72.5980 C.3   164  ARG164      0.2205
     93  NE       -64.1180   -6.1720  -71.2900 N.pl3 164  ARG164     -0.0865
     94  CZ       -63.5220   -5.7590  -70.1760 C.cat 164  ARG164      0.5346
     95  NH1      -62.2560   -5.3630  -70.2040 N.pl3 164  ARG164      0.1354
     96  NH2      -64.1920   -5.7430  -69.0310 N.pl3 164  ARG164      0.1354
     97  N        -63.1290  -11.4990  -74.0200 N.am  165  ILE165     -0.1977
     98  CA       -63.5260  -12.7350  -73.3570 C.3   165  ILE165      0.1596
     99  C        -63.6830  -12.5360  -71.8560 C.2   165  ILE165      0.2287
    100  O        -62.7940  -12.0050  -71.1920 O.2   165  ILE165     -0.2864
    101  CB       -62.5640  -13.8940  -73.6990 C.3   165  ILE165      0.0276
    102  CG1      -62.4650  -14.0660  -75.2170 C.3   165  ILE165      0.0022
    103  CG2      -63.0290  -15.1880  -73.0510 C.3   165  ILE165      0.0022
    104  CD1      -63.7850  -13.8800  -75.9440 C.3   165  ILE165      0.0001
    105  N        -63.8870   -9.6100  -66.9000 N.3   174  LYS174     -0.1231
    106  CA       -62.9390  -10.0220  -67.9220 C.3   174  LYS174      0.1693
    107  C        -62.2040  -11.2680  -67.4490 C.2   174  LYS174      0.2592
    108  O        -61.8720  -11.3860  -66.2700 O.2   174  LYS174     -0.2718
    109  CB       -61.9310   -8.8990  -68.1750 C.3   174  LYS174      0.0285
    110  CG       -61.2020   -9.0000  -69.5030 C.3   174  LYS174      0.0035
    111  CD       -60.0750   -7.9820  -69.5870 C.3   174  LYS174      0.0206
    112  CE       -58.9880   -8.4410  -70.5460 C.3   174  LYS174      0.1093
    113  NZ       -57.6270   -8.0530  -70.0760 N.3   174  LYS174     -0.1314
    114  N        -61.9510  -12.1980  -68.3650 N.am  175  MET175     -0.1965
    115  CA       -61.2330  -13.4200  -68.0210 C.3   175  MET175      0.1736
    116  C        -59.7580  -13.1040  -67.7900 C.2   175  MET175      0.2617
    117  O        -59.0950  -12.5370  -68.6560 O.2   175  MET175     -0.2715
    118  CB       -61.3820  -14.4720  -69.1230 C.3   175  MET175      0.0427
    119  CG       -60.5000  -15.6990  -68.9190 C.3   175  MET175      0.0599
    120  SD       -60.5370  -16.8620  -70.2930 S.3   175  MET175     -0.1393
    121  CE       -62.2510  -17.3780  -70.2390 C.3   175  MET175      0.0692
    122  N        -59.2510  -13.4650  -66.6160 N.am  176  SER176     -0.1936
    123  CA       -57.8610  -13.1920  -66.2690 C.3   176  SER176      0.2055
    124  C        -57.1720  -14.4030  -65.6520 C.2   176  SER176      0.2642
    125  O        -57.7960  -15.1870  -64.9340 O.2   176  SER176     -0.2714
    126  CB       -57.7760  -11.9980  -65.3090 C.3   176  SER176      0.2130
    127  OG       -56.4840  -11.8820  -64.7370 O.3   176  SER176     -0.2179
    128  N        -55.8770  -14.5370  -65.9230 N.am  177  LYS177     -0.1977
    129  CA       -55.0920  -15.6400  -65.3840 C.3   177  LYS177      0.1596
    130  C        -54.8390  -15.4630  -63.8880 C.2   177  LYS177      0.2287
    131  O        -54.4140  -16.3940  -63.2080 O.2   177  LYS177     -0.2864
    132  CB       -53.7560  -15.7500  -66.1210 C.3   177  LYS177      0.0298
    133  CG       -52.8290  -14.5640  -65.9000 C.3   177  LYS177      0.0038
    134  CD       -51.5280  -14.7300  -66.6700 C.3   177  LYS177      0.0206
    135  CE       -50.5950  -13.5520  -66.4410 C.3   177  LYS177      0.1093
    136  NZ       -49.3200  -13.7100  -67.1900 N.3   177  LYS177     -0.1314
@<TRIPOS>BOND
     1    76    75    2
     2    75    74    1
     3    74    73    1
     4    74    77    1
     5    36    35    2
     6    79    77    1
     7    81    82    1
     8    77    78    1
     9    35    34    1
    10    32    31    2
    11    34    33    1
    12    34    37    1
    13    85    82    1
    14    82    83    1
    15    44    43    1
    16    44    38    1
    17    42    43    1
    18    42    39    1
    19    31    33   am
    20    31    30    1
    21    78    80    1
    22    38    39    1
    23    39    40    1
    24    29    30    1
    25    83    84    2
    26    83    86   am
    27    40    41    2
    28    40    45   am
    29    24    23    2
    30    86    87    1
    31   104   102    1
    32    45    46    1
    33    23    22    1
    34   102   101    1
    35    87    90    1
    36    87    88    1
    37    48    47    2
    38    28    26   am
    39    20    19    2
    40    46    47    1
    41    46    49    1
    42    90    91    1
    43    88    97   am
    44    88    89    2
    45    22    21    1
    46    22    25    1
    47    19    21   am
    48    19    18    1
    49    47    52   am
    50    51    49    1
    51    97    98    1
    52    18    17    1
    53   101    98    1
    54   101   103    1
    55    13    12    2
    56    26    25    1
    57    26    27    2
    58    49    50    1
    59    98    99    1
    60    91    92    1
    61    52    53    1
    62    12    11    1
    63    53    54    1
    64    92    93    1
    65    55    54    2
    66    99   100    2
    67    11    10    1
    68    11    14    1
    69    93    94    2
    70    15    14    1
    71   112   113    1
    72   112   111    1
    73    14    16    1
    74   120   121    1
    75   120   119    1
    76    95    94    1
    77    94    96    1
    78    67    66    2
    79    68    69    1
    80    68    65    1
    81    66    65    1
    82    69    70    1
    83   111   110    1
    84   110   109    1
    85    65    64    1
    86    62    61   ar
    87   118   119    1
    88   118   115    1
    89     1     2    1
    90    64    58   am
    91    56    57    1
    92   117   116    2
    93     4     3    2
    94   114   115    1
    95   114   107   am
    96    70    71    2
    97    70    72   am
    98    61    63   ar
    99    61    60    1
   100   109   106    1
   101   115   116    1
   102   106   107    1
   103   106   105    1
   104     3     2    1
   105     2     5    1
   106   116   122   am
   107    58    57    1
   108    58    59    2
   109    57    60    1
   110   107   108    2
   111   136   135    1
   112     5     6    1
   113   134   135    1
   114   134   133    1
   115   122   123    1
   116     6     7    1
   117   123   124    1
   118   123   126    1
   119   132   133    1
   120   132   129    1
   121   128   124   am
   122   128   129    1
   123   124   125    2
   124   129   130    1
   125   126   127    1
   126     7     8    2
   127     7     9   am
   128   130   131    2
