@<TRIPOS>MOLECULE
tmp/3fhjA00.pdb
 116 109 0 0 0
SMALL
GASTEIGER

@<TRIPOS>ATOM
      1  N        -44.2500   -3.2140  -80.0310 N.3     5  PHE5       -0.1227
      2  CA       -43.5620   -3.7560  -78.8670 C.3     5  PHE5        0.1736
      3  C        -44.5460   -4.2800  -77.8310 C.2     5  PHE5        0.2596
      4  O        -45.4800   -3.5800  -77.4320 O.2     5  PHE5       -0.2718
      5  CB       -42.6240   -2.7220  -78.2350 C.3     5  PHE5        0.0547
      6  CG       -41.7540   -3.2850  -77.1470 C.ar    5  PHE5       -0.0202
      7  CD1      -42.2460   -3.4430  -75.8590 C.ar    5  PHE5       -0.0042
      8  CD2      -40.4560   -3.6870  -77.4190 C.ar    5  PHE5       -0.0042
      9  CE1      -41.4510   -3.9740  -74.8560 C.ar    5  PHE5       -0.0003
     10  CE2      -39.6580   -4.2210  -76.4250 C.ar    5  PHE5       -0.0003
     11  CZ       -40.1550   -4.3630  -75.1390 C.ar    5  PHE5       -0.0000
     12  N        -44.3330   -5.5200  -77.4070 N.am    6  SER6       -0.1938
     13  CA       -45.1970   -6.1450  -76.4190 C.3     6  SER6        0.2055
     14  C        -44.3900   -6.7710  -75.2900 C.2     6  SER6        0.2643
     15  O        -43.6130   -7.6940  -75.5140 O.2     6  SER6       -0.2714
     16  CB       -46.0830   -7.2030  -77.0790 C.3     6  SER6        0.2130
     17  OG       -47.0150   -7.7310  -76.1530 O.3     6  SER6       -0.2179
     18  N        -44.5800   -6.2600  -74.0770 N.am    7  GLY7       -0.1954
     19  CA       -43.8920   -6.7830  -72.9030 C.3     7  GLY7        0.1869
     20  C        -44.7930   -7.8060  -72.2210 C.2     7  GLY7        0.2309
     21  O        -45.9090   -7.4840  -71.8130 O.2     7  GLY7       -0.2863
     22  N        -45.4120  -10.5530  -69.1050 N.3     9  GLN9       -0.1245
     23  CA       -45.0540  -11.1470  -67.8220 C.3     9  GLN9        0.1566
     24  C        -45.2470  -12.6600  -67.8420 C.2     9  GLN9        0.2260
     25  O        -46.0110  -13.1880  -68.6500 O.2     9  GLN9       -0.2867
     26  CB       -45.8800  -10.5260  -66.6950 C.3     9  GLN9        0.0367
     27  CG       -45.6290   -9.0410  -66.4870 C.3     9  GLN9        0.0905
     28  CD       -44.9560   -8.7440  -65.1610 C.2     9  GLN9        0.2608
     29  OE1      -45.0400   -7.6300  -64.6450 O.2     9  GLN9       -0.2717
     30  NE2      -44.2830   -9.7440  -64.6020 N.am    9  GLN9       -0.0878
     31  N        -40.6430   -9.7500  -69.9170 N.3    35  VAL35      -0.1245
     32  CA       -40.2130   -8.8160  -68.8830 C.3    35  VAL35       0.1561
     33  C        -39.9330   -9.4390  -67.5190 C.2    35  VAL35       0.2260
     34  O        -40.6570   -9.1970  -66.5560 O.2    35  VAL35      -0.2867
     35  CB       -41.1650   -7.6040  -68.7940 C.3    35  VAL35       0.0252
     36  CG1      -41.1410   -6.8200  -70.0990 C.3    35  VAL35       0.0019
     37  CG2      -42.5780   -8.0600  -68.4720 C.3    35  VAL35       0.0019
     38  N        -39.3050   -6.9570  -64.6650 N.3    38  HIS38      -0.1241
     39  CA       -40.5080   -6.3490  -64.1110 C.3    38  HIS38       0.1621
     40  C        -41.1240   -7.3270  -63.1170 C.2    38  HIS38       0.2264
     41  O        -41.7170   -6.9280  -62.1190 O.2    38  HIS38      -0.2867
     42  CB       -41.5140   -6.0410  -65.2250 C.3    38  HIS38       0.0745
     43  CG       -41.3880   -4.6610  -65.7880 C.ar   38  HIS38       0.0817
     44  ND1      -40.9560   -4.4190  -67.0750 N.ar   38  HIS38      -0.2268
     45  CD2      -41.6280   -3.4470  -65.2380 C.ar   38  HIS38       0.1154
     46  CE1      -40.9360   -3.1160  -67.2930 C.ar   38  HIS38       0.1986
     47  NE2      -41.3400   -2.5040  -66.1940 N.ar   38  HIS38      -0.2212
     48  N        -40.8020    1.1940  -61.5150 N.3   110  TYR110     -0.1241
     49  CA       -40.8990    0.3430  -62.6960 C.3   110  TYR110      0.1605
     50  C        -41.4410    1.0080  -63.9680 C.2   110  TYR110      0.2264
     51  O        -41.1410    0.5570  -65.0700 O.2   110  TYR110     -0.2867
     52  CB       -41.6570   -0.9470  -62.3870 C.3   110  TYR110      0.0534
     53  CG       -43.1580   -0.8070  -62.4320 C.ar  110  TYR110     -0.0201
     54  CD1      -43.8460   -0.8640  -63.6380 C.ar  110  TYR110     -0.0009
     55  CD2      -43.8920   -0.6340  -61.2670 C.ar  110  TYR110     -0.0009
     56  CE1      -45.2230   -0.7450  -63.6830 C.ar  110  TYR110      0.0417
     57  CE2      -45.2700   -0.5090  -61.3000 C.ar  110  TYR110      0.0417
     58  CZ       -45.9300   -0.5670  -62.5120 C.ar  110  TYR110      0.1957
     59  OH       -47.3020   -0.4440  -62.5490 O.3   110  TYR110     -0.2866
     60  N        -40.5340    0.4220  -68.0330 N.3   114  MET114     -0.1245
     61  CA       -41.5000    0.0740  -69.0680 C.3   114  MET114      0.1570
     62  C        -41.3870    1.0540  -70.2340 C.2   114  MET114      0.2261
     63  O        -41.5280    0.6720  -71.3930 O.2   114  MET114     -0.2867
     64  CB       -42.9150    0.0890  -68.4980 C.3   114  MET114      0.0387
     65  CG       -44.0030    0.0490  -69.5510 C.3   114  MET114      0.0595
     66  SD       -45.6040   -0.3670  -68.8420 S.3   114  MET114     -0.1393
     67  CE       -46.5990   -0.5610  -70.3280 C.3   114  MET114      0.0692
     68  N        -38.4020    0.0250  -72.2070 N.3   117  ASP117     -0.1225
     69  CA       -38.7250   -1.1650  -72.9860 C.3   117  ASP117      0.1805
     70  C        -39.2450   -0.7290  -74.3540 C.2   117  ASP117      0.2597
     71  O        -38.7990   -1.2160  -75.3930 O.2   117  ASP117     -0.2718
     72  CB       -39.8130   -1.9830  -72.2820 C.3   117  ASP117      0.1424
     73  CG       -39.3470   -2.5820  -70.9680 C.2   117  ASP117      0.3668
     74  OD1      -38.1320   -2.5460  -70.6860 O.co2 117  ASP117     -0.2456
     75  OD2      -40.2020   -3.0970  -70.2150 O.co2 117  ASP117     -0.2456
     76  N        -40.1780    0.2180  -74.3290 N.am  118  ILE118     -0.1980
     77  CA       -40.8100    0.7490  -75.5340 C.3   118  ILE118      0.1595
     78  C        -39.9070    1.6750  -76.3520 C.2   118  ILE118      0.2287
     79  O        -39.5690    1.3800  -77.4960 O.2   118  ILE118     -0.2864
     80  CB       -42.1400    1.4480  -75.1820 C.3   118  ILE118      0.0276
     81  CG1      -43.0750    0.4790  -74.4530 C.3   118  ILE118      0.0022
     82  CG2      -42.7950    2.0190  -76.4270 C.3   118  ILE118      0.0022
     83  CD1      -44.1910    1.1610  -73.6990 C.3   118  ILE118      0.0001
     84  N        -48.1810    0.0610  -79.3070 N.3   126  VAL126     -0.1245
     85  CA       -48.0990   -0.8190  -78.1500 C.3   126  VAL126      0.1561
     86  C        -49.4700   -1.4290  -77.8790 C.2   126  VAL126      0.2260
     87  O        -50.4010   -0.7300  -77.4840 O.2   126  VAL126     -0.2867
     88  CB       -47.5410   -0.0970  -76.9110 C.3   126  VAL126      0.0252
     89  CG1      -47.3650   -1.0770  -75.7580 C.3   126  VAL126      0.0019
     90  CG2      -46.2230    0.5790  -77.2360 C.3   126  VAL126      0.0019
     91  N        -51.7870   -2.6480  -75.8060 N.3   128  VAL128     -0.1245
     92  CA       -52.1320   -2.7200  -74.3900 C.3   128  VAL128      0.1561
     93  C        -53.5740   -2.2890  -74.1370 C.2   128  VAL128      0.2260
     94  O        -54.1710   -1.5800  -74.9460 O.2   128  VAL128     -0.2867
     95  CB       -51.1480   -1.9080  -73.5190 C.3   128  VAL128      0.0252
     96  CG1      -49.8010   -2.6050  -73.4400 C.3   128  VAL128      0.0019
     97  CG2      -50.9970   -0.4940  -74.0570 C.3   128  VAL128      0.0019
     98  N        -53.2140    0.0040  -68.9390 N.3   132  GLN132     -0.1245
     99  CA       -51.8670    0.4910  -69.2050 C.3   132  GLN132      0.1566
    100  C        -51.8740    1.8880  -69.8160 C.2   132  GLN132      0.2260
    101  O        -50.8260    2.4240  -70.1720 O.2   132  GLN132     -0.2867
    102  CB       -51.1150   -0.4830  -70.1140 C.3   132  GLN132      0.0367
    103  CG       -51.0770   -1.9100  -69.5910 C.3   132  GLN132      0.0905
    104  CD       -50.2720   -2.0410  -68.3150 C.2   132  GLN132      0.2608
    105  OE1      -49.2890   -1.3290  -68.1140 O.2   132  GLN132     -0.2717
    106  NE2      -50.6810   -2.9600  -67.4470 N.am  132  GLN132     -0.0878
    107  N        -49.6290    4.2870  -68.0990 N.3   135  HIS135     -0.1241
    108  CA       -48.2400    3.9160  -68.3400 C.3   135  HIS135      0.1621
    109  C        -47.7890    4.4210  -69.7030 C.2   135  HIS135      0.2264
    110  O        -46.7210    5.0170  -69.8300 O.2   135  HIS135     -0.2867
    111  CB       -48.0610    2.3990  -68.2460 C.3   135  HIS135      0.0745
    112  CG       -48.1090    1.8720  -66.8450 C.ar  135  HIS135      0.0817
    113  ND1      -47.6000    2.5690  -65.7700 N.ar  135  HIS135     -0.2268
    114  CD2      -48.6160    0.7220  -66.3430 C.ar  135  HIS135      0.1154
    115  CE1      -47.7860    1.8670  -64.6670 C.ar  135  HIS135      0.1986
    116  NE2      -48.4000    0.7430  -64.9860 N.ar  135  HIS135     -0.2212
@<TRIPOS>BOND
     1     1     2    1
     2    84    85    1
     3     2     5    1
     4     2     3    1
     5     5     6    1
     6    85    86    1
     7    85    88    1
     8    86    87    2
     9     3     4    2
    10     3    12   am
    11    79    78    2
    12     8     6   ar
    13     8    10   ar
    14    12    13    1
    15    90    88    1
    16     6     7   ar
    17    16    13    1
    18    16    17    1
    19    88    89    1
    20    82    80    1
    21    10    11   ar
    22    13    14    1
    23    78    77    1
    24     7     9   ar
    25    91    92    1
    26    77    80    1
    27    77    76    1
    28    15    14    2
    29    71    70    2
    30    14    18   am
    31    80    81    1
    32    11     9   ar
    33    94    93    2
    34    81    83    1
    35    92    93    1
    36    92    95    1
    37    70    76   am
    38    70    69    1
    39    18    19    1
    40    97    95    1
    41    95    96    1
    42    69    72    1
    43    69    68    1
    44    19    20    1
    45    72    73    1
    46    20    21    2
    47    63    62    2
    48    73    74   ar
    49    73    75   ar
    50    67    66    1
    51    62    61    1
    52   101   100    2
    53   102   103    1
    54   102    99    1
    55    36    35    1
    56    31    32    1
    57   110   109    2
    58   100    99    1
    59   109   108    1
    60   103   104    1
    61    65    66    1
    62    65    64    1
    63    99    98    1
    64    22    23    1
    65    61    64    1
    66    61    60    1
    67    32    35    1
    68    32    33    1
    69    35    37    1
    70    25    24    2
    71   108   111    1
    72   108   107    1
    73   104   105    2
    74   104   106   am
    75   111   112    1
    76    24    23    1
    77    23    26    1
    78    33    34    2
    79    46    44   ar
    80    46    47   ar
    81    44    43   ar
    82   112   114   ar
    83   112   113   ar
    84    26    27    1
    85    27    28    1
    86   114   116   ar
    87    47    45   ar
    88    43    45   ar
    89    43    42    1
    90   113   115   ar
    91    42    39    1
    92    28    29    2
    93    28    30   am
    94    51    50    2
    95   116   115   ar
    96    38    39    1
    97    39    40    1
    98    50    49    1
    99    56    54   ar
   100    56    58   ar
   101    54    53   ar
   102    40    41    2
   103    49    52    1
   104    49    48    1
   105    59    58    1
   106    58    57   ar
   107    53    52    1
   108    53    55   ar
   109    57    55   ar
